MODEL 1
REMARK VINA RESULT:      -5.7      0.000      0.000
REMARK  4 active torsions:
REMARK  status: ('A' for Active; 'I' for Inactive)
REMARK    1  A    between atoms: C_5  and  C_9 
REMARK       I    between atoms: C_9  and  N_11 
REMARK    2  A    between atoms: N_11  and  C_12 
REMARK    3  A    between atoms: C_12  and  C_13 
REMARK    4  A    between atoms: C_13  and  N_14 
ROOT
HETATM    1  C   UNL     1     -43.488 -53.606  12.958  1.00  0.00     0.222 C 
HETATM    2  O   UNL     1     -42.833 -54.039  13.901  1.00  0.00    -0.273 OA
HETATM    3  N   UNL     1     -42.957 -52.724  12.042  1.00  0.00    -0.359 N 
HETATM    4  H   UNL     1     -43.503 -52.436  11.242  1.00  0.00     0.162 HD
ENDROOT
BRANCH   1   5
HETATM    5  C   UNL     1     -44.965 -53.940  12.758  1.00  0.00     0.088 C 
HETATM    6  C   UNL     1     -45.804 -52.682  12.525  1.00  0.00     0.034 C 
HETATM    7  C   UNL     1     -45.967 -51.894  13.817  1.00  0.00     0.126 C 
HETATM    8  N   UNL     1     -46.516 -52.724  14.878  1.00  0.00    -0.356 N 
HETATM    9  C   UNL     1     -47.149 -52.052  15.997  1.00  0.00     0.152 C 
HETATM   10  C   UNL     1     -45.942 -53.963  15.128  1.00  0.00     0.220 C 
HETATM   11  C   UNL     1     -45.552 -54.760  13.901  1.00  0.00     0.117 C 
HETATM   12  O   UNL     1     -45.886 -54.474  16.245  1.00  0.00    -0.273 OA
ENDBRANCH   1   5
BRANCH   3  13
HETATM   13  C   UNL     1     -41.547 -52.379  12.105  1.00  0.00     0.143 C 
BRANCH  13  14
HETATM   14  C   UNL     1     -41.291 -51.046  12.793  1.00  0.00     0.148 C 
BRANCH  14  15
HETATM   15  N   UNL     1     -41.531 -49.930  11.910  1.00  0.00    -0.350 N 
HETATM   16  C   UNL     1     -42.554 -49.030  12.002  1.00  0.00     0.108 A 
HETATM   17  C   UNL     1     -42.370 -48.172  10.943  1.00  0.00     0.106 A 
HETATM   18  N   UNL     1     -41.256 -48.522  10.222  1.00  0.00    -0.361 N 
HETATM   19  C   UNL     1     -40.770 -49.584  10.829  1.00  0.00     0.182 A 
ATOM     20  HN  UNL     1     -40.884 -48.058   9.393  1.00  0.00     0.166 HD
ENDBRANCH  14  15
ENDBRANCH  13  14
ENDBRANCH   3  13
TORSDOF 4
ENDMDL
MODEL 2
REMARK VINA RESULT:      -5.6      1.426      1.891
REMARK  4 active torsions:
REMARK  status: ('A' for Active; 'I' for Inactive)
REMARK    1  A    between atoms: C_5  and  C_9 
REMARK       I    between atoms: C_9  and  N_11 
REMARK    2  A    between atoms: N_11  and  C_12 
REMARK    3  A    between atoms: C_12  and  C_13 
REMARK    4  A    between atoms: C_13  and  N_14 
ROOT
HETATM    1  C   UNL     1     -43.123 -54.014  13.308  1.00  0.00     0.222 C 
HETATM    2  O   UNL     1     -42.676 -54.406  14.382  1.00  0.00    -0.273 OA
HETATM    3  N   UNL     1     -42.359 -53.287  12.420  1.00  0.00    -0.359 N 
HETATM    4  H   UNL     1     -42.736 -53.034  11.518  1.00  0.00     0.162 HD
ENDROOT
BRANCH   1   5
HETATM    5  C   UNL     1     -44.578 -54.223  12.894  1.00  0.00     0.088 C 
HETATM    6  C   UNL     1     -45.258 -52.903  12.527  1.00  0.00     0.034 C 
HETATM    7  C   UNL     1     -45.539 -52.075  13.773  1.00  0.00     0.126 C 
HETATM    8  N   UNL     1     -46.309 -52.830  14.748  1.00  0.00    -0.356 N 
HETATM    9  C   UNL     1     -47.038 -52.080  15.754  1.00  0.00     0.152 C 
HETATM   10  C   UNL     1     -45.891 -54.108  15.092  1.00  0.00     0.220 C 
HETATM   11  C   UNL     1     -45.397 -54.963  13.945  1.00  0.00     0.117 C 
HETATM   12  O   UNL     1     -46.046 -54.596  16.210  1.00  0.00    -0.273 OA
ENDBRANCH   1   5
BRANCH   3  13
HETATM   13  C   UNL     1     -40.946 -53.076  12.688  1.00  0.00     0.143 C 
BRANCH  13  14
HETATM   14  C   UNL     1     -40.654 -51.705  13.284  1.00  0.00     0.148 C 
BRANCH  14  15
HETATM   15  N   UNL     1     -39.701 -50.967  12.491  1.00  0.00    -0.350 N 
HETATM   16  C   UNL     1     -38.352 -50.908  12.694  1.00  0.00     0.108 A 
HETATM   17  C   UNL     1     -37.878 -50.080  11.704  1.00  0.00     0.106 A 
HETATM   18  N   UNL     1     -38.903 -49.646  10.901  1.00  0.00    -0.361 N 
HETATM   19  C   UNL     1     -39.990 -50.198  11.398  1.00  0.00     0.182 A 
ATOM     20  HN  UNL     1     -38.837 -49.029  10.091  1.00  0.00     0.166 HD
ENDBRANCH  14  15
ENDBRANCH  13  14
ENDBRANCH   3  13
TORSDOF 4
ENDMDL
MODEL 3
REMARK VINA RESULT:      -5.3      1.928      3.012
REMARK  4 active torsions:
REMARK  status: ('A' for Active; 'I' for Inactive)
REMARK    1  A    between atoms: C_5  and  C_9 
REMARK       I    between atoms: C_9  and  N_11 
REMARK    2  A    between atoms: N_11  and  C_12 
REMARK    3  A    between atoms: C_12  and  C_13 
REMARK    4  A    between atoms: C_13  and  N_14 
ROOT
HETATM    1  C   UNL     1     -44.901 -50.690  15.481  1.00  0.00     0.222 C 
HETATM    2  O   UNL     1     -44.483 -50.463  16.612  1.00  0.00    -0.273 OA
HETATM    3  N   UNL     1     -44.185 -50.344  14.354  1.00  0.00    -0.359 N 
HETATM    4  H   UNL     1     -44.528 -50.602  13.439  1.00  0.00     0.162 HD
ENDROOT
BRANCH   1   5
HETATM    5  C   UNL     1     -46.276 -51.299  15.216  1.00  0.00     0.088 C 
HETATM    6  C   UNL     1     -46.545 -52.506  16.116  1.00  0.00     0.034 C 
HETATM    7  C   UNL     1     -45.722 -53.707  15.670  1.00  0.00     0.126 C 
HETATM    8  N   UNL     1     -45.952 -54.014  14.267  1.00  0.00    -0.356 N 
HETATM    9  C   UNL     1     -45.625 -55.352  13.810  1.00  0.00     0.152 C 
HETATM   10  C   UNL     1     -45.873 -52.991  13.332  1.00  0.00     0.220 C 
HETATM   11  C   UNL     1     -46.491 -51.675  13.754  1.00  0.00     0.117 C 
HETATM   12  O   UNL     1     -45.481 -53.152  12.179  1.00  0.00    -0.273 OA
ENDBRANCH   1   5
BRANCH   3  13
HETATM   13  C   UNL     1     -42.842 -49.808  14.488  1.00  0.00     0.143 C 
BRANCH  13  14
HETATM   14  C   UNL     1     -41.791 -50.656  13.786  1.00  0.00     0.148 C 
BRANCH  14  15
HETATM   15  N   UNL     1     -41.421 -50.104  12.506  1.00  0.00    -0.350 N 
HETATM   16  C   UNL     1     -41.820 -48.900  11.997  1.00  0.00     0.108 A 
HETATM   17  C   UNL     1     -41.226 -48.822  10.759  1.00  0.00     0.106 A 
HETATM   18  N   UNL     1     -40.470 -49.941  10.511  1.00  0.00    -0.361 N 
HETATM   19  C   UNL     1     -40.606 -50.694  11.581  1.00  0.00     0.182 A 
ATOM     20  HN  UNL     1     -39.921 -50.144   9.676  1.00  0.00     0.166 HD
ENDBRANCH  14  15
ENDBRANCH  13  14
ENDBRANCH   3  13
TORSDOF 4
ENDMDL
MODEL 4
REMARK VINA RESULT:      -5.2      2.658      7.025
REMARK  4 active torsions:
REMARK  status: ('A' for Active; 'I' for Inactive)
REMARK    1  A    between atoms: C_5  and  C_9 
REMARK       I    between atoms: C_9  and  N_11 
REMARK    2  A    between atoms: N_11  and  C_12 
REMARK    3  A    between atoms: C_12  and  C_13 
REMARK    4  A    between atoms: C_13  and  N_14 
ROOT
HETATM    1  C   UNL     1     -40.588 -52.663  13.537  1.00  0.00     0.222 C 
HETATM    2  O   UNL     1     -39.957 -53.551  12.972  1.00  0.00    -0.273 OA
HETATM    3  N   UNL     1     -41.961 -52.702  13.652  1.00  0.00    -0.359 N 
HETATM    4  H   UNL     1     -42.445 -51.987  14.178  1.00  0.00     0.162 HD
ENDROOT
BRANCH   1   5
HETATM    5  C   UNL     1     -39.924 -51.403  14.091  1.00  0.00     0.088 C 
HETATM    6  C   UNL     1     -40.366 -50.150  13.334  1.00  0.00     0.034 C 
HETATM    7  C   UNL     1     -39.729 -50.100  11.951  1.00  0.00     0.126 C 
HETATM    8  N   UNL     1     -38.281 -50.205  12.032  1.00  0.00    -0.356 N 
HETATM    9  C   UNL     1     -37.509 -49.727  10.900  1.00  0.00     0.152 C 
HETATM   10  C   UNL     1     -37.720 -51.220  12.795  1.00  0.00     0.220 C 
HETATM   11  C   UNL     1     -38.403 -51.494  14.118  1.00  0.00     0.117 C 
HETATM   12  O   UNL     1     -36.655 -51.768  12.520  1.00  0.00    -0.273 OA
ENDBRANCH   1   5
BRANCH   3  13
HETATM   13  C   UNL     1     -42.690 -53.877  13.208  1.00  0.00     0.143 C 
BRANCH  13  14
HETATM   14  C   UNL     1     -43.992 -53.535  12.497  1.00  0.00     0.148 C 
BRANCH  14  15
HETATM   15  N   UNL     1     -45.144 -53.808  13.322  1.00  0.00    -0.350 N 
HETATM   16  C   UNL     1     -45.365 -54.941  14.054  1.00  0.00     0.108 A 
HETATM   17  C   UNL     1     -46.587 -54.743  14.654  1.00  0.00     0.106 A 
HETATM   18  N   UNL     1     -47.103 -53.517  14.316  1.00  0.00    -0.361 N 
HETATM   19  C   UNL     1     -46.211 -52.976  13.513  1.00  0.00     0.182 A 
ATOM     20  HN  UNL     1     -47.988 -53.112  14.621  1.00  0.00     0.166 HD
ENDBRANCH  14  15
ENDBRANCH  13  14
ENDBRANCH   3  13
TORSDOF 4
ENDMDL
MODEL 5
REMARK VINA RESULT:      -5.0      2.181      3.522
REMARK  4 active torsions:
REMARK  status: ('A' for Active; 'I' for Inactive)
REMARK    1  A    between atoms: C_5  and  C_9 
REMARK       I    between atoms: C_9  and  N_11 
REMARK    2  A    between atoms: N_11  and  C_12 
REMARK    3  A    between atoms: C_12  and  C_13 
REMARK    4  A    between atoms: C_13  and  N_14 
ROOT
HETATM    1  C   UNL     1     -44.376 -51.841  13.156  1.00  0.00     0.222 C 
HETATM    2  O   UNL     1     -44.195 -52.893  12.550  1.00  0.00    -0.273 OA
HETATM    3  N   UNL     1     -43.391 -50.884  13.270  1.00  0.00    -0.359 N 
HETATM    4  H   UNL     1     -43.594 -50.002  13.721  1.00  0.00     0.162 HD
ENDROOT
BRANCH   1   5
HETATM    5  C   UNL     1     -45.674 -51.532  13.901  1.00  0.00     0.088 C 
HETATM    6  C   UNL     1     -45.405 -50.980  15.302  1.00  0.00     0.034 C 
HETATM    7  C   UNL     1     -44.916 -52.081  16.233  1.00  0.00     0.126 C 
HETATM    8  N   UNL     1     -45.842 -53.202  16.259  1.00  0.00    -0.356 N 
HETATM    9  C   UNL     1     -45.778 -54.100  17.397  1.00  0.00     0.152 C 
HETATM   10  C   UNL     1     -46.287 -53.736  15.057  1.00  0.00     0.220 C 
HETATM   11  C   UNL     1     -46.617 -52.727  13.978  1.00  0.00     0.117 C 
HETATM   12  O   UNL     1     -46.556 -54.925  14.900  1.00  0.00    -0.273 OA
ENDBRANCH   1   5
BRANCH   3  13
HETATM   13  C   UNL     1     -42.137 -51.049  12.556  1.00  0.00     0.143 C 
BRANCH  13  14
HETATM   14  C   UNL     1     -40.927 -51.074  13.480  1.00  0.00     0.148 C 
BRANCH  14  15
HETATM   15  N   UNL     1     -40.354 -52.394  13.580  1.00  0.00    -0.350 N 
HETATM   16  C   UNL     1     -39.315 -52.767  14.386  1.00  0.00     0.108 A 
HETATM   17  C   UNL     1     -39.124 -54.104  14.124  1.00  0.00     0.106 A 
HETATM   18  N   UNL     1     -40.026 -54.551  13.191  1.00  0.00    -0.361 N 
HETATM   19  C   UNL     1     -40.755 -53.499  12.883  1.00  0.00     0.182 A 
ATOM     20  HN  UNL     1     -40.113 -55.496  12.817  1.00  0.00     0.166 HD
ENDBRANCH  14  15
ENDBRANCH  13  14
ENDBRANCH   3  13
TORSDOF 4
ENDMDL
MODEL 6
REMARK VINA RESULT:      -4.9      2.316      3.928
REMARK  4 active torsions:
REMARK  status: ('A' for Active; 'I' for Inactive)
REMARK    1  A    between atoms: C_5  and  C_9 
REMARK       I    between atoms: C_9  and  N_11 
REMARK    2  A    between atoms: N_11  and  C_12 
REMARK    3  A    between atoms: C_12  and  C_13 
REMARK    4  A    between atoms: C_13  and  N_14 
ROOT
HETATM    1  C   UNL     1     -44.431 -50.650  15.241  1.00  0.00     0.222 C 
HETATM    2  O   UNL     1     -43.745 -50.513  16.249  1.00  0.00    -0.273 OA
HETATM    3  N   UNL     1     -43.999 -50.231  14.001  1.00  0.00    -0.359 N 
HETATM    4  H   UNL     1     -44.561 -50.415  13.181  1.00  0.00     0.162 HD
ENDROOT
BRANCH   1   5
HETATM    5  C   UNL     1     -45.847 -51.220  15.278  1.00  0.00     0.088 C 
HETATM    6  C   UNL     1     -45.951 -52.419  16.222  1.00  0.00     0.034 C 
HETATM    7  C   UNL     1     -45.276 -53.643  15.619  1.00  0.00     0.126 C 
HETATM    8  N   UNL     1     -45.808 -53.943  14.299  1.00  0.00    -0.356 N 
HETATM    9  C   UNL     1     -45.623 -55.290  13.791  1.00  0.00     0.152 C 
HETATM   10  C   UNL     1     -45.902 -52.922  13.362  1.00  0.00     0.220 C 
HETATM   11  C   UNL     1     -46.378 -51.589  13.898  1.00  0.00     0.117 C 
HETATM   12  O   UNL     1     -45.768 -53.095  12.153  1.00  0.00    -0.273 OA
ENDBRANCH   1   5
BRANCH   3  13
HETATM   13  C   UNL     1     -42.648 -49.723  13.840  1.00  0.00     0.143 C 
BRANCH  13  14
HETATM   14  C   UNL     1     -41.785 -50.604  12.946  1.00  0.00     0.148 C 
BRANCH  14  15
HETATM   15  N   UNL     1     -41.754 -51.971  13.407  1.00  0.00    -0.350 N 
HETATM   16  C   UNL     1     -41.215 -52.418  14.579  1.00  0.00     0.108 A 
HETATM   17  C   UNL     1     -41.414 -53.779  14.566  1.00  0.00     0.106 A 
HETATM   18  N   UNL     1     -42.070 -54.164  13.423  1.00  0.00    -0.361 N 
HETATM   19  C   UNL     1     -42.263 -53.053  12.744  1.00  0.00     0.182 A 
ATOM     20  HN  UNL     1     -42.348 -55.108  13.157  1.00  0.00     0.166 HD
ENDBRANCH  14  15
ENDBRANCH  13  14
ENDBRANCH   3  13
TORSDOF 4
ENDMDL
MODEL 7
REMARK VINA RESULT:      -4.9      2.718      3.921
REMARK  4 active torsions:
REMARK  status: ('A' for Active; 'I' for Inactive)
REMARK    1  A    between atoms: C_5  and  C_9 
REMARK       I    between atoms: C_9  and  N_11 
REMARK    2  A    between atoms: N_11  and  C_12 
REMARK    3  A    between atoms: C_12  and  C_13 
REMARK    4  A    between atoms: C_13  and  N_14 
ROOT
HETATM    1  C   UNL     1     -43.292 -52.921  12.579  1.00  0.00     0.222 C 
HETATM    2  O   UNL     1     -43.051 -51.718  12.597  1.00  0.00    -0.273 OA
HETATM    3  N   UNL     1     -42.290 -53.867  12.539  1.00  0.00    -0.359 N 
HETATM    4  H   UNL     1     -42.521 -54.850  12.588  1.00  0.00     0.162 HD
ENDROOT
BRANCH   1   5
HETATM    5  C   UNL     1     -44.714 -53.477  12.518  1.00  0.00     0.088 C 
HETATM    6  C   UNL     1     -45.761 -52.369  12.640  1.00  0.00     0.034 C 
HETATM    7  C   UNL     1     -45.830 -51.843  14.067  1.00  0.00     0.126 C 
HETATM    8  N   UNL     1     -46.065 -52.919  15.016  1.00  0.00    -0.356 N 
HETATM    9  C   UNL     1     -46.602 -52.562  16.316  1.00  0.00     0.152 C 
HETATM   10  C   UNL     1     -45.276 -54.059  14.951  1.00  0.00     0.220 C 
HETATM   11  C   UNL     1     -44.974 -54.563  13.556  1.00  0.00     0.117 C 
HETATM   12  O   UNL     1     -44.962 -54.727  15.934  1.00  0.00    -0.273 OA
ENDBRANCH   1   5
BRANCH   3  13
HETATM   13  C   UNL     1     -40.902 -53.453  12.646  1.00  0.00     0.143 C 
BRANCH  13  14
HETATM   14  C   UNL     1     -40.178 -54.102  13.817  1.00  0.00     0.148 C 
BRANCH  14  15
HETATM   15  N   UNL     1     -40.908 -53.950  15.052  1.00  0.00    -0.350 N 
HETATM   16  C   UNL     1     -41.154 -52.778  15.708  1.00  0.00     0.108 A 
HETATM   17  C   UNL     1     -41.866 -53.139  16.828  1.00  0.00     0.106 A 
HETATM   18  N   UNL     1     -42.067 -54.496  16.860  1.00  0.00    -0.361 N 
HETATM   19  C   UNL     1     -41.480 -54.959  15.776  1.00  0.00     0.182 A 
ATOM     20  HN  UNL     1     -42.565 -55.032  17.570  1.00  0.00     0.166 HD
ENDBRANCH  14  15
ENDBRANCH  13  14
ENDBRANCH   3  13
TORSDOF 4
ENDMDL
MODEL 8
REMARK VINA RESULT:      -4.9      1.978      2.708
REMARK  4 active torsions:
REMARK  status: ('A' for Active; 'I' for Inactive)
REMARK    1  A    between atoms: C_5  and  C_9 
REMARK       I    between atoms: C_9  and  N_11 
REMARK    2  A    between atoms: N_11  and  C_12 
REMARK    3  A    between atoms: C_12  and  C_13 
REMARK    4  A    between atoms: C_13  and  N_14 
ROOT
HETATM    1  C   UNL     1     -44.562 -51.598  13.400  1.00  0.00     0.222 C 
HETATM    2  O   UNL     1     -44.361 -52.623  12.756  1.00  0.00    -0.273 OA
HETATM    3  N   UNL     1     -43.635 -50.580  13.461  1.00  0.00    -0.359 N 
HETATM    4  H   UNL     1     -43.857 -49.722  13.948  1.00  0.00     0.162 HD
ENDROOT
BRANCH   1   5
HETATM    5  C   UNL     1     -45.814 -51.390  14.250  1.00  0.00     0.088 C 
HETATM    6  C   UNL     1     -45.468 -50.910  15.661  1.00  0.00     0.034 C 
HETATM    7  C   UNL     1     -44.871 -52.042  16.486  1.00  0.00     0.126 C 
HETATM    8  N   UNL     1     -45.748 -53.201  16.507  1.00  0.00    -0.356 N 
HETATM    9  C   UNL     1     -45.568 -54.161  17.579  1.00  0.00     0.152 C 
HETATM   10  C   UNL     1     -46.257 -53.683  15.307  1.00  0.00     0.220 C 
HETATM   11  C   UNL     1     -46.702 -52.627  14.318  1.00  0.00     0.117 C 
HETATM   12  O   UNL     1     -46.490 -54.871  15.096  1.00  0.00    -0.273 OA
ENDBRANCH   1   5
BRANCH   3  13
HETATM   13  C   UNL     1     -42.432 -50.648  12.649  1.00  0.00     0.143 C 
BRANCH  13  14
HETATM   14  C   UNL     1     -41.156 -50.670  13.479  1.00  0.00     0.148 C 
BRANCH  14  15
HETATM   15  N   UNL     1     -39.983 -50.458  12.666  1.00  0.00    -0.350 N 
HETATM   16  C   UNL     1     -38.691 -50.723  13.024  1.00  0.00     0.108 A 
HETATM   17  C   UNL     1     -37.936 -50.348  11.937  1.00  0.00     0.106 A 
HETATM   18  N   UNL     1     -38.738 -49.876  10.928  1.00  0.00    -0.361 N 
HETATM   19  C   UNL     1     -39.966 -49.955  11.395  1.00  0.00     0.182 A 
ATOM     20  HN  UNL     1     -38.445 -49.537  10.012  1.00  0.00     0.166 HD
ENDBRANCH  14  15
ENDBRANCH  13  14
ENDBRANCH   3  13
TORSDOF 4
ENDMDL
MODEL 9
REMARK VINA RESULT:      -4.8      5.338      6.697
REMARK  4 active torsions:
REMARK  status: ('A' for Active; 'I' for Inactive)
REMARK    1  A    between atoms: C_5  and  C_9 
REMARK       I    between atoms: C_9  and  N_11 
REMARK    2  A    between atoms: N_11  and  C_12 
REMARK    3  A    between atoms: C_12  and  C_13 
REMARK    4  A    between atoms: C_13  and  N_14 
ROOT
HETATM    1  C   UNL     1     -39.632 -47.950  12.230  1.00  0.00     0.222 C 
HETATM    2  O   UNL     1     -40.173 -47.407  13.187  1.00  0.00    -0.273 OA
HETATM    3  N   UNL     1     -40.185 -47.929  10.968  1.00  0.00    -0.359 N 
HETATM    4  H   UNL     1     -39.683 -48.331  10.188  1.00  0.00     0.162 HD
ENDROOT
BRANCH   1   5
HETATM    5  C   UNL     1     -38.345 -48.763  12.362  1.00  0.00     0.088 C 
HETATM    6  C   UNL     1     -38.488 -50.155  11.743  1.00  0.00     0.034 C 
HETATM    7  C   UNL     1     -39.359 -51.048  12.617  1.00  0.00     0.126 C 
HETATM    8  N   UNL     1     -38.857 -51.107  13.980  1.00  0.00    -0.356 N 
HETATM    9  C   UNL     1     -39.272 -52.230  14.800  1.00  0.00     0.152 C 
HETATM   10  C   UNL     1     -38.552 -49.923  14.638  1.00  0.00     0.220 C 
HETATM   11  C   UNL     1     -37.854 -48.873  13.801  1.00  0.00     0.117 C 
HETATM   12  O   UNL     1     -38.682 -49.766  15.850  1.00  0.00    -0.273 OA
ENDBRANCH   1   5
BRANCH   3  13
HETATM   13  C   UNL     1     -41.379 -47.140  10.716  1.00  0.00     0.143 C 
BRANCH  13  14
HETATM   14  C   UNL     1     -42.640 -47.988  10.616  1.00  0.00     0.148 C 
BRANCH  14  15
HETATM   15  N   UNL     1     -43.708 -47.286   9.947  1.00  0.00    -0.350 N 
HETATM   16  C   UNL     1     -44.993 -47.725   9.793  1.00  0.00     0.108 A 
HETATM   17  C   UNL     1     -45.627 -46.729   9.087  1.00  0.00     0.106 A 
HETATM   18  N   UNL     1     -44.763 -45.695   8.823  1.00  0.00    -0.361 N 
HETATM   19  C   UNL     1     -43.615 -46.058   9.354  1.00  0.00     0.182 A 
ATOM     20  HN  UNL     1     -44.967 -44.830   8.322  1.00  0.00     0.166 HD
ENDBRANCH  14  15
ENDBRANCH  13  14
ENDBRANCH   3  13
TORSDOF 4
ENDMDL
