MODEL 1
REMARK VINA RESULT:      -5.9      0.000      0.000
REMARK  4 active torsions:
REMARK  status: ('A' for Active; 'I' for Inactive)
REMARK    1  A    between atoms: N_6  and  C_7 
REMARK    2  A    between atoms: C_7  and  C_8 
REMARK       I    between atoms: C_8  and  N_10 
REMARK    3  A    between atoms: N_10  and  C_11 
REMARK    4  A    between atoms: C_11  and  C_12 
REMARK       I    between atoms: C_12  and  N_14 
ROOT
HETATM    1  C   UNL     1     -41.212 -49.301  11.197  1.00  0.00     0.237 C 
HETATM    2  O   UNL     1     -40.056 -49.655  10.947  1.00  0.00    -0.272 OA
HETATM    3  N   UNL     1     -42.115 -50.166  11.771  1.00  0.00    -0.351 N 
HETATM    4  H   UNL     1     -43.055 -49.849  12.016  1.00  0.00     0.163 HD
ENDROOT
BRANCH   1   5
HETATM    5  C   UNL     1     -41.629 -47.868  10.966  1.00  0.00     0.250 C 
BRANCH   5   6
HETATM    6  N   UNL     1     -42.760 -47.701  10.077  1.00  0.00    -0.293 N 
HETATM    7  N   UNL     1     -42.612 -47.940   8.754  1.00  0.00    -0.308 N 
HETATM    8  C   UNL     1     -43.849 -47.754   8.268  1.00  0.00     0.132 A 
ATOM      9  HN  UNL     1     -41.764 -48.200   8.249  1.00  0.00     0.186 HD
HETATM   10  C   UNL     1     -44.772 -47.421   9.270  1.00  0.00     0.068 A 
HETATM   11 CL   UNL     1     -46.425 -47.132   9.065  1.00  0.00    -0.081 Cl
HETATM   12  C   UNL     1     -44.044 -47.399  10.434  1.00  0.00     0.136 A 
ENDBRANCH   5   6
ENDBRANCH   1   5
BRANCH   3  13
HETATM   13  C   UNL     1     -41.695 -51.503  12.124  1.00  0.00     0.225 C 
BRANCH  13  14
HETATM   14  C   UNL     1     -42.007 -51.949  13.559  1.00  0.00     0.237 C 
HETATM   15  O   UNL     1     -41.376 -51.523  14.528  1.00  0.00    -0.272 OA
HETATM   16  N   UNL     1     -43.086 -52.809  13.690  1.00  0.00    -0.351 N 
HETATM   17  C   UNL     1     -43.839 -53.418  12.599  1.00  0.00     0.126 C 
HETATM   18  C   UNL     1     -43.612 -53.222  14.973  1.00  0.00     0.126 C 
HETATM   19  C   UNL     1     -44.785 -54.415  13.252  1.00  0.00     0.021 C 
HETATM   20  C   UNL     1     -44.278 -54.557  14.686  1.00  0.00     0.021 C 
ENDBRANCH  13  14
ENDBRANCH   3  13
TORSDOF 4
ENDMDL
MODEL 2
REMARK VINA RESULT:      -5.9      1.840      2.528
REMARK  4 active torsions:
REMARK  status: ('A' for Active; 'I' for Inactive)
REMARK    1  A    between atoms: N_6  and  C_7 
REMARK    2  A    between atoms: C_7  and  C_8 
REMARK       I    between atoms: C_8  and  N_10 
REMARK    3  A    between atoms: N_10  and  C_11 
REMARK    4  A    between atoms: C_11  and  C_12 
REMARK       I    between atoms: C_12  and  N_14 
ROOT
HETATM    1  C   UNL     1     -41.861 -48.753  11.833  1.00  0.00     0.237 C 
HETATM    2  O   UNL     1     -41.775 -48.207  12.937  1.00  0.00    -0.272 OA
HETATM    3  N   UNL     1     -42.242 -50.070  11.716  1.00  0.00    -0.351 N 
HETATM    4  H   UNL     1     -42.355 -50.499  10.796  1.00  0.00     0.163 HD
ENDROOT
BRANCH   1   5
HETATM    5  C   UNL     1     -41.646 -47.947  10.574  1.00  0.00     0.250 C 
BRANCH   5   6
HETATM    6  N   UNL     1     -42.838 -47.731   9.781  1.00  0.00    -0.293 N 
HETATM    7  N   UNL     1     -42.814 -47.986   8.453  1.00  0.00    -0.308 N 
HETATM    8  C   UNL     1     -44.077 -47.741   8.070  1.00  0.00     0.132 A 
ATOM      9  HN  UNL     1     -42.025 -48.290   7.881  1.00  0.00     0.186 HD
HETATM   10  C   UNL     1     -44.895 -47.357   9.142  1.00  0.00     0.068 A 
HETATM   11 CL   UNL     1     -46.543 -46.988   9.074  1.00  0.00    -0.081 Cl
HETATM   12  C   UNL     1     -44.071 -47.363  10.241  1.00  0.00     0.136 A 
ENDBRANCH   5   6
ENDBRANCH   1   5
BRANCH   3  13
HETATM   13  C   UNL     1     -42.583 -50.821  12.903  1.00  0.00     0.225 C 
BRANCH  13  14
HETATM   14  C   UNL     1     -42.418 -52.344  12.805  1.00  0.00     0.237 C 
HETATM   15  O   UNL     1     -43.309 -53.071  12.363  1.00  0.00    -0.272 OA
HETATM   16  N   UNL     1     -41.177 -52.830  13.186  1.00  0.00    -0.351 N 
HETATM   17  C   UNL     1     -40.097 -52.056  13.788  1.00  0.00     0.126 C 
HETATM   18  C   UNL     1     -40.793 -54.216  13.030  1.00  0.00     0.126 C 
HETATM   19  C   UNL     1     -39.035 -53.068  14.193  1.00  0.00     0.021 C 
HETATM   20  C   UNL     1     -39.728 -54.425  14.093  1.00  0.00     0.021 C 
ENDBRANCH  13  14
ENDBRANCH   3  13
TORSDOF 4
ENDMDL
MODEL 3
REMARK VINA RESULT:      -5.8      1.903      2.328
REMARK  4 active torsions:
REMARK  status: ('A' for Active; 'I' for Inactive)
REMARK    1  A    between atoms: N_6  and  C_7 
REMARK    2  A    between atoms: C_7  and  C_8 
REMARK       I    between atoms: C_8  and  N_10 
REMARK    3  A    between atoms: N_10  and  C_11 
REMARK    4  A    between atoms: C_11  and  C_12 
REMARK       I    between atoms: C_12  and  N_14 
ROOT
HETATM    1  C   UNL     1     -41.621 -49.102  11.581  1.00  0.00     0.237 C 
HETATM    2  O   UNL     1     -42.145 -48.981  12.693  1.00  0.00    -0.272 OA
HETATM    3  N   UNL     1     -41.149 -50.318  11.143  1.00  0.00    -0.351 N 
HETATM    4  H   UNL     1     -40.760 -50.417  10.205  1.00  0.00     0.163 HD
ENDROOT
BRANCH   1   5
HETATM    5  C   UNL     1     -41.579 -47.926  10.634  1.00  0.00     0.250 C 
BRANCH   5   6
HETATM    6  N   UNL     1     -42.782 -47.738   9.849  1.00  0.00    -0.293 N 
HETATM    7  N   UNL     1     -42.753 -47.972   8.517  1.00  0.00    -0.308 N 
HETATM    8  C   UNL     1     -44.025 -47.765   8.141  1.00  0.00     0.132 A 
ATOM      9  HN  UNL     1     -41.957 -48.241   7.938  1.00  0.00     0.186 HD
HETATM   10  C   UNL     1     -44.852 -47.423   9.222  1.00  0.00     0.068 A 
HETATM   11 CL   UNL     1     -46.511 -47.109   9.164  1.00  0.00    -0.081 Cl
HETATM   12  C   UNL     1     -44.024 -47.419  10.318  1.00  0.00     0.136 A 
ENDBRANCH   5   6
ENDBRANCH   1   5
BRANCH   3  13
HETATM   13  C   UNL     1     -41.302 -51.485  11.983  1.00  0.00     0.225 C 
BRANCH  13  14
HETATM   14  C   UNL     1     -40.041 -51.947  12.726  1.00  0.00     0.237 C 
HETATM   15  O   UNL     1     -38.927 -51.481  12.478  1.00  0.00    -0.272 OA
HETATM   16  N   UNL     1     -40.256 -52.873  13.735  1.00  0.00    -0.351 N 
HETATM   17  C   UNL     1     -41.520 -53.531  14.045  1.00  0.00     0.126 C 
HETATM   18  C   UNL     1     -39.210 -53.317  14.631  1.00  0.00     0.126 C 
HETATM   19  C   UNL     1     -41.195 -54.584  15.094  1.00  0.00     0.021 C 
HETATM   20  C   UNL     1     -39.672 -54.692  15.084  1.00  0.00     0.021 C 
ENDBRANCH  13  14
ENDBRANCH   3  13
TORSDOF 4
ENDMDL
MODEL 4
REMARK VINA RESULT:      -5.6      3.678      4.860
REMARK  4 active torsions:
REMARK  status: ('A' for Active; 'I' for Inactive)
REMARK    1  A    between atoms: N_6  and  C_7 
REMARK    2  A    between atoms: C_7  and  C_8 
REMARK       I    between atoms: C_8  and  N_10 
REMARK    3  A    between atoms: N_10  and  C_11 
REMARK    4  A    between atoms: C_11  and  C_12 
REMARK       I    between atoms: C_12  and  N_14 
ROOT
HETATM    1  C   UNL     1     -42.317 -52.776  12.529  1.00  0.00     0.237 C 
HETATM    2  O   UNL     1     -42.940 -51.720  12.677  1.00  0.00    -0.272 OA
HETATM    3  N   UNL     1     -42.949 -53.995  12.614  1.00  0.00    -0.351 N 
HETATM    4  H   UNL     1     -42.434 -54.860  12.444  1.00  0.00     0.163 HD
ENDROOT
BRANCH   1   5
HETATM    5  C   UNL     1     -40.856 -52.743  12.147  1.00  0.00     0.250 C 
BRANCH   5   6
HETATM    6  N   UNL     1     -40.266 -51.420  12.122  1.00  0.00    -0.293 N 
HETATM    7  N   UNL     1     -40.603 -50.557  11.136  1.00  0.00    -0.308 N 
HETATM    8  C   UNL     1     -39.932 -49.441  11.464  1.00  0.00     0.132 A 
ATOM      9  HN  UNL     1     -41.217 -50.716  10.338  1.00  0.00     0.186 HD
HETATM   10  C   UNL     1     -39.198 -49.588  12.650  1.00  0.00     0.068 A 
HETATM   11 CL   UNL     1     -38.248 -48.410  13.402  1.00  0.00    -0.081 Cl
HETATM   12  C   UNL     1     -39.435 -50.877  13.060  1.00  0.00     0.136 A 
ENDBRANCH   5   6
ENDBRANCH   1   5
BRANCH   3  13
HETATM   13  C   UNL     1     -44.375 -54.044  12.846  1.00  0.00     0.225 C 
BRANCH  13  14
HETATM   14  C   UNL     1     -44.813 -54.218  14.307  1.00  0.00     0.237 C 
HETATM   15  O   UNL     1     -44.480 -55.197  14.977  1.00  0.00    -0.272 OA
HETATM   16  N   UNL     1     -45.548 -53.167  14.832  1.00  0.00    -0.351 N 
HETATM   17  C   UNL     1     -46.047 -52.012  14.096  1.00  0.00     0.126 C 
HETATM   18  C   UNL     1     -45.927 -53.092  16.227  1.00  0.00     0.126 C 
HETATM   19  C   UNL     1     -46.945 -51.255  15.064  1.00  0.00     0.021 C 
HETATM   20  C   UNL     1     -47.173 -52.223  16.225  1.00  0.00     0.021 C 
ENDBRANCH  13  14
ENDBRANCH   3  13
TORSDOF 4
ENDMDL
MODEL 5
REMARK VINA RESULT:      -5.6      2.020      2.284
REMARK  4 active torsions:
REMARK  status: ('A' for Active; 'I' for Inactive)
REMARK    1  A    between atoms: N_6  and  C_7 
REMARK    2  A    between atoms: C_7  and  C_8 
REMARK       I    between atoms: C_8  and  N_10 
REMARK    3  A    between atoms: N_10  and  C_11 
REMARK    4  A    between atoms: C_11  and  C_12 
REMARK       I    between atoms: C_12  and  N_14 
ROOT
HETATM    1  C   UNL     1     -41.139 -50.304  11.764  1.00  0.00     0.237 C 
HETATM    2  O   UNL     1     -42.210 -50.213  12.372  1.00  0.00    -0.272 OA
HETATM    3  N   UNL     1     -40.613 -51.530  11.427  1.00  0.00    -0.351 N 
HETATM    4  H   UNL     1     -39.750 -51.593  10.884  1.00  0.00     0.163 HD
ENDROOT
BRANCH   1   5
HETATM    5  C   UNL     1     -40.433 -49.057  11.288  1.00  0.00     0.250 C 
BRANCH   5   6
HETATM    6  N   UNL     1     -41.310 -48.009  10.809  1.00  0.00    -0.293 N 
HETATM    7  N   UNL     1     -42.346 -48.324   9.998  1.00  0.00    -0.308 N 
HETATM    8  C   UNL     1     -42.961 -47.145   9.814  1.00  0.00     0.132 A 
ATOM      9  HN  UNL     1     -42.598 -49.236   9.617  1.00  0.00     0.186 HD
HETATM   10  C   UNL     1     -42.338 -46.102  10.515  1.00  0.00     0.068 A 
HETATM   11 CL   UNL     1     -42.822 -44.484  10.558  1.00  0.00    -0.081 Cl
HETATM   12  C   UNL     1     -41.274 -46.689  11.156  1.00  0.00     0.136 A 
ENDBRANCH   5   6
ENDBRANCH   1   5
BRANCH   3  13
HETATM   13  C   UNL     1     -41.342 -52.733  11.756  1.00  0.00     0.225 C 
BRANCH  13  14
HETATM   14  C   UNL     1     -40.874 -53.480  13.013  1.00  0.00     0.237 C 
HETATM   15  O   UNL     1     -39.682 -53.585  13.305  1.00  0.00    -0.272 OA
HETATM   16  N   UNL     1     -41.889 -53.965  13.823  1.00  0.00    -0.351 N 
HETATM   17  C   UNL     1     -43.315 -53.951  13.520  1.00  0.00     0.126 C 
HETATM   18  C   UNL     1     -41.643 -54.570  15.115  1.00  0.00     0.126 C 
HETATM   19  C   UNL     1     -43.984 -54.760  14.621  1.00  0.00     0.021 C 
HETATM   20  C   UNL     1     -42.839 -55.482  15.328  1.00  0.00     0.021 C 
ENDBRANCH  13  14
ENDBRANCH   3  13
TORSDOF 4
ENDMDL
MODEL 6
REMARK VINA RESULT:      -5.6      2.555      3.864
REMARK  4 active torsions:
REMARK  status: ('A' for Active; 'I' for Inactive)
REMARK    1  A    between atoms: N_6  and  C_7 
REMARK    2  A    between atoms: C_7  and  C_8 
REMARK       I    between atoms: C_8  and  N_10 
REMARK    3  A    between atoms: N_10  and  C_11 
REMARK    4  A    between atoms: C_11  and  C_12 
REMARK       I    between atoms: C_12  and  N_14 
ROOT
HETATM    1  C   UNL     1     -41.906 -52.762  12.588  1.00  0.00     0.237 C 
HETATM    2  O   UNL     1     -41.763 -53.054  13.779  1.00  0.00    -0.272 OA
HETATM    3  N   UNL     1     -43.056 -53.089  11.906  1.00  0.00    -0.351 N 
HETATM    4  H   UNL     1     -43.183 -52.803  10.935  1.00  0.00     0.163 HD
ENDROOT
BRANCH   1   5
HETATM    5  C   UNL     1     -40.852 -51.945  11.879  1.00  0.00     0.250 C 
BRANCH   5   6
HETATM    6  N   UNL     1     -41.197 -50.553  11.680  1.00  0.00    -0.293 N 
HETATM    7  N   UNL     1     -40.655 -49.872  10.644  1.00  0.00    -0.308 N 
HETATM    8  C   UNL     1     -41.237 -48.666  10.732  1.00  0.00     0.132 A 
ATOM      9  HN  UNL     1     -39.969 -50.197   9.962  1.00  0.00     0.186 HD
HETATM   10  C   UNL     1     -42.150 -48.589  11.794  1.00  0.00     0.068 A 
HETATM   11 CL   UNL     1     -43.096 -47.255  12.218  1.00  0.00    -0.081 Cl
HETATM   12  C   UNL     1     -42.110 -49.827  12.389  1.00  0.00     0.136 A 
ENDBRANCH   5   6
ENDBRANCH   1   5
BRANCH   3  13
HETATM   13  C   UNL     1     -44.133 -53.753  12.604  1.00  0.00     0.225 C 
BRANCH  13  14
HETATM   14  C   UNL     1     -45.408 -52.925  12.817  1.00  0.00     0.237 C 
HETATM   15  O   UNL     1     -46.165 -52.640  11.888  1.00  0.00    -0.272 OA
HETATM   16  N   UNL     1     -45.675 -52.580  14.133  1.00  0.00    -0.351 N 
HETATM   17  C   UNL     1     -44.802 -52.810  15.278  1.00  0.00     0.126 C 
HETATM   18  C   UNL     1     -46.898 -51.924  14.542  1.00  0.00     0.126 C 
HETATM   19  C   UNL     1     -45.452 -52.089  16.450  1.00  0.00     0.021 C 
HETATM   20  C   UNL     1     -46.517 -51.194  15.818  1.00  0.00     0.021 C 
ENDBRANCH  13  14
ENDBRANCH   3  13
TORSDOF 4
ENDMDL
MODEL 7
REMARK VINA RESULT:      -5.4      3.038      6.894
REMARK  4 active torsions:
REMARK  status: ('A' for Active; 'I' for Inactive)
REMARK    1  A    between atoms: N_6  and  C_7 
REMARK    2  A    between atoms: C_7  and  C_8 
REMARK       I    between atoms: C_8  and  N_10 
REMARK    3  A    between atoms: N_10  and  C_11 
REMARK    4  A    between atoms: C_11  and  C_12 
REMARK       I    between atoms: C_12  and  N_14 
ROOT
HETATM    1  C   UNL     1     -41.240 -51.042  12.181  1.00  0.00     0.237 C 
HETATM    2  O   UNL     1     -41.348 -50.488  13.279  1.00  0.00    -0.272 OA
HETATM    3  N   UNL     1     -40.744 -50.369  11.088  1.00  0.00    -0.351 N 
HETATM    4  H   UNL     1     -40.616 -50.850  10.196  1.00  0.00     0.163 HD
ENDROOT
BRANCH   1   5
HETATM    5  C   UNL     1     -41.560 -52.511  12.042  1.00  0.00     0.250 C 
BRANCH   5   6
HETATM    6  N   UNL     1     -42.877 -52.892  12.513  1.00  0.00    -0.293 N 
HETATM    7  N   UNL     1     -43.901 -52.014  12.413  1.00  0.00    -0.308 N 
HETATM    8  C   UNL     1     -44.950 -52.714  12.873  1.00  0.00     0.132 A 
ATOM      9  HN  UNL     1     -43.881 -51.053  12.071  1.00  0.00     0.186 HD
HETATM   10  C   UNL     1     -44.601 -54.022  13.239  1.00  0.00     0.068 A 
HETATM   11 CL   UNL     1     -45.637 -55.215  13.838  1.00  0.00    -0.081 Cl
HETATM   12  C   UNL     1     -43.253 -54.115  12.991  1.00  0.00     0.136 A 
ENDBRANCH   5   6
ENDBRANCH   1   5
BRANCH   3  13
HETATM   13  C   UNL     1     -40.305 -49.000  11.233  1.00  0.00     0.225 C 
BRANCH  13  14
HETATM   14  C   UNL     1     -41.279 -47.925  10.730  1.00  0.00     0.237 C 
HETATM   15  O   UNL     1     -42.232 -48.198   9.998  1.00  0.00    -0.272 OA
HETATM   16  N   UNL     1     -41.048 -46.646  11.211  1.00  0.00    -0.351 N 
HETATM   17  C   UNL     1     -39.908 -46.222  12.016  1.00  0.00     0.126 C 
HETATM   18  C   UNL     1     -41.941 -45.536  10.958  1.00  0.00     0.126 C 
HETATM   19  C   UNL     1     -40.013 -44.707  12.122  1.00  0.00     0.021 C 
HETATM   20  C   UNL     1     -41.050 -44.311  11.072  1.00  0.00     0.021 C 
ENDBRANCH  13  14
ENDBRANCH   3  13
TORSDOF 4
ENDMDL
MODEL 8
REMARK VINA RESULT:      -5.4      1.843      2.092
REMARK  4 active torsions:
REMARK  status: ('A' for Active; 'I' for Inactive)
REMARK    1  A    between atoms: N_6  and  C_7 
REMARK    2  A    between atoms: C_7  and  C_8 
REMARK       I    between atoms: C_8  and  N_10 
REMARK    3  A    between atoms: N_10  and  C_11 
REMARK    4  A    between atoms: C_11  and  C_12 
REMARK       I    between atoms: C_12  and  N_14 
ROOT
HETATM    1  C   UNL     1     -40.838 -49.248  11.918  1.00  0.00     0.237 C 
HETATM    2  O   UNL     1     -40.118 -50.126  11.431  1.00  0.00    -0.272 OA
HETATM    3  N   UNL     1     -41.710 -49.530  12.944  1.00  0.00    -0.351 N 
HETATM    4  H   UNL     1     -42.267 -48.788  13.371  1.00  0.00     0.163 HD
ENDROOT
BRANCH   1   5
HETATM    5  C   UNL     1     -40.698 -47.816  11.459  1.00  0.00     0.250 C 
BRANCH   5   6
HETATM    6  N   UNL     1     -41.697 -47.386  10.502  1.00  0.00    -0.293 N 
HETATM    7  N   UNL     1     -42.080 -48.225   9.513  1.00  0.00    -0.308 N 
HETATM    8  C   UNL     1     -43.040 -47.533   8.879  1.00  0.00     0.132 A 
ATOM      9  HN  UNL     1     -41.724 -49.157   9.300  1.00  0.00     0.186 HD
HETATM   10  C   UNL     1     -43.276 -46.283   9.469  1.00  0.00     0.068 A 
HETATM   11 CL   UNL     1     -44.416 -45.135   8.981  1.00  0.00    -0.081 Cl
HETATM   12  C   UNL     1     -42.398 -46.214  10.523  1.00  0.00     0.136 A 
ENDBRANCH   5   6
ENDBRANCH   1   5
BRANCH   3  13
HETATM   13  C   UNL     1     -41.761 -50.868  13.489  1.00  0.00     0.225 C 
BRANCH  13  14
HETATM   14  C   UNL     1     -42.690 -51.853  12.765  1.00  0.00     0.237 C 
HETATM   15  O   UNL     1     -42.283 -52.603  11.877  1.00  0.00    -0.272 OA
HETATM   16  N   UNL     1     -43.997 -51.881  13.227  1.00  0.00    -0.351 N 
HETATM   17  C   UNL     1     -44.580 -50.982  14.216  1.00  0.00     0.126 C 
HETATM   18  C   UNL     1     -44.975 -52.841  12.763  1.00  0.00     0.126 C 
HETATM   19  C   UNL     1     -46.069 -51.295  14.237  1.00  0.00     0.021 C 
HETATM   20  C   UNL     1     -46.308 -52.150  12.994  1.00  0.00     0.021 C 
ENDBRANCH  13  14
ENDBRANCH   3  13
TORSDOF 4
ENDMDL
MODEL 9
REMARK VINA RESULT:      -5.3      3.557      6.731
REMARK  4 active torsions:
REMARK  status: ('A' for Active; 'I' for Inactive)
REMARK    1  A    between atoms: N_6  and  C_7 
REMARK    2  A    between atoms: C_7  and  C_8 
REMARK       I    between atoms: C_8  and  N_10 
REMARK    3  A    between atoms: N_10  and  C_11 
REMARK    4  A    between atoms: C_11  and  C_12 
REMARK       I    between atoms: C_12  and  N_14 
ROOT
HETATM    1  C   UNL     1     -39.598 -48.581  12.121  1.00  0.00     0.237 C 
HETATM    2  O   UNL     1     -39.080 -47.894  13.007  1.00  0.00    -0.272 OA
HETATM    3  N   UNL     1     -40.658 -48.109  11.381  1.00  0.00    -0.351 N 
HETATM    4  H   UNL     1     -41.050 -48.666  10.620  1.00  0.00     0.163 HD
ENDROOT
BRANCH   1   5
HETATM    5  C   UNL     1     -39.006 -49.923  11.763  1.00  0.00     0.250 C 
BRANCH   5   6
HETATM    6  N   UNL     1     -39.802 -51.064  12.169  1.00  0.00    -0.293 N 
HETATM    7  N   UNL     1     -40.727 -51.568  11.321  1.00  0.00    -0.308 N 
HETATM    8  C   UNL     1     -41.209 -52.629  11.989  1.00  0.00     0.132 A 
ATOM      9  HN  UNL     1     -40.994 -51.225  10.398  1.00  0.00     0.186 HD
HETATM   10  C   UNL     1     -40.584 -52.806  13.232  1.00  0.00     0.068 A 
HETATM   11 CL   UNL     1     -40.893 -54.034  14.351  1.00  0.00    -0.081 Cl
HETATM   12  C   UNL     1     -39.672 -51.783  13.323  1.00  0.00     0.136 A 
ENDBRANCH   5   6
ENDBRANCH   1   5
BRANCH   3  13
HETATM   13  C   UNL     1     -41.153 -46.772  11.618  1.00  0.00     0.225 C 
BRANCH  13  14
HETATM   14  C   UNL     1     -41.707 -46.033  10.391  1.00  0.00     0.237 C 
HETATM   15  O   UNL     1     -41.083 -45.128   9.835  1.00  0.00    -0.272 OA
HETATM   16  N   UNL     1     -42.924 -46.502   9.920  1.00  0.00    -0.351 N 
HETATM   17  C   UNL     1     -43.763 -47.511  10.555  1.00  0.00     0.126 C 
HETATM   18  C   UNL     1     -43.530 -46.023   8.696  1.00  0.00     0.126 C 
HETATM   19  C   UNL     1     -45.062 -47.533   9.762  1.00  0.00     0.021 C 
HETATM   20  C   UNL     1     -45.015 -46.275   8.898  1.00  0.00     0.021 C 
ENDBRANCH  13  14
ENDBRANCH   3  13
TORSDOF 4
ENDMDL
