MODEL 1
REMARK VINA RESULT:      -5.7      0.000      0.000
REMARK  6 active torsions:
REMARK  status: ('A' for Active; 'I' for Inactive)
REMARK    1  A    between atoms: O_2  and  C_3 
REMARK    2  A    between atoms: C_3  and  C_4 
REMARK    3  A    between atoms: C_4  and  N_5 
REMARK    4  A    between atoms: N_5  and  C_6 
REMARK    5  A    between atoms: C_9  and  S_13 
REMARK    6  A    between atoms: S_13  and  N_16 
ROOT
HETATM    1  C   UNL     1     -41.061 -52.441  12.414  1.00  0.00     0.079 A 
HETATM    2  C   UNL     1     -40.871 -53.196  13.572  1.00  0.00     0.044 A 
HETATM    3  C   UNL     1     -41.960 -53.815  14.184  1.00  0.00     0.030 A 
HETATM    4  C   UNL     1     -43.205 -53.715  13.580  1.00  0.00     0.095 A 
HETATM    5  C   UNL     1     -43.325 -52.941  12.441  1.00  0.00     0.114 A 
HETATM    6  N   UNL     1     -42.279 -52.300  11.857  1.00  0.00    -0.355 N 
ATOM      7  HN  UNL     1     -42.412 -51.729  11.023  1.00  0.00     0.166 HD
ENDROOT
BRANCH   4   8
HETATM    8  S   UNL     1     -44.625 -54.516  14.241  1.00  0.00     0.262 S 
HETATM    9  O   UNL     1     -45.367 -55.069  13.127  1.00  0.00    -0.200 OA
HETATM   10  O   UNL     1     -44.170 -55.355  15.330  1.00  0.00    -0.200 OA
BRANCH   8  11
HETATM   11  N   UNL     1     -45.534 -53.290  14.925  1.00  0.00    -0.307 N 
HETATM   12  C   UNL     1     -46.698 -52.710  14.241  1.00  0.00     0.135 C 
HETATM   13  C   UNL     1     -46.944 -51.376  14.944  1.00  0.00     0.022 C 
HETATM   14  C   UNL     1     -46.145 -51.461  16.234  1.00  0.00     0.022 C 
HETATM   15  C   UNL     1     -44.946 -52.317  15.851  1.00  0.00     0.135 C 
ENDBRANCH   8  11
ENDBRANCH   4   8
BRANCH   1  16
HETATM   16  N   UNL     1     -39.921 -51.899  11.804  1.00  0.00    -0.277 NA
HETATM   17  H   UNL     1     -40.198 -51.562  10.881  1.00  0.00     0.129 HD
BRANCH  16  18
HETATM   18  C   UNL     1     -39.275 -50.812  12.544  1.00  0.00     0.120 C 
BRANCH  18  19
HETATM   19  C   UNL     1     -40.055 -49.510  12.308  1.00  0.00     0.181 C 
BRANCH  19  20
HETATM   20  O   UNL     1     -40.585 -49.520  10.974  1.00  0.00    -0.395 OA
HETATM   21  C   UNL     1     -41.558 -48.501  10.792  1.00  0.00     0.201 C 
ENDBRANCH  19  20
ENDBRANCH  18  19
ENDBRANCH  16  18
ENDBRANCH   1  16
TORSDOF 6
ENDMDL
MODEL 2
REMARK VINA RESULT:      -5.6      1.193      1.641
REMARK  6 active torsions:
REMARK  status: ('A' for Active; 'I' for Inactive)
REMARK    1  A    between atoms: O_2  and  C_3 
REMARK    2  A    between atoms: C_3  and  C_4 
REMARK    3  A    between atoms: C_4  and  N_5 
REMARK    4  A    between atoms: N_5  and  C_6 
REMARK    5  A    between atoms: C_9  and  S_13 
REMARK    6  A    between atoms: S_13  and  N_16 
ROOT
HETATM    1  C   UNL     1     -41.807 -52.269  12.179  1.00  0.00     0.079 A 
HETATM    2  C   UNL     1     -41.516 -52.371  13.541  1.00  0.00     0.044 A 
HETATM    3  C   UNL     1     -42.401 -53.030  14.392  1.00  0.00     0.030 A 
HETATM    4  C   UNL     1     -43.527 -53.629  13.844  1.00  0.00     0.095 A 
HETATM    5  C   UNL     1     -43.760 -53.479  12.490  1.00  0.00     0.114 A 
HETATM    6  N   UNL     1     -42.926 -52.805  11.656  1.00  0.00    -0.355 N 
ATOM      7  HN  UNL     1     -43.141 -52.707  10.664  1.00  0.00     0.166 HD
ENDROOT
BRANCH   4   8
HETATM    8  S   UNL     1     -44.667 -54.539  14.828  1.00  0.00     0.262 S 
HETATM    9  O   UNL     1     -45.380 -55.436  13.943  1.00  0.00    -0.200 OA
HETATM   10  O   UNL     1     -43.934 -55.038  15.973  1.00  0.00    -0.200 OA
BRANCH   8  11
HETATM   11  N   UNL     1     -45.745 -53.398  15.407  1.00  0.00    -0.307 N 
HETATM   12  C   UNL     1     -46.699 -52.712  14.524  1.00  0.00     0.135 C 
HETATM   13  C   UNL     1     -47.144 -51.478  15.308  1.00  0.00     0.022 C 
HETATM   14  C   UNL     1     -46.710 -51.749  16.740  1.00  0.00     0.022 C 
HETATM   15  C   UNL     1     -45.438 -52.567  16.574  1.00  0.00     0.135 C 
ENDBRANCH   8  11
ENDBRANCH   4   8
BRANCH   1  16
HETATM   16  N   UNL     1     -40.849 -51.656  11.360  1.00  0.00    -0.277 NA
HETATM   17  H   UNL     1     -41.237 -51.606  10.418  1.00  0.00     0.129 HD
BRANCH  16  18
HETATM   18  C   UNL     1     -40.430 -50.318  11.784  1.00  0.00     0.120 C 
BRANCH  18  19
HETATM   19  C   UNL     1     -38.903 -50.208  11.664  1.00  0.00     0.181 C 
BRANCH  19  20
HETATM   20  O   UNL     1     -38.302 -51.345  12.301  1.00  0.00    -0.395 OA
HETATM   21  C   UNL     1     -37.986 -51.075  13.660  1.00  0.00     0.201 C 
ENDBRANCH  19  20
ENDBRANCH  18  19
ENDBRANCH  16  18
ENDBRANCH   1  16
TORSDOF 6
ENDMDL
MODEL 3
REMARK VINA RESULT:      -5.5      1.604      1.941
REMARK  6 active torsions:
REMARK  status: ('A' for Active; 'I' for Inactive)
REMARK    1  A    between atoms: O_2  and  C_3 
REMARK    2  A    between atoms: C_3  and  C_4 
REMARK    3  A    between atoms: C_4  and  N_5 
REMARK    4  A    between atoms: N_5  and  C_6 
REMARK    5  A    between atoms: C_9  and  S_13 
REMARK    6  A    between atoms: S_13  and  N_16 
ROOT
HETATM    1  C   UNL     1     -40.690 -52.596  12.735  1.00  0.00     0.079 A 
HETATM    2  C   UNL     1     -41.875 -52.189  12.121  1.00  0.00     0.044 A 
HETATM    3  C   UNL     1     -43.082 -52.789  12.474  1.00  0.00     0.030 A 
HETATM    4  C   UNL     1     -43.079 -53.740  13.485  1.00  0.00     0.095 A 
HETATM    5  C   UNL     1     -41.869 -54.105  14.042  1.00  0.00     0.114 A 
HETATM    6  N   UNL     1     -40.680 -53.557  13.679  1.00  0.00    -0.355 N 
ATOM      7  HN  UNL     1     -39.807 -53.863  14.108  1.00  0.00     0.166 HD
ENDROOT
BRANCH   4   8
HETATM    8  S   UNL     1     -44.561 -54.504  14.045  1.00  0.00     0.262 S 
HETATM    9  O   UNL     1     -45.274 -54.973  12.876  1.00  0.00    -0.200 OA
HETATM   10  O   UNL     1     -44.193 -55.410  15.114  1.00  0.00    -0.200 OA
BRANCH   8  11
HETATM   11  N   UNL     1     -45.447 -53.270  14.746  1.00  0.00    -0.307 N 
HETATM   12  C   UNL     1     -46.588 -52.647  14.061  1.00  0.00     0.135 C 
HETATM   13  C   UNL     1     -46.809 -51.322  14.788  1.00  0.00     0.022 C 
HETATM   14  C   UNL     1     -46.026 -51.453  16.085  1.00  0.00     0.022 C 
HETATM   15  C   UNL     1     -44.845 -52.331  15.697  1.00  0.00     0.135 C 
ENDBRANCH   8  11
ENDBRANCH   4   8
BRANCH   1  16
HETATM   16  N   UNL     1     -39.516 -51.911  12.390  1.00  0.00    -0.277 NA
HETATM   17  H   UNL     1     -39.791 -51.065  11.890  1.00  0.00     0.129 HD
BRANCH  16  18
HETATM   18  C   UNL     1     -38.651 -51.551  13.516  1.00  0.00     0.120 C 
BRANCH  18  19
HETATM   19  C   UNL     1     -37.303 -51.053  12.974  1.00  0.00     0.181 C 
BRANCH  19  20
HETATM   20  O   UNL     1     -37.290 -51.203  11.547  1.00  0.00    -0.395 OA
HETATM   21  C   UNL     1     -37.183 -49.947  10.891  1.00  0.00     0.201 C 
ENDBRANCH  19  20
ENDBRANCH  18  19
ENDBRANCH  16  18
ENDBRANCH   1  16
TORSDOF 6
ENDMDL
MODEL 4
REMARK VINA RESULT:      -5.2      3.058      4.633
REMARK  6 active torsions:
REMARK  status: ('A' for Active; 'I' for Inactive)
REMARK    1  A    between atoms: O_2  and  C_3 
REMARK    2  A    between atoms: C_3  and  C_4 
REMARK    3  A    between atoms: C_4  and  N_5 
REMARK    4  A    between atoms: N_5  and  C_6 
REMARK    5  A    between atoms: C_9  and  S_13 
REMARK    6  A    between atoms: S_13  and  N_16 
ROOT
HETATM    1  C   UNL     1     -41.584 -48.536  10.706  1.00  0.00     0.079 A 
HETATM    2  C   UNL     1     -42.493 -48.694  11.754  1.00  0.00     0.044 A 
HETATM    3  C   UNL     1     -42.351 -49.759  12.641  1.00  0.00     0.030 A 
HETATM    4  C   UNL     1     -41.260 -50.604  12.494  1.00  0.00     0.095 A 
HETATM    5  C   UNL     1     -40.406 -50.398  11.427  1.00  0.00     0.114 A 
HETATM    6  N   UNL     1     -40.556 -49.387  10.532  1.00  0.00    -0.355 N 
ATOM      7  HN  UNL     1     -39.908 -49.277   9.752  1.00  0.00     0.166 HD
ENDROOT
BRANCH   4   8
HETATM    8  S   UNL     1     -40.961 -51.936  13.604  1.00  0.00     0.262 S 
HETATM    9  O   UNL     1     -40.036 -52.840  12.953  1.00  0.00    -0.200 OA
HETATM   10  O   UNL     1     -40.658 -51.352  14.895  1.00  0.00    -0.200 OA
BRANCH   8  11
HETATM   11  N   UNL     1     -42.436 -52.710  13.759  1.00  0.00    -0.307 N 
HETATM   12  C   UNL     1     -43.109 -52.846  15.059  1.00  0.00     0.135 C 
HETATM   13  C   UNL     1     -44.131 -53.963  14.858  1.00  0.00     0.022 C 
HETATM   14  C   UNL     1     -44.240 -54.126  13.351  1.00  0.00     0.022 C 
HETATM   15  C   UNL     1     -42.841 -53.791  12.857  1.00  0.00     0.135 C 
ENDBRANCH   8  11
ENDBRANCH   4   8
BRANCH   1  16
HETATM   16  N   UNL     1     -41.735 -47.409   9.887  1.00  0.00    -0.277 NA
HETATM   17  H   UNL     1     -41.229 -47.590   9.019  1.00  0.00     0.129 HD
BRANCH  16  18
HETATM   18  C   UNL     1     -43.119 -47.044   9.576  1.00  0.00     0.120 C 
BRANCH  18  19
HETATM   19  C   UNL     1     -43.509 -47.663   8.225  1.00  0.00     0.181 C 
BRANCH  19  20
HETATM   20  O   UNL     1     -44.911 -47.972   8.242  1.00  0.00    -0.395 OA
HETATM   21  C   UNL     1     -45.518 -47.571   9.462  1.00  0.00     0.201 C 
ENDBRANCH  19  20
ENDBRANCH  18  19
ENDBRANCH  16  18
ENDBRANCH   1  16
TORSDOF 6
ENDMDL
MODEL 5
REMARK VINA RESULT:      -5.0      4.597      7.791
REMARK  6 active torsions:
REMARK  status: ('A' for Active; 'I' for Inactive)
REMARK    1  A    between atoms: O_2  and  C_3 
REMARK    2  A    between atoms: C_3  and  C_4 
REMARK    3  A    between atoms: C_4  and  N_5 
REMARK    4  A    between atoms: N_5  and  C_6 
REMARK    5  A    between atoms: C_9  and  S_13 
REMARK    6  A    between atoms: S_13  and  N_16 
ROOT
HETATM    1  C   UNL     1     -40.775 -49.384  11.046  1.00  0.00     0.079 A 
HETATM    2  C   UNL     1     -39.788 -48.573  11.608  1.00  0.00     0.044 A 
HETATM    3  C   UNL     1     -39.890 -47.187  11.513  1.00  0.00     0.030 A 
HETATM    4  C   UNL     1     -41.018 -46.645  10.912  1.00  0.00     0.095 A 
HETATM    5  C   UNL     1     -41.952 -47.505  10.366  1.00  0.00     0.114 A 
HETATM    6  N   UNL     1     -41.843 -48.858  10.417  1.00  0.00    -0.355 N 
ATOM      7  HN  UNL     1     -42.550 -49.458   9.991  1.00  0.00     0.166 HD
ENDROOT
BRANCH   4   8
HETATM    8  S   UNL     1     -41.268 -44.907  10.804  1.00  0.00     0.262 S 
HETATM    9  O   UNL     1     -40.116 -44.346  10.130  1.00  0.00    -0.200 OA
HETATM   10  O   UNL     1     -42.609 -44.703  10.295  1.00  0.00    -0.200 OA
BRANCH   8  11
HETATM   11  N   UNL     1     -41.267 -44.370  12.388  1.00  0.00    -0.307 N 
HETATM   12  C   UNL     1     -40.055 -43.842  13.029  1.00  0.00     0.135 C 
HETATM   13  C   UNL     1     -40.343 -43.906  14.529  1.00  0.00     0.022 C 
HETATM   14  C   UNL     1     -41.847 -44.104  14.629  1.00  0.00     0.022 C 
HETATM   15  C   UNL     1     -42.178 -44.926  13.392  1.00  0.00     0.135 C 
ENDBRANCH   8  11
ENDBRANCH   4   8
BRANCH   1  16
HETATM   16  N   UNL     1     -40.656 -50.768  11.232  1.00  0.00    -0.277 NA
HETATM   17  H   UNL     1     -39.671 -50.971  11.405  1.00  0.00     0.129 HD
BRANCH  16  18
HETATM   18  C   UNL     1     -41.464 -51.323  12.320  1.00  0.00     0.120 C 
BRANCH  18  19
HETATM   19  C   UNL     1     -40.531 -51.898  13.396  1.00  0.00     0.181 C 
BRANCH  19  20
HETATM   20  O   UNL     1     -39.976 -53.133  12.920  1.00  0.00    -0.395 OA
HETATM   21  C   UNL     1     -40.937 -54.180  12.944  1.00  0.00     0.201 C 
ENDBRANCH  19  20
ENDBRANCH  18  19
ENDBRANCH  16  18
ENDBRANCH   1  16
TORSDOF 6
ENDMDL
MODEL 6
REMARK VINA RESULT:      -4.8      3.372      5.233
REMARK  6 active torsions:
REMARK  status: ('A' for Active; 'I' for Inactive)
REMARK    1  A    between atoms: O_2  and  C_3 
REMARK    2  A    between atoms: C_3  and  C_4 
REMARK    3  A    between atoms: C_4  and  N_5 
REMARK    4  A    between atoms: N_5  and  C_6 
REMARK    5  A    between atoms: C_9  and  S_13 
REMARK    6  A    between atoms: S_13  and  N_16 
ROOT
HETATM    1  C   UNL     1     -41.874 -48.349  10.795  1.00  0.00     0.079 A 
HETATM    2  C   UNL     1     -42.910 -48.217  11.721  1.00  0.00     0.044 A 
HETATM    3  C   UNL     1     -43.151 -49.234  12.643  1.00  0.00     0.030 A 
HETATM    4  C   UNL     1     -42.303 -50.332  12.657  1.00  0.00     0.095 A 
HETATM    5  C   UNL     1     -41.304 -50.405  11.704  1.00  0.00     0.114 A 
HETATM    6  N   UNL     1     -41.084 -49.439  10.774  1.00  0.00    -0.355 N 
ATOM      7  HN  UNL     1     -40.342 -49.538  10.080  1.00  0.00     0.166 HD
ENDROOT
BRANCH   4   8
HETATM    8  S   UNL     1     -42.486 -51.633  13.826  1.00  0.00     0.262 S 
HETATM    9  O   UNL     1     -42.607 -51.025  15.134  1.00  0.00    -0.200 OA
HETATM   10  O   UNL     1     -43.510 -52.522  13.314  1.00  0.00    -0.200 OA
BRANCH   8  11
HETATM   11  N   UNL     1     -41.043 -52.476  13.765  1.00  0.00    -0.307 N 
HETATM   12  C   UNL     1     -40.973 -53.863  13.283  1.00  0.00     0.135 C 
HETATM   13  C   UNL     1     -39.640 -54.395  13.806  1.00  0.00     0.022 C 
HETATM   14  C   UNL     1     -38.863 -53.157  14.225  1.00  0.00     0.022 C 
HETATM   15  C   UNL     1     -39.948 -52.203  14.700  1.00  0.00     0.135 C 
ENDBRANCH   8  11
ENDBRANCH   4   8
BRANCH   1  16
HETATM   16  N   UNL     1     -41.635 -47.267   9.937  1.00  0.00    -0.277 NA
HETATM   17  H   UNL     1     -41.184 -47.635   9.098  1.00  0.00     0.129 HD
BRANCH  16  18
HETATM   18  C   UNL     1     -42.822 -46.500   9.554  1.00  0.00     0.120 C 
BRANCH  18  19
HETATM   19  C   UNL     1     -43.398 -47.080   8.254  1.00  0.00     0.181 C 
BRANCH  19  20
HETATM   20  O   UNL     1     -44.565 -47.855   8.566  1.00  0.00    -0.395 OA
HETATM   21  C   UNL     1     -45.601 -47.043   9.102  1.00  0.00     0.201 C 
ENDBRANCH  19  20
ENDBRANCH  18  19
ENDBRANCH  16  18
ENDBRANCH   1  16
TORSDOF 6
ENDMDL
MODEL 7
REMARK VINA RESULT:      -4.8      3.144      4.383
REMARK  6 active torsions:
REMARK  status: ('A' for Active; 'I' for Inactive)
REMARK    1  A    between atoms: O_2  and  C_3 
REMARK    2  A    between atoms: C_3  and  C_4 
REMARK    3  A    between atoms: C_4  and  N_5 
REMARK    4  A    between atoms: N_5  and  C_6 
REMARK    5  A    between atoms: C_9  and  S_13 
REMARK    6  A    between atoms: S_13  and  N_16 
ROOT
HETATM    1  C   UNL     1     -41.358 -48.772  10.891  1.00  0.00     0.079 A 
HETATM    2  C   UNL     1     -42.331 -48.959  11.874  1.00  0.00     0.044 A 
HETATM    3  C   UNL     1     -42.325 -50.120  12.645  1.00  0.00     0.030 A 
HETATM    4  C   UNL     1     -41.302 -51.038  12.454  1.00  0.00     0.095 A 
HETATM    5  C   UNL     1     -40.378 -50.797  11.455  1.00  0.00     0.114 A 
HETATM    6  N   UNL     1     -40.396 -49.688  10.670  1.00  0.00    -0.355 N 
ATOM      7  HN  UNL     1     -39.702 -49.554   9.934  1.00  0.00     0.166 HD
ENDROOT
BRANCH   4   8
HETATM    8  S   UNL     1     -41.173 -52.500  13.424  1.00  0.00     0.262 S 
HETATM    9  O   UNL     1     -40.465 -53.483  12.631  1.00  0.00    -0.200 OA
HETATM   10  O   UNL     1     -40.692 -52.101  14.731  1.00  0.00    -0.200 OA
BRANCH   8  11
HETATM   11  N   UNL     1     -42.749 -53.022  13.631  1.00  0.00    -0.307 N 
HETATM   12  C   UNL     1     -43.262 -53.443  14.942  1.00  0.00     0.135 C 
HETATM   13  C   UNL     1     -44.521 -54.252  14.632  1.00  0.00     0.022 C 
HETATM   14  C   UNL     1     -44.856 -53.913  13.188  1.00  0.00     0.022 C 
HETATM   15  C   UNL     1     -43.492 -53.682  12.554  1.00  0.00     0.135 C 
ENDBRANCH   8  11
ENDBRANCH   4   8
BRANCH   1  16
HETATM   16  N   UNL     1     -41.372 -47.557  10.193  1.00  0.00    -0.277 NA
HETATM   17  H   UNL     1     -42.236 -47.523   9.652  1.00  0.00     0.129 HD
BRANCH  16  18
HETATM   18  C   UNL     1     -41.274 -46.358  11.029  1.00  0.00     0.120 C 
BRANCH  18  19
HETATM   19  C   UNL     1     -42.441 -45.416  10.694  1.00  0.00     0.181 C 
BRANCH  19  20
HETATM   20  O   UNL     1     -41.941 -44.075  10.585  1.00  0.00    -0.395 OA
HETATM   21  C   UNL     1     -42.881 -43.127  11.072  1.00  0.00     0.201 C 
ENDBRANCH  19  20
ENDBRANCH  18  19
ENDBRANCH  16  18
ENDBRANCH   1  16
TORSDOF 6
ENDMDL
MODEL 8
REMARK VINA RESULT:      -4.8      2.842      6.523
REMARK  6 active torsions:
REMARK  status: ('A' for Active; 'I' for Inactive)
REMARK    1  A    between atoms: O_2  and  C_3 
REMARK    2  A    between atoms: C_3  and  C_4 
REMARK    3  A    between atoms: C_4  and  N_5 
REMARK    4  A    between atoms: N_5  and  C_6 
REMARK    5  A    between atoms: C_9  and  S_13 
REMARK    6  A    between atoms: S_13  and  N_16 
ROOT
HETATM    1  C   UNL     1     -42.519 -53.351  12.577  1.00  0.00     0.079 A 
HETATM    2  C   UNL     1     -41.513 -53.720  13.471  1.00  0.00     0.044 A 
HETATM    3  C   UNL     1     -40.323 -52.997  13.514  1.00  0.00     0.030 A 
HETATM    4  C   UNL     1     -40.196 -51.878  12.703  1.00  0.00     0.095 A 
HETATM    5  C   UNL     1     -41.225 -51.576  11.832  1.00  0.00     0.114 A 
HETATM    6  N   UNL     1     -42.375 -52.296  11.752  1.00  0.00    -0.355 N 
ATOM      7  HN  UNL     1     -43.106 -52.046  11.086  1.00  0.00     0.166 HD
ENDROOT
BRANCH   4   8
HETATM    8  S   UNL     1     -38.758 -50.865  12.735  1.00  0.00     0.262 S 
HETATM    9  O   UNL     1     -37.618 -51.739  12.908  1.00  0.00    -0.200 OA
HETATM   10  O   UNL     1     -38.850 -49.964  11.604  1.00  0.00    -0.200 OA
BRANCH   8  11
HETATM   11  N   UNL     1     -38.920 -49.927  14.111  1.00  0.00    -0.307 N 
HETATM   12  C   UNL     1     -38.929 -48.459  14.054  1.00  0.00     0.135 C 
HETATM   13  C   UNL     1     -38.631 -48.007  15.483  1.00  0.00     0.022 C 
HETATM   14  C   UNL     1     -38.856 -49.244  16.338  1.00  0.00     0.022 C 
HETATM   15  C   UNL     1     -38.447 -50.387  15.419  1.00  0.00     0.135 C 
ENDBRANCH   8  11
ENDBRANCH   4   8
BRANCH   1  16
HETATM   16  N   UNL     1     -43.721 -54.070  12.625  1.00  0.00    -0.277 NA
HETATM   17  H   UNL     1     -43.605 -54.901  12.043  1.00  0.00     0.129 HD
BRANCH  16  18
HETATM   18  C   UNL     1     -44.153 -54.473  13.965  1.00  0.00     0.120 C 
BRANCH  18  19
HETATM   19  C   UNL     1     -45.497 -55.209  13.860  1.00  0.00     0.181 C 
BRANCH  19  20
HETATM   20  O   UNL     1     -46.330 -54.818  14.962  1.00  0.00    -0.395 OA
HETATM   21  C   UNL     1     -45.756 -53.742  15.692  1.00  0.00     0.201 C 
ENDBRANCH  19  20
ENDBRANCH  18  19
ENDBRANCH  16  18
ENDBRANCH   1  16
TORSDOF 6
ENDMDL
MODEL 9
REMARK VINA RESULT:      -4.7      2.877      5.862
REMARK  6 active torsions:
REMARK  status: ('A' for Active; 'I' for Inactive)
REMARK    1  A    between atoms: O_2  and  C_3 
REMARK    2  A    between atoms: C_3  and  C_4 
REMARK    3  A    between atoms: C_4  and  N_5 
REMARK    4  A    between atoms: N_5  and  C_6 
REMARK    5  A    between atoms: C_9  and  S_13 
REMARK    6  A    between atoms: S_13  and  N_16 
ROOT
HETATM    1  C   UNL     1     -44.385 -54.553  13.464  1.00  0.00     0.079 A 
HETATM    2  C   UNL     1     -43.568 -54.898  14.542  1.00  0.00     0.044 A 
HETATM    3  C   UNL     1     -42.237 -54.488  14.563  1.00  0.00     0.030 A 
HETATM    4  C   UNL     1     -41.774 -53.683  13.532  1.00  0.00     0.095 A 
HETATM    5  C   UNL     1     -42.633 -53.388  12.490  1.00  0.00     0.114 A 
HETATM    6  N   UNL     1     -43.921 -53.816  12.437  1.00  0.00    -0.355 N 
ATOM      7  HN  UNL     1     -44.519 -53.585  11.643  1.00  0.00     0.166 HD
ENDROOT
BRANCH   4   8
HETATM    8  S   UNL     1     -40.128 -53.061  13.505  1.00  0.00     0.262 S 
HETATM    9  O   UNL     1     -39.237 -54.191  13.652  1.00  0.00    -0.200 OA
HETATM   10  O   UNL     1     -40.031 -52.169  12.367  1.00  0.00    -0.200 OA
BRANCH   8  11
HETATM   11  N   UNL     1     -40.004 -52.107  14.874  1.00  0.00    -0.307 N 
HETATM   12  C   UNL     1     -40.913 -50.978  15.120  1.00  0.00     0.135 C 
HETATM   13  C   UNL     1     -40.205 -50.125  16.171  1.00  0.00     0.022 C 
HETATM   14  C   UNL     1     -39.120 -51.026  16.739  1.00  0.00     0.022 C 
HETATM   15  C   UNL     1     -38.723 -51.891  15.552  1.00  0.00     0.135 C 
ENDBRANCH   8  11
ENDBRANCH   4   8
BRANCH   1  16
HETATM   16  N   UNL     1     -45.732 -54.934  13.528  1.00  0.00    -0.277 NA
HETATM   17  H   UNL     1     -45.763 -55.954  13.536  1.00  0.00     0.129 HD
BRANCH  16  18
HETATM   18  C   UNL     1     -46.472 -54.417  14.682  1.00  0.00     0.120 C 
BRANCH  18  19
HETATM   19  C   UNL     1     -46.791 -52.932  14.450  1.00  0.00     0.181 C 
BRANCH  19  20
HETATM   20  O   UNL     1     -47.298 -52.369  15.669  1.00  0.00    -0.395 OA
HETATM   21  C   UNL     1     -46.539 -51.238  16.075  1.00  0.00     0.201 C 
ENDBRANCH  19  20
ENDBRANCH  18  19
ENDBRANCH  16  18
ENDBRANCH   1  16
TORSDOF 6
ENDMDL
