MODEL 1
REMARK VINA RESULT:      -6.3      0.000      0.000
REMARK  6 active torsions:
REMARK  status: ('A' for Active; 'I' for Inactive)
REMARK    1  A    between atoms: N_1  and  C1*_3 
REMARK    2  A    between atoms: C2*_9  and  O2*_18 
REMARK    3  A    between atoms: C_14  and  N_19 
REMARK    4  A    between atoms: C3*_16  and  O3*_21 
REMARK    5  A    between atoms: C4*_17  and  C5*_22 
REMARK    6  A    between atoms: C5*_22  and  O5*_23 
ROOT
HETATM    1  N   UNL     1     -41.509 -47.673  11.386  1.00  0.00    -0.297 N 
HETATM    2  C   UNL     1     -41.265 -49.010  11.564  1.00  0.00     0.145 A 
HETATM    3  C   UNL     1     -39.888 -49.138  11.517  1.00  0.00     0.122 A 
HETATM    4  N   UNL     1     -42.158 -49.990  11.755  1.00  0.00    -0.302 N 
ATOM      5  HN  UNL     1     -43.168 -49.855  11.748  1.00  0.00     0.171 HD
HETATM    6  N   UNL     1     -39.291 -47.914  11.320  1.00  0.00    -0.346 N 
ATOM      7  HN  UNL     1     -38.293 -47.714  11.242  1.00  0.00     0.167 HD
HETATM    8  C   UNL     1     -40.289 -47.056  11.256  1.00  0.00     0.188 A 
HETATM    9  N   UNL     1     -40.232 -51.447  11.939  1.00  0.00    -0.303 N 
ATOM     10  HN  UNL     1     -39.889 -52.392  12.109  1.00  0.00     0.171 HD
HETATM   11  C   UNL     1     -39.374 -50.433  11.692  1.00  0.00     0.133 A 
HETATM   12  C   UNL     1     -41.551 -51.181  11.956  1.00  0.00     0.269 A 
HETATM   13  F   UNL     1     -42.368 -52.211  12.230  1.00  0.00    -0.165 F 
ENDROOT
BRANCH   1  14
HETATM   14  C1* UNL     1     -42.775 -46.974  11.408  1.00  0.00     0.262 C 
HETATM   15  C2* UNL     1     -42.859 -45.529  10.915  1.00  0.00     0.198 C 
HETATM   16  C3* UNL     1     -43.271 -45.650   9.450  1.00  0.00     0.182 C 
HETATM   17  C4* UNL     1     -43.882 -47.050   9.335  1.00  0.00     0.179 C 
HETATM   18  O4* UNL     1     -43.702 -47.730  10.603  1.00  0.00    -0.353 OA
BRANCH  15  19
HETATM   19  O2* UNL     1     -41.703 -44.733  11.141  1.00  0.00    -0.388 OA
HETATM   20  H2* UNL     1     -41.042 -45.282  11.611  1.00  0.00     0.210 HD
ENDBRANCH  15  19
BRANCH  16  21
HETATM   21  O3* UNL     1     -44.221 -44.637   9.100  1.00  0.00    -0.390 OA
HETATM   22  H3* UNL     1     -43.881 -43.768   9.378  1.00  0.00     0.210 HD
ENDBRANCH  16  21
BRANCH  17  23
HETATM   23  C5* UNL     1     -43.221 -47.888   8.231  1.00  0.00     0.198 C 
BRANCH  23  24
HETATM   24  O5* UNL     1     -43.058 -47.106   7.049  1.00  0.00    -0.398 OA
HETATM   25  H5* UNL     1     -42.795 -47.724   6.341  1.00  0.00     0.209 HD
ENDBRANCH  23  24
ENDBRANCH  17  23
ENDBRANCH   1  14
BRANCH  11  26
HETATM   26  N   UNL     1     -38.020 -50.722  11.650  1.00  0.00    -0.383 N 
HETATM   27  H   UNL     1     -37.737 -51.173  10.790  1.00  0.00     0.157 HD
HETATM   28  H   UNL     1     -37.643 -51.081  12.522  1.00  0.00     0.157 HD
ENDBRANCH  11  26
TORSDOF 6
ENDMDL
MODEL 2
REMARK VINA RESULT:      -6.3      3.223      5.140
REMARK  6 active torsions:
REMARK  status: ('A' for Active; 'I' for Inactive)
REMARK    1  A    between atoms: N_1  and  C1*_3 
REMARK    2  A    between atoms: C2*_9  and  O2*_18 
REMARK    3  A    between atoms: C_14  and  N_19 
REMARK    4  A    between atoms: C3*_16  and  O3*_21 
REMARK    5  A    between atoms: C4*_17  and  C5*_22 
REMARK    6  A    between atoms: C5*_22  and  O5*_23 
ROOT
HETATM    1  N   UNL     1     -41.895 -47.018  11.484  1.00  0.00    -0.297 N 
HETATM    2  C   UNL     1     -42.696 -46.700  10.419  1.00  0.00     0.145 A 
HETATM    3  C   UNL     1     -42.458 -47.685   9.477  1.00  0.00     0.122 A 
HETATM    4  N   UNL     1     -43.540 -45.666  10.305  1.00  0.00    -0.302 N 
ATOM      5  HN  UNL     1     -43.659 -44.942  11.014  1.00  0.00     0.171 HD
HETATM    6  N   UNL     1     -41.538 -48.595   9.945  1.00  0.00    -0.346 N 
ATOM      7  HN  UNL     1     -41.176 -49.417   9.462  1.00  0.00     0.167 HD
HETATM    8  C   UNL     1     -41.228 -48.173  11.154  1.00  0.00     0.188 A 
HETATM    9  N   UNL     1     -44.085 -46.596   8.138  1.00  0.00    -0.303 N 
ATOM     10  HN  UNL     1     -44.655 -46.523   7.295  1.00  0.00     0.171 HD
HETATM   11  C   UNL     1     -43.183 -47.592   8.279  1.00  0.00     0.133 A 
HETATM   12  C   UNL     1     -44.214 -45.702   9.135  1.00  0.00     0.269 A 
HETATM   13  F   UNL     1     -45.139 -44.743   8.966  1.00  0.00    -0.165 F 
ENDROOT
BRANCH   1  14
HETATM   14  C1* UNL     1     -41.791 -46.358  12.768  1.00  0.00     0.262 C 
HETATM   15  C2* UNL     1     -40.475 -46.403  13.546  1.00  0.00     0.198 C 
HETATM   16  C3* UNL     1     -39.751 -45.121  13.143  1.00  0.00     0.182 C 
HETATM   17  C4* UNL     1     -40.856 -44.208  12.601  1.00  0.00     0.179 C 
HETATM   18  O4* UNL     1     -42.092 -44.963  12.563  1.00  0.00    -0.353 OA
BRANCH  15  19
HETATM   19  O2* UNL     1     -39.708 -47.589  13.391  1.00  0.00    -0.388 OA
HETATM   20  H2* UNL     1     -38.803 -47.332  13.119  1.00  0.00     0.210 HD
ENDBRANCH  15  19
BRANCH  16  21
HETATM   21  O3* UNL     1     -39.094 -44.529  14.269  1.00  0.00    -0.390 OA
HETATM   22  H3* UNL     1     -39.653 -44.635  15.060  1.00  0.00     0.210 HD
ENDBRANCH  16  21
BRANCH  17  23
HETATM   23  C5* UNL     1     -40.550 -43.696  11.186  1.00  0.00     0.198 C 
BRANCH  23  24
HETATM   24  O5* UNL     1     -41.736 -43.189  10.576  1.00  0.00    -0.398 OA
HETATM   25  H5* UNL     1     -42.457 -43.796  10.826  1.00  0.00     0.209 HD
ENDBRANCH  23  24
ENDBRANCH  17  23
ENDBRANCH   1  14
BRANCH  11  26
HETATM   26  N   UNL     1     -43.038 -48.490   7.234  1.00  0.00    -0.383 N 
HETATM   27  H   UNL     1     -43.882 -49.012   7.039  1.00  0.00     0.157 HD
HETATM   28  H   UNL     1     -42.156 -48.994   7.237  1.00  0.00     0.157 HD
ENDBRANCH  11  26
TORSDOF 6
ENDMDL
MODEL 3
REMARK VINA RESULT:      -6.1      4.798      7.175
REMARK  6 active torsions:
REMARK  status: ('A' for Active; 'I' for Inactive)
REMARK    1  A    between atoms: N_1  and  C1*_3 
REMARK    2  A    between atoms: C2*_9  and  O2*_18 
REMARK    3  A    between atoms: C_14  and  N_19 
REMARK    4  A    between atoms: C3*_16  and  O3*_21 
REMARK    5  A    between atoms: C4*_17  and  C5*_22 
REMARK    6  A    between atoms: C5*_22  and  O5*_23 
ROOT
HETATM    1  N   UNL     1     -43.630 -51.997  13.249  1.00  0.00    -0.297 N 
HETATM    2  C   UNL     1     -43.010 -50.789  13.066  1.00  0.00     0.145 A 
HETATM    3  C   UNL     1     -42.048 -51.016  12.098  1.00  0.00     0.122 A 
HETATM    4  N   UNL     1     -43.275 -49.628  13.680  1.00  0.00    -0.302 N 
ATOM      5  HN  UNL     1     -43.973 -49.514  14.414  1.00  0.00     0.171 HD
HETATM    6  N   UNL     1     -42.072 -52.329  11.685  1.00  0.00    -0.346 N 
ATOM      7  HN  UNL     1     -41.474 -52.772  10.988  1.00  0.00     0.167 HD
HETATM    8  C   UNL     1     -43.038 -52.887  12.386  1.00  0.00     0.188 A 
HETATM    9  N   UNL     1     -41.537 -48.706  12.269  1.00  0.00    -0.303 N 
ATOM     10  HN  UNL     1     -41.018 -47.876  11.985  1.00  0.00     0.171 HD
HETATM   11  C   UNL     1     -41.273 -49.910  11.716  1.00  0.00     0.133 A 
HETATM   12  C   UNL     1     -42.503 -48.628  13.203  1.00  0.00     0.269 A 
HETATM   13  F   UNL     1     -42.751 -47.408  13.708  1.00  0.00    -0.165 F 
ENDROOT
BRANCH   1  14
HETATM   14  C1* UNL     1     -44.753 -52.318  14.103  1.00  0.00     0.262 C 
HETATM   15  C2* UNL     1     -45.888 -53.198  13.575  1.00  0.00     0.198 C 
HETATM   16  C3* UNL     1     -45.510 -54.611  14.015  1.00  0.00     0.182 C 
HETATM   17  C4* UNL     1     -44.513 -54.404  15.160  1.00  0.00     0.179 C 
HETATM   18  O4* UNL     1     -44.234 -52.986  15.270  1.00  0.00    -0.353 OA
BRANCH  15  19
HETATM   19  O2* UNL     1     -46.176 -53.067  12.189  1.00  0.00    -0.388 OA
HETATM   20  H2* UNL     1     -45.685 -52.292  11.848  1.00  0.00     0.210 HD
ENDBRANCH  15  19
BRANCH  16  21
HETATM   21  O3* UNL     1     -46.664 -55.335  14.454  1.00  0.00    -0.390 OA
HETATM   22  H3* UNL     1     -47.397 -55.181  13.832  1.00  0.00     0.210 HD
ENDBRANCH  16  21
BRANCH  17  23
HETATM   23  C5* UNL     1     -43.191 -55.149  14.925  1.00  0.00     0.198 C 
BRANCH  23  24
HETATM   24  O5* UNL     1     -42.969 -56.102  15.963  1.00  0.00    -0.398 OA
HETATM   25  H5* UNL     1     -42.395 -55.668  16.621  1.00  0.00     0.209 HD
ENDBRANCH  23  24
ENDBRANCH  17  23
ENDBRANCH   1  14
BRANCH  11  26
HETATM   26  N   UNL     1     -40.258 -49.985  10.776  1.00  0.00    -0.383 N 
HETATM   27  H   UNL     1     -39.754 -50.861  10.804  1.00  0.00     0.157 HD
HETATM   28  H   UNL     1     -39.720 -49.129  10.674  1.00  0.00     0.157 HD
ENDBRANCH  11  26
TORSDOF 6
ENDMDL
MODEL 4
REMARK VINA RESULT:      -5.9      2.113      3.536
REMARK  6 active torsions:
REMARK  status: ('A' for Active; 'I' for Inactive)
REMARK    1  A    between atoms: N_1  and  C1*_3 
REMARK    2  A    between atoms: C2*_9  and  O2*_18 
REMARK    3  A    between atoms: C_14  and  N_19 
REMARK    4  A    between atoms: C3*_16  and  O3*_21 
REMARK    5  A    between atoms: C4*_17  and  C5*_22 
REMARK    6  A    between atoms: C5*_22  and  O5*_23 
ROOT
HETATM    1  N   UNL     1     -40.891 -47.533  11.241  1.00  0.00    -0.297 N 
HETATM    2  C   UNL     1     -40.310 -48.748  11.497  1.00  0.00     0.145 A 
HETATM    3  C   UNL     1     -41.359 -49.650  11.544  1.00  0.00     0.122 A 
HETATM    4  N   UNL     1     -39.008 -49.018  11.660  1.00  0.00    -0.302 N 
ATOM      5  HN  UNL     1     -38.270 -48.314  11.651  1.00  0.00     0.171 HD
HETATM    6  N   UNL     1     -42.559 -49.015  11.318  1.00  0.00    -0.346 N 
ATOM      7  HN  UNL     1     -43.489 -49.433  11.299  1.00  0.00     0.167 HD
HETATM    8  C   UNL     1     -42.243 -47.750  11.130  1.00  0.00     0.188 A 
HETATM    9  N   UNL     1     -39.714 -51.321  11.900  1.00  0.00    -0.303 N 
ATOM     10  HN  UNL     1     -39.432 -52.292  12.035  1.00  0.00     0.171 HD
HETATM   11  C   UNL     1     -41.019 -50.991  11.782  1.00  0.00     0.133 A 
HETATM   12  C   UNL     1     -38.795 -50.341  11.836  1.00  0.00     0.269 A 
HETATM   13  F   UNL     1     -37.509 -50.715  11.933  1.00  0.00    -0.165 F 
ENDROOT
BRANCH   1  14
HETATM   14  C1* UNL     1     -40.253 -46.251  11.031  1.00  0.00     0.262 C 
HETATM   15  C2* UNL     1     -40.960 -45.172  10.210  1.00  0.00     0.198 C 
HETATM   16  C3* UNL     1     -41.690 -44.322  11.247  1.00  0.00     0.182 C 
HETATM   17  C4* UNL     1     -40.974 -44.624  12.567  1.00  0.00     0.179 C 
HETATM   18  O4* UNL     1     -40.003 -45.674  12.327  1.00  0.00    -0.353 OA
BRANCH  15  19
HETATM   19  O2* UNL     1     -41.779 -45.642   9.148  1.00  0.00    -0.388 OA
HETATM   20  H2* UNL     1     -41.220 -45.730   8.348  1.00  0.00     0.210 HD
ENDBRANCH  15  19
BRANCH  16  21
HETATM   21  O3* UNL     1     -41.609 -42.931  10.917  1.00  0.00    -0.390 OA
HETATM   22  H3* UNL     1     -42.306 -42.447  11.395  1.00  0.00     0.210 HD
ENDBRANCH  16  21
BRANCH  17  23
HETATM   23  C5* UNL     1     -41.941 -45.091  13.664  1.00  0.00     0.198 C 
BRANCH  23  24
HETATM   24  O5* UNL     1     -43.292 -44.910  13.242  1.00  0.00    -0.398 OA
HETATM   25  H5* UNL     1     -43.778 -45.711  13.515  1.00  0.00     0.209 HD
ENDBRANCH  23  24
ENDBRANCH  17  23
ENDBRANCH   1  14
BRANCH  11  26
HETATM   26  N   UNL     1     -41.958 -52.004  11.877  1.00  0.00    -0.383 N 
HETATM   27  H   UNL     1     -42.412 -52.210  10.997  1.00  0.00     0.157 HD
HETATM   28  H   UNL     1     -42.534 -51.961  12.712  1.00  0.00     0.157 HD
ENDBRANCH  11  26
TORSDOF 6
ENDMDL
MODEL 5
REMARK VINA RESULT:      -5.9      4.987      7.035
REMARK  6 active torsions:
REMARK  status: ('A' for Active; 'I' for Inactive)
REMARK    1  A    between atoms: N_1  and  C1*_3 
REMARK    2  A    between atoms: C2*_9  and  O2*_18 
REMARK    3  A    between atoms: C_14  and  N_19 
REMARK    4  A    between atoms: C3*_16  and  O3*_21 
REMARK    5  A    between atoms: C4*_17  and  C5*_22 
REMARK    6  A    between atoms: C5*_22  and  O5*_23 
ROOT
HETATM    1  N   UNL     1     -42.527 -52.790  12.838  1.00  0.00    -0.297 N 
HETATM    2  C   UNL     1     -43.896 -52.754  12.883  1.00  0.00     0.145 A 
HETATM    3  C   UNL     1     -44.274 -53.963  13.439  1.00  0.00     0.122 A 
HETATM    4  N   UNL     1     -44.705 -51.763  12.485  1.00  0.00    -0.302 N 
ATOM      5  HN  UNL     1     -44.384 -50.900  12.047  1.00  0.00     0.171 HD
HETATM    6  N   UNL     1     -43.171 -54.729  13.739  1.00  0.00    -0.346 N 
ATOM      7  HN  UNL     1     -43.155 -55.661  14.152  1.00  0.00     0.167 HD
HETATM    8  C   UNL     1     -42.140 -53.994  13.375  1.00  0.00     0.188 A 
HETATM    9  N   UNL     1     -46.506 -53.177  13.272  1.00  0.00    -0.303 N 
ATOM     10  HN  UNL     1     -47.510 -53.280  13.419  1.00  0.00     0.171 HD
HETATM   11  C   UNL     1     -45.652 -54.168  13.610  1.00  0.00     0.133 A 
HETATM   12  C   UNL     1     -46.001 -52.051  12.737  1.00  0.00     0.269 A 
HETATM   13  F   UNL     1     -46.881 -51.080  12.439  1.00  0.00    -0.165 F 
ENDROOT
BRANCH   1  14
HETATM   14  C1* UNL     1     -41.608 -51.761  12.403  1.00  0.00     0.262 C 
HETATM   15  C2* UNL     1     -41.378 -50.525  13.274  1.00  0.00     0.198 C 
HETATM   16  C3* UNL     1     -40.151 -50.872  14.112  1.00  0.00     0.182 C 
HETATM   17  C4* UNL     1     -39.468 -52.008  13.344  1.00  0.00     0.179 C 
HETATM   18  O4* UNL     1     -40.317 -52.378  12.229  1.00  0.00    -0.353 OA
BRANCH  15  19
HETATM   19  O2* UNL     1     -42.501 -50.082  14.024  1.00  0.00    -0.388 OA
HETATM   20  H2* UNL     1     -42.483 -49.103  14.049  1.00  0.00     0.210 HD
ENDBRANCH  15  19
BRANCH  16  21
HETATM   21  O3* UNL     1     -39.285 -49.740  14.246  1.00  0.00    -0.390 OA
HETATM   22  H3* UNL     1     -39.534 -49.237  15.041  1.00  0.00     0.210 HD
ENDBRANCH  16  21
BRANCH  17  23
HETATM   23  C5* UNL     1     -39.238 -53.250  14.218  1.00  0.00     0.198 C 
BRANCH  23  24
HETATM   24  O5* UNL     1     -38.593 -54.274  13.463  1.00  0.00    -0.398 OA
HETATM   25  H5* UNL     1     -38.716 -54.044  12.523  1.00  0.00     0.209 HD
ENDBRANCH  23  24
ENDBRANCH  17  23
ENDBRANCH   1  14
BRANCH  11  26
HETATM   26  N   UNL     1     -46.185 -55.335  14.134  1.00  0.00    -0.383 N 
HETATM   27  H   UNL     1     -45.497 -55.912  14.599  1.00  0.00     0.157 HD
HETATM   28  H   UNL     1     -46.861 -55.792  13.529  1.00  0.00     0.157 HD
ENDBRANCH  11  26
TORSDOF 6
ENDMDL
MODEL 6
REMARK VINA RESULT:      -5.9      2.151      3.103
REMARK  6 active torsions:
REMARK  status: ('A' for Active; 'I' for Inactive)
REMARK    1  A    between atoms: N_1  and  C1*_3 
REMARK    2  A    between atoms: C2*_9  and  O2*_18 
REMARK    3  A    between atoms: C_14  and  N_19 
REMARK    4  A    between atoms: C3*_16  and  O3*_21 
REMARK    5  A    between atoms: C4*_17  and  C5*_22 
REMARK    6  A    between atoms: C5*_22  and  O5*_23 
ROOT
HETATM    1  N   UNL     1     -41.523 -49.251  12.122  1.00  0.00    -0.297 N 
HETATM    2  C   UNL     1     -42.447 -50.112  12.653  1.00  0.00     0.145 A 
HETATM    3  C   UNL     1     -42.050 -51.372  12.241  1.00  0.00     0.122 A 
HETATM    4  N   UNL     1     -43.506 -49.812  13.417  1.00  0.00    -0.302 N 
ATOM      5  HN  UNL     1     -43.782 -48.863  13.669  1.00  0.00     0.171 HD
HETATM    6  N   UNL     1     -40.907 -51.298  11.479  1.00  0.00    -0.346 N 
ATOM      7  HN  UNL     1     -40.399 -52.068  11.044  1.00  0.00     0.167 HD
HETATM    8  C   UNL     1     -40.611 -50.015  11.435  1.00  0.00     0.188 A 
HETATM    9  N   UNL     1     -43.888 -52.202  13.490  1.00  0.00    -0.303 N 
ATOM     10  HN  UNL     1     -44.458 -52.965  13.854  1.00  0.00     0.171 HD
HETATM   11  C   UNL     1     -42.839 -52.449  12.675  1.00  0.00     0.133 A 
HETATM   12  C   UNL     1     -44.163 -50.925  13.811  1.00  0.00     0.269 A 
HETATM   13  F   UNL     1     -45.198 -50.725  14.644  1.00  0.00    -0.165 F 
ENDROOT
BRANCH   1  14
HETATM   14  C1* UNL     1     -41.421 -47.817  12.288  1.00  0.00     0.262 C 
HETATM   15  C2* UNL     1     -40.435 -47.017  11.436  1.00  0.00     0.198 C 
HETATM   16  C3* UNL     1     -41.263 -46.538  10.246  1.00  0.00     0.182 C 
HETATM   17  C4* UNL     1     -42.716 -46.636  10.722  1.00  0.00     0.179 C 
HETATM   18  O4* UNL     1     -42.724 -47.258  12.031  1.00  0.00    -0.353 OA
BRANCH  15  19
HETATM   19  O2* UNL     1     -39.233 -47.691  11.087  1.00  0.00    -0.388 OA
HETATM   20  H2* UNL     1     -39.425 -48.285  10.333  1.00  0.00     0.210 HD
ENDBRANCH  15  19
BRANCH  16  21
HETATM   21  O3* UNL     1     -40.920 -45.193   9.892  1.00  0.00    -0.390 OA
HETATM   22  H3* UNL     1     -41.005 -44.623  10.677  1.00  0.00     0.210 HD
ENDBRANCH  16  21
BRANCH  17  23
HETATM   23  C5* UNL     1     -43.587 -47.473   9.774  1.00  0.00     0.198 C 
BRANCH  23  24
HETATM   24  O5* UNL     1     -42.767 -48.184   8.848  1.00  0.00    -0.398 OA
HETATM   25  H5* UNL     1     -41.915 -48.341   9.295  1.00  0.00     0.209 HD
ENDBRANCH  23  24
ENDBRANCH  17  23
ENDBRANCH   1  14
BRANCH  11  26
HETATM   26  N   UNL     1     -42.581 -53.765  12.327  1.00  0.00    -0.383 N 
HETATM   27  H   UNL     1     -42.149 -53.858  11.418  1.00  0.00     0.157 HD
HETATM   28  H   UNL     1     -43.324 -54.413  12.571  1.00  0.00     0.157 HD
ENDBRANCH  11  26
TORSDOF 6
ENDMDL
MODEL 7
REMARK VINA RESULT:      -5.9      1.954      2.365
REMARK  6 active torsions:
REMARK  status: ('A' for Active; 'I' for Inactive)
REMARK    1  A    between atoms: N_1  and  C1*_3 
REMARK    2  A    between atoms: C2*_9  and  O2*_18 
REMARK    3  A    between atoms: C_14  and  N_19 
REMARK    4  A    between atoms: C3*_16  and  O3*_21 
REMARK    5  A    between atoms: C4*_17  and  C5*_22 
REMARK    6  A    between atoms: C5*_22  and  O5*_23 
ROOT
HETATM    1  N   UNL     1     -41.594 -48.080  11.342  1.00  0.00    -0.297 N 
HETATM    2  C   UNL     1     -40.416 -48.208  12.031  1.00  0.00     0.145 A 
HETATM    3  C   UNL     1     -39.727 -49.222  11.388  1.00  0.00     0.122 A 
HETATM    4  N   UNL     1     -40.003 -47.502  13.092  1.00  0.00    -0.302 N 
ATOM      5  HN  UNL     1     -40.560 -46.784  13.555  1.00  0.00     0.171 HD
HETATM    6  N   UNL     1     -40.454 -49.708  10.326  1.00  0.00    -0.346 N 
ATOM      7  HN  UNL     1     -40.192 -50.456   9.683  1.00  0.00     0.167 HD
HETATM    8  C   UNL     1     -41.563 -48.997  10.320  1.00  0.00     0.188 A 
HETATM    9  N   UNL     1     -37.978 -48.820  12.939  1.00  0.00    -0.303 N 
ATOM     10  HN  UNL     1     -37.045 -48.999  13.311  1.00  0.00     0.171 HD
HETATM   11  C   UNL     1     -38.460 -49.539  11.902  1.00  0.00     0.133 A 
HETATM   12  C   UNL     1     -38.757 -47.860  13.471  1.00  0.00     0.269 A 
HETATM   13  F   UNL     1     -38.231 -47.152  14.484  1.00  0.00    -0.165 F 
ENDROOT
BRANCH   1  14
HETATM   14  C1* UNL     1     -42.664 -47.128  11.548  1.00  0.00     0.262 C 
HETATM   15  C2* UNL     1     -42.486 -45.673  11.110  1.00  0.00     0.198 C 
HETATM   16  C3* UNL     1     -43.089 -45.622   9.708  1.00  0.00     0.182 C 
HETATM   17  C4* UNL     1     -44.002 -46.850   9.636  1.00  0.00     0.179 C 
HETATM   18  O4* UNL     1     -43.824 -47.621  10.850  1.00  0.00    -0.353 OA
BRANCH  15  19
HETATM   19  O2* UNL     1     -41.166 -45.157  11.205  1.00  0.00    -0.388 OA
HETATM   20  H2* UNL     1     -41.191 -44.360  11.773  1.00  0.00     0.210 HD
ENDBRANCH  15  19
BRANCH  16  21
HETATM   21  O3* UNL     1     -43.829 -44.411   9.513  1.00  0.00    -0.390 OA
HETATM   22  H3* UNL     1     -43.871 -43.922  10.354  1.00  0.00     0.210 HD
ENDBRANCH  16  21
BRANCH  17  23
HETATM   23  C5* UNL     1     -43.681 -47.748   8.432  1.00  0.00     0.198 C 
BRANCH  23  24
HETATM   24  O5* UNL     1     -43.079 -46.981   7.390  1.00  0.00    -0.398 OA
HETATM   25  H5* UNL     1     -43.796 -46.466   6.975  1.00  0.00     0.209 HD
ENDBRANCH  23  24
ENDBRANCH  17  23
ENDBRANCH   1  14
BRANCH  11  26
HETATM   26  N   UNL     1     -37.661 -50.543  11.380  1.00  0.00    -0.383 N 
HETATM   27  H   UNL     1     -37.417 -50.393  10.410  1.00  0.00     0.157 HD
HETATM   28  H   UNL     1     -37.930 -51.480  11.664  1.00  0.00     0.157 HD
ENDBRANCH  11  26
TORSDOF 6
ENDMDL
MODEL 8
REMARK VINA RESULT:      -5.9      4.005      6.142
REMARK  6 active torsions:
REMARK  status: ('A' for Active; 'I' for Inactive)
REMARK    1  A    between atoms: N_1  and  C1*_3 
REMARK    2  A    between atoms: C2*_9  and  O2*_18 
REMARK    3  A    between atoms: C_14  and  N_19 
REMARK    4  A    between atoms: C3*_16  and  O3*_21 
REMARK    5  A    between atoms: C4*_17  and  C5*_22 
REMARK    6  A    between atoms: C5*_22  and  O5*_23 
ROOT
HETATM    1  N   UNL     1     -42.187 -51.375  13.700  1.00  0.00    -0.297 N 
HETATM    2  C   UNL     1     -42.917 -52.515  13.914  1.00  0.00     0.145 A 
HETATM    3  C   UNL     1     -44.167 -52.252  13.382  1.00  0.00     0.122 A 
HETATM    4  N   UNL     1     -42.515 -53.649  14.501  1.00  0.00    -0.302 N 
ATOM      5  HN  UNL     1     -41.591 -53.788  14.911  1.00  0.00     0.171 HD
HETATM    6  N   UNL     1     -44.212 -50.985  12.846  1.00  0.00    -0.346 N 
ATOM      7  HN  UNL     1     -45.005 -50.529  12.394  1.00  0.00     0.167 HD
HETATM    8  C   UNL     1     -43.007 -50.490  13.044  1.00  0.00     0.188 A 
HETATM    9  N   UNL     1     -44.737 -54.470  14.000  1.00  0.00    -0.303 N 
ATOM     10  HN  UNL     1     -45.387 -55.254  14.039  1.00  0.00     0.171 HD
HETATM   11  C   UNL     1     -45.111 -53.287  13.463  1.00  0.00     0.133 A 
HETATM   12  C   UNL     1     -43.487 -54.588  14.483  1.00  0.00     0.269 A 
HETATM   13  F   UNL     1     -43.148 -55.787  14.985  1.00  0.00    -0.165 F 
ENDROOT
BRANCH   1  14
HETATM   14  C1* UNL     1     -40.795 -51.122  14.002  1.00  0.00     0.262 C 
HETATM   15  C2* UNL     1     -39.702 -51.939  13.312  1.00  0.00     0.198 C 
HETATM   16  C3* UNL     1     -39.301 -51.097  12.103  1.00  0.00     0.182 C 
HETATM   17  C4* UNL     1     -39.782 -49.682  12.443  1.00  0.00     0.179 C 
HETATM   18  O4* UNL     1     -40.526 -49.741  13.686  1.00  0.00    -0.353 OA
BRANCH  15  19
HETATM   19  O2* UNL     1     -40.039 -53.286  13.008  1.00  0.00    -0.388 OA
HETATM   20  H2* UNL     1     -40.208 -53.755  13.852  1.00  0.00     0.210 HD
ENDBRANCH  15  19
BRANCH  16  21
HETATM   21  O3* UNL     1     -37.884 -51.131  11.902  1.00  0.00    -0.390 OA
HETATM   22  H3* UNL     1     -37.459 -51.532  12.681  1.00  0.00     0.210 HD
ENDBRANCH  16  21
BRANCH  17  23
HETATM   23  C5* UNL     1     -40.691 -49.096  11.353  1.00  0.00     0.198 C 
BRANCH  23  24
HETATM   24  O5* UNL     1     -40.593 -49.869  10.159  1.00  0.00    -0.398 OA
HETATM   25  H5* UNL     1     -39.641 -49.966   9.968  1.00  0.00     0.209 HD
ENDBRANCH  23  24
ENDBRANCH  17  23
ENDBRANCH   1  14
BRANCH  11  26
HETATM   26  N   UNL     1     -46.409 -53.167  12.995  1.00  0.00    -0.383 N 
HETATM   27  H   UNL     1     -46.460 -53.055  11.991  1.00  0.00     0.157 HD
HETATM   28  H   UNL     1     -47.007 -52.583  13.571  1.00  0.00     0.157 HD
ENDBRANCH  11  26
TORSDOF 6
ENDMDL
MODEL 9
REMARK VINA RESULT:      -5.8      4.257      6.619
REMARK  6 active torsions:
REMARK  status: ('A' for Active; 'I' for Inactive)
REMARK    1  A    between atoms: N_1  and  C1*_3 
REMARK    2  A    between atoms: C2*_9  and  O2*_18 
REMARK    3  A    between atoms: C_14  and  N_19 
REMARK    4  A    between atoms: C3*_16  and  O3*_21 
REMARK    5  A    between atoms: C4*_17  and  C5*_22 
REMARK    6  A    between atoms: C5*_22  and  O5*_23 
ROOT
HETATM    1  N   UNL     1     -42.123 -51.447  12.793  1.00  0.00    -0.297 N 
HETATM    2  C   UNL     1     -41.234 -50.593  12.193  1.00  0.00     0.145 A 
HETATM    3  C   UNL     1     -41.934 -49.414  12.003  1.00  0.00     0.122 A 
HETATM    4  N   UNL     1     -39.958 -50.833  11.864  1.00  0.00    -0.302 N 
ATOM      5  HN  UNL     1     -39.491 -51.731  11.992  1.00  0.00     0.171 HD
HETATM    6  N   UNL     1     -43.220 -49.529  12.477  1.00  0.00    -0.346 N 
ATOM      7  HN  UNL     1     -43.953 -48.819  12.464  1.00  0.00     0.167 HD
HETATM    8  C   UNL     1     -43.299 -50.755  12.953  1.00  0.00     0.188 A 
HETATM    9  N   UNL     1     -39.921 -48.534  11.106  1.00  0.00    -0.303 N 
ATOM     10  HN  UNL     1     -39.370 -47.774  10.709  1.00  0.00     0.171 HD
HETATM   11  C   UNL     1     -41.226 -48.358  11.408  1.00  0.00     0.133 A 
HETATM   12  C   UNL     1     -39.366 -49.736  11.343  1.00  0.00     0.269 A 
HETATM   13  F   UNL     1     -38.060 -49.862  11.053  1.00  0.00    -0.165 F 
ENDROOT
BRANCH   1  14
HETATM   14  C1* UNL     1     -41.902 -52.795  13.269  1.00  0.00     0.262 C 
HETATM   15  C2* UNL     1     -40.841 -53.675  12.606  1.00  0.00     0.198 C 
HETATM   16  C3* UNL     1     -39.590 -53.470  13.456  1.00  0.00     0.182 C 
HETATM   17  C4* UNL     1     -40.114 -52.930  14.790  1.00  0.00     0.179 C 
HETATM   18  O4* UNL     1     -41.541 -52.709  14.662  1.00  0.00    -0.353 OA
BRANCH  15  19
HETATM   19  O2* UNL     1     -40.651 -53.467  11.213  1.00  0.00    -0.388 OA
HETATM   20  H2* UNL     1     -40.375 -52.537  11.079  1.00  0.00     0.210 HD
ENDBRANCH  15  19
BRANCH  16  21
HETATM   21  O3* UNL     1     -38.885 -54.704  13.634  1.00  0.00    -0.390 OA
HETATM   22  H3* UNL     1     -38.151 -54.750  12.995  1.00  0.00     0.210 HD
ENDBRANCH  16  21
BRANCH  17  23
HETATM   23  C5* UNL     1     -39.446 -51.607  15.189  1.00  0.00     0.198 C 
BRANCH  23  24
HETATM   24  O5* UNL     1     -38.325 -51.346  14.347  1.00  0.00    -0.398 OA
HETATM   25  H5* UNL     1     -37.854 -50.586  14.738  1.00  0.00     0.209 HD
ENDBRANCH  23  24
ENDBRANCH  17  23
ENDBRANCH   1  14
BRANCH  11  26
HETATM   26  N   UNL     1     -41.796 -47.125  11.135  1.00  0.00    -0.383 N 
HETATM   27  H   UNL     1     -41.391 -46.371  11.675  1.00  0.00     0.157 HD
HETATM   28  H   UNL     1     -42.806 -47.147  11.029  1.00  0.00     0.157 HD
ENDBRANCH  11  26
TORSDOF 6
ENDMDL
