MODEL 1
REMARK VINA RESULT:      -5.7      0.000      0.000
REMARK  5 active torsions:
REMARK  status: ('A' for Active; 'I' for Inactive)
REMARK    1  A    between atoms: C_7  and  N_9 
REMARK    2  A    between atoms: N_9  and  C_10 
REMARK    3  A    between atoms: C_10  and  C_11 
REMARK    4  A    between atoms: C_11  and  N_12 
REMARK    5  A    between atoms: C_11  and  C_15 
ROOT
HETATM    1  C   UNL     1     -41.927 -50.451  13.197  1.00  0.00     0.310 C 
ENDROOT
BRANCH   1   2
HETATM    2  N   UNL     1     -42.968 -51.251  12.527  1.00  0.00     0.090 N 
HETATM    3  H   UNL     1     -43.483 -50.633  11.908  1.00  0.00     0.316 HD
BRANCH   2   4
HETATM    4  C   UNL     1     -43.953 -51.805  13.473  1.00  0.00     0.221 C 
HETATM    5  C   UNL     1     -44.195 -53.301  13.244  1.00  0.00     0.039 C 
HETATM    6  C   UNL     1     -45.318 -53.855  14.128  1.00  0.00    -0.016 C 
HETATM    7  C   UNL     1     -46.608 -53.044  13.951  1.00  0.00     0.008 C 
HETATM    8  C   UNL     1     -45.545 -55.330  13.801  1.00  0.00     0.010 C 
HETATM    9  C   UNL     1     -46.404 -51.540  14.183  1.00  0.00    -0.016 C 
HETATM   10  C   UNL     1     -46.181 -51.209  15.661  1.00  0.00     0.010 C 
HETATM   11  C   UNL     1     -45.262 -51.011  13.305  1.00  0.00     0.039 C 
ENDBRANCH   2   4
ENDBRANCH   1   2
BRANCH   1  12
HETATM   12  C   UNL     1     -42.080 -48.881  13.178  1.00  0.00     0.285 C 
BRANCH  12  13
HETATM   13  N   UNL     1     -40.936 -48.078  13.724  1.00  0.00     0.090 N 
HETATM   14  C   UNL     1     -41.370 -46.721  14.094  1.00  0.00     0.310 C 
HETATM   15  C   UNL     1     -40.347 -48.694  14.917  1.00  0.00     0.310 C 
ENDBRANCH  12  13
BRANCH  12  16
HETATM   16  C   UNL     1     -42.338 -48.515  11.726  1.00  0.00     0.011 A 
HETATM   17  C   UNL     1     -41.429 -48.633  10.645  1.00  0.00     0.118 A 
HETATM   18  N   UNL     1     -41.917 -48.144   9.500  1.00  0.00    -0.310 N 
HETATM   19  N   UNL     1     -43.142 -47.709   9.840  1.00  0.00    -0.308 N 
ATOM     20  HN  UNL     1     -41.467 -48.109   8.586  1.00  0.00     0.186 HD
HETATM   21  C   UNL     1     -43.983 -47.066   8.859  1.00  0.00     0.177 C 
HETATM   22  C   UNL     1     -43.441 -47.901  11.156  1.00  0.00     0.120 A 
ENDBRANCH  12  16
ENDBRANCH   1  12
TORSDOF 5
ENDMDL
MODEL 2
REMARK VINA RESULT:      -5.7      2.328      4.260
REMARK  5 active torsions:
REMARK  status: ('A' for Active; 'I' for Inactive)
REMARK    1  A    between atoms: C_7  and  N_9 
REMARK    2  A    between atoms: N_9  and  C_10 
REMARK    3  A    between atoms: C_10  and  C_11 
REMARK    4  A    between atoms: C_11  and  N_12 
REMARK    5  A    between atoms: C_11  and  C_15 
ROOT
HETATM    1  C   UNL     1     -42.469 -49.934  12.535  1.00  0.00     0.310 C 
ENDROOT
BRANCH   1   2
HETATM    2  N   UNL     1     -43.022 -50.545  13.758  1.00  0.00     0.090 N 
HETATM    3  H   UNL     1     -42.552 -51.434  13.899  1.00  0.00     0.316 HD
BRANCH   2   4
HETATM    4  C   UNL     1     -44.458 -50.850  13.638  1.00  0.00     0.221 C 
HETATM    5  C   UNL     1     -45.153 -50.900  15.004  1.00  0.00     0.039 C 
HETATM    6  C   UNL     1     -46.613 -51.354  14.903  1.00  0.00    -0.016 C 
HETATM    7  C   UNL     1     -46.723 -52.695  14.168  1.00  0.00     0.008 C 
HETATM    8  C   UNL     1     -47.219 -51.440  16.303  1.00  0.00     0.010 C 
HETATM    9  C   UNL     1     -46.045 -52.679  12.791  1.00  0.00    -0.016 C 
HETATM   10  C   UNL     1     -46.830 -51.848  11.772  1.00  0.00     0.010 C 
HETATM   11  C   UNL     1     -44.592 -52.201  12.912  1.00  0.00     0.039 C 
ENDBRANCH   2   4
ENDBRANCH   1   2
BRANCH   1  12
HETATM   12  C   UNL     1     -40.931 -50.136  12.243  1.00  0.00     0.285 C 
BRANCH  12  13
HETATM   13  N   UNL     1     -39.972 -49.287  13.025  1.00  0.00     0.090 N 
HETATM   14  C   UNL     1     -38.757 -49.004  12.245  1.00  0.00     0.310 C 
HETATM   15  C   UNL     1     -40.560 -48.000  13.411  1.00  0.00     0.310 C 
ENDBRANCH  12  13
BRANCH  12  16
HETATM   16  C   UNL     1     -40.659 -51.609  12.494  1.00  0.00     0.011 A 
HETATM   17  C   UNL     1     -41.181 -52.707  11.765  1.00  0.00     0.118 A 
HETATM   18  N   UNL     1     -40.830 -53.888  12.283  1.00  0.00    -0.310 N 
HETATM   19  N   UNL     1     -40.081 -53.556  13.347  1.00  0.00    -0.308 N 
ATOM     20  HN  UNL     1     -41.073 -54.821  11.949  1.00  0.00     0.186 HD
HETATM   21  C   UNL     1     -39.540 -54.583  14.204  1.00  0.00     0.177 C 
HETATM   22  C   UNL     1     -39.952 -52.210  13.522  1.00  0.00     0.120 A 
ENDBRANCH  12  16
ENDBRANCH   1  12
TORSDOF 5
ENDMDL
MODEL 3
REMARK VINA RESULT:      -5.7      1.371      2.259
REMARK  5 active torsions:
REMARK  status: ('A' for Active; 'I' for Inactive)
REMARK    1  A    between atoms: C_7  and  N_9 
REMARK    2  A    between atoms: N_9  and  C_10 
REMARK    3  A    between atoms: C_10  and  C_11 
REMARK    4  A    between atoms: C_11  and  N_12 
REMARK    5  A    between atoms: C_11  and  C_15 
ROOT
HETATM    1  C   UNL     1     -42.419 -50.061  12.530  1.00  0.00     0.310 C 
ENDROOT
BRANCH   1   2
HETATM    2  N   UNL     1     -43.002 -50.606  13.769  1.00  0.00     0.090 N 
HETATM    3  H   UNL     1     -42.559 -51.501  13.951  1.00  0.00     0.316 HD
BRANCH   2   4
HETATM    4  C   UNL     1     -44.446 -50.875  13.645  1.00  0.00     0.221 C 
HETATM    5  C   UNL     1     -45.140 -50.935  15.010  1.00  0.00     0.039 C 
HETATM    6  C   UNL     1     -46.611 -51.353  14.902  1.00  0.00    -0.016 C 
HETATM    7  C   UNL     1     -46.752 -52.676  14.141  1.00  0.00     0.008 C 
HETATM    8  C   UNL     1     -47.218 -51.452  16.301  1.00  0.00     0.010 C 
HETATM    9  C   UNL     1     -46.075 -52.649  12.763  1.00  0.00    -0.016 C 
HETATM   10  C   UNL     1     -46.841 -51.780  11.761  1.00  0.00     0.010 C 
HETATM   11  C   UNL     1     -44.611 -52.208  12.892  1.00  0.00     0.039 C 
ENDBRANCH   2   4
ENDBRANCH   1   2
BRANCH   1  12
HETATM   12  C   UNL     1     -41.453 -48.820  12.655  1.00  0.00     0.285 C 
BRANCH  12  13
HETATM   13  N   UNL     1     -39.981 -49.106  12.732  1.00  0.00     0.090 N 
HETATM   14  C   UNL     1     -39.534 -49.212  14.130  1.00  0.00     0.310 C 
HETATM   15  C   UNL     1     -39.626 -50.360  12.058  1.00  0.00     0.310 C 
ENDBRANCH  12  13
BRANCH  12  16
HETATM   16  C   UNL     1     -41.759 -47.943  11.453  1.00  0.00     0.011 A 
HETATM   17  C   UNL     1     -40.923 -46.943  10.894  1.00  0.00     0.118 A 
HETATM   18  N   UNL     1     -41.508 -46.278   9.893  1.00  0.00    -0.310 N 
HETATM   19  N   UNL     1     -42.722 -46.846   9.804  1.00  0.00    -0.308 N 
ATOM     20  HN  UNL     1     -41.124 -45.519   9.330  1.00  0.00     0.186 HD
HETATM   21  C   UNL     1     -43.682 -46.360   8.842  1.00  0.00     0.177 C 
HETATM   22  C   UNL     1     -42.926 -47.840  10.715  1.00  0.00     0.120 A 
ENDBRANCH  12  16
ENDBRANCH   1  12
TORSDOF 5
ENDMDL
MODEL 4
REMARK VINA RESULT:      -5.6      1.549      2.026
REMARK  5 active torsions:
REMARK  status: ('A' for Active; 'I' for Inactive)
REMARK    1  A    between atoms: C_7  and  N_9 
REMARK    2  A    between atoms: N_9  and  C_10 
REMARK    3  A    between atoms: C_10  and  C_11 
REMARK    4  A    between atoms: C_11  and  N_12 
REMARK    5  A    between atoms: C_11  and  C_15 
ROOT
HETATM    1  C   UNL     1     -41.558 -51.159  12.079  1.00  0.00     0.310 C 
ENDROOT
BRANCH   1   2
HETATM    2  N   UNL     1     -42.273 -52.416  11.795  1.00  0.00     0.090 N 
HETATM    3  H   UNL     1     -42.900 -52.246  11.015  1.00  0.00     0.316 HD
BRANCH   2   4
HETATM    4  C   UNL     1     -43.120 -52.853  12.919  1.00  0.00     0.221 C 
HETATM    5  C   UNL     1     -42.421 -53.900  13.795  1.00  0.00     0.039 C 
HETATM    6  C   UNL     1     -43.342 -54.463  14.882  1.00  0.00    -0.016 C 
HETATM    7  C   UNL     1     -44.638 -55.014  14.274  1.00  0.00     0.008 C 
HETATM    8  C   UNL     1     -42.601 -55.541  15.671  1.00  0.00     0.010 C 
HETATM    9  C   UNL     1     -45.370 -53.988  13.397  1.00  0.00    -0.016 C 
HETATM   10  C   UNL     1     -46.016 -52.876  14.228  1.00  0.00     0.010 C 
HETATM   11  C   UNL     1     -44.424 -53.421  12.331  1.00  0.00     0.039 C 
ENDBRANCH   2   4
ENDBRANCH   1   2
BRANCH   1  12
HETATM   12  C   UNL     1     -42.395 -49.950  12.652  1.00  0.00     0.285 C 
BRANCH  12  13
HETATM   13  N   UNL     1     -42.057 -49.482  14.037  1.00  0.00     0.090 N 
HETATM   14  C   UNL     1     -43.185 -49.694  14.958  1.00  0.00     0.310 C 
HETATM   15  C   UNL     1     -40.895 -50.187  14.591  1.00  0.00     0.310 C 
ENDBRANCH  12  13
BRANCH  12  16
HETATM   16  C   UNL     1     -42.214 -48.820  11.653  1.00  0.00     0.011 A 
HETATM   17  C   UNL     1     -40.991 -48.357  11.105  1.00  0.00     0.118 A 
HETATM   18  N   UNL     1     -41.147 -47.286  10.320  1.00  0.00    -0.310 N 
HETATM   19  N   UNL     1     -42.470 -47.055  10.360  1.00  0.00    -0.308 N 
ATOM     20  HN  UNL     1     -40.431 -46.767   9.812  1.00  0.00     0.186 HD
HETATM   21  C   UNL     1     -43.032 -45.930   9.652  1.00  0.00     0.177 C 
HETATM   22  C   UNL     1     -43.151 -47.937  11.145  1.00  0.00     0.120 A 
ENDBRANCH  12  16
ENDBRANCH   1  12
TORSDOF 5
ENDMDL
MODEL 5
REMARK VINA RESULT:      -5.6      3.109      4.506
REMARK  5 active torsions:
REMARK  status: ('A' for Active; 'I' for Inactive)
REMARK    1  A    between atoms: C_7  and  N_9 
REMARK    2  A    between atoms: N_9  and  C_10 
REMARK    3  A    between atoms: C_10  and  C_11 
REMARK    4  A    between atoms: C_11  and  N_12 
REMARK    5  A    between atoms: C_11  and  C_15 
ROOT
HETATM    1  C   UNL     1     -42.189 -51.360  13.224  1.00  0.00     0.310 C 
ENDROOT
BRANCH   1   2
HETATM    2  N   UNL     1     -43.099 -50.397  13.869  1.00  0.00     0.090 N 
HETATM    3  H   UNL     1     -42.906 -50.408  14.865  1.00  0.00     0.316 HD
BRANCH   2   4
HETATM    4  C   UNL     1     -44.517 -50.768  13.717  1.00  0.00     0.221 C 
HETATM    5  C   UNL     1     -45.229 -50.890  15.069  1.00  0.00     0.039 C 
HETATM    6  C   UNL     1     -46.663 -51.412  14.932  1.00  0.00    -0.016 C 
HETATM    7  C   UNL     1     -46.695 -52.736  14.159  1.00  0.00     0.008 C 
HETATM    8  C   UNL     1     -47.286 -51.567  16.319  1.00  0.00     0.010 C 
HETATM    9  C   UNL     1     -45.998 -52.649  12.794  1.00  0.00    -0.016 C 
HETATM   10  C   UNL     1     -46.807 -51.829  11.785  1.00  0.00     0.010 C 
HETATM   11  C   UNL     1     -44.572 -52.104  12.953  1.00  0.00     0.039 C 
ENDBRANCH   2   4
ENDBRANCH   1   2
BRANCH   1  12
HETATM   12  C   UNL     1     -41.040 -51.989  14.103  1.00  0.00     0.285 C 
BRANCH  12  13
HETATM   13  N   UNL     1     -41.066 -53.477  14.295  1.00  0.00     0.090 N 
HETATM   14  C   UNL     1     -42.120 -53.871  15.243  1.00  0.00     0.310 C 
HETATM   15  C   UNL     1     -41.311 -54.193  13.038  1.00  0.00     0.310 C 
ENDBRANCH  12  13
BRANCH  12  16
HETATM   16  C   UNL     1     -39.741 -51.564  13.440  1.00  0.00     0.011 A 
HETATM   17  C   UNL     1     -38.426 -51.805  13.912  1.00  0.00     0.118 A 
HETATM   18  N   UNL     1     -37.489 -51.227  13.154  1.00  0.00    -0.310 N 
HETATM   19  N   UNL     1     -38.196 -50.611  12.192  1.00  0.00    -0.308 N 
ATOM     20  HN  UNL     1     -36.476 -51.249  13.277  1.00  0.00     0.186 HD
HETATM   21  C   UNL     1     -37.523 -49.828  11.185  1.00  0.00     0.177 C 
HETATM   22  C   UNL     1     -39.543 -50.774  12.320  1.00  0.00     0.120 A 
ENDBRANCH  12  16
ENDBRANCH   1  12
TORSDOF 5
ENDMDL
MODEL 6
REMARK VINA RESULT:      -5.6      3.045      4.488
REMARK  5 active torsions:
REMARK  status: ('A' for Active; 'I' for Inactive)
REMARK    1  A    between atoms: C_7  and  N_9 
REMARK    2  A    between atoms: N_9  and  C_10 
REMARK    3  A    between atoms: C_10  and  C_11 
REMARK    4  A    between atoms: C_11  and  N_12 
REMARK    5  A    between atoms: C_11  and  C_15 
ROOT
HETATM    1  C   UNL     1     -42.195 -54.182  13.851  1.00  0.00     0.310 C 
ENDROOT
BRANCH   1   2
HETATM    2  N   UNL     1     -43.498 -54.305  14.530  1.00  0.00     0.090 N 
HETATM    3  H   UNL     1     -44.002 -55.071  14.096  1.00  0.00     0.316 HD
BRANCH   2   4
HETATM    4  C   UNL     1     -44.340 -53.107  14.362  1.00  0.00     0.221 C 
HETATM    5  C   UNL     1     -44.427 -52.278  15.649  1.00  0.00     0.039 C 
HETATM    6  C   UNL     1     -45.411 -51.109  15.527  1.00  0.00    -0.016 C 
HETATM    7  C   UNL     1     -46.793 -51.597  15.079  1.00  0.00     0.008 C 
HETATM    8  C   UNL     1     -45.492 -50.369  16.861  1.00  0.00     0.010 C 
HETATM    9  C   UNL     1     -46.745 -52.424  13.786  1.00  0.00    -0.016 C 
HETATM   10  C   UNL     1     -46.450 -51.559  12.558  1.00  0.00     0.010 C 
HETATM   11  C   UNL     1     -45.739 -53.575  13.922  1.00  0.00     0.039 C 
ENDBRANCH   2   4
ENDBRANCH   1   2
BRANCH   1  12
HETATM   12  C   UNL     1     -41.135 -53.190  14.469  1.00  0.00     0.285 C 
BRANCH  12  13
HETATM   13  N   UNL     1     -39.877 -53.795  15.020  1.00  0.00     0.090 N 
HETATM   14  C   UNL     1     -40.151 -54.566  16.243  1.00  0.00     0.310 C 
HETATM   15  C   UNL     1     -39.232 -54.700  14.062  1.00  0.00     0.310 C 
ENDBRANCH  12  13
BRANCH  12  16
HETATM   16  C   UNL     1     -40.806 -52.204  13.361  1.00  0.00     0.011 A 
HETATM   17  C   UNL     1     -41.329 -52.199  12.044  1.00  0.00     0.118 A 
HETATM   18  N   UNL     1     -40.780 -51.257  11.271  1.00  0.00    -0.310 N 
HETATM   19  N   UNL     1     -39.900 -50.653  12.087  1.00  0.00    -0.308 N 
ATOM     20  HN  UNL     1     -40.980 -51.047  10.293  1.00  0.00     0.186 HD
HETATM   21  C   UNL     1     -39.065 -49.585  11.592  1.00  0.00     0.177 C 
HETATM   22  C   UNL     1     -39.872 -51.182  13.343  1.00  0.00     0.120 A 
ENDBRANCH  12  16
ENDBRANCH   1  12
TORSDOF 5
ENDMDL
MODEL 7
REMARK VINA RESULT:      -5.6      1.356      2.278
REMARK  5 active torsions:
REMARK  status: ('A' for Active; 'I' for Inactive)
REMARK    1  A    between atoms: C_7  and  N_9 
REMARK    2  A    between atoms: N_9  and  C_10 
REMARK    3  A    between atoms: C_10  and  C_11 
REMARK    4  A    between atoms: C_11  and  N_12 
REMARK    5  A    between atoms: C_11  and  C_15 
ROOT
HETATM    1  C   UNL     1     -42.638 -49.826  13.477  1.00  0.00     0.310 C 
ENDROOT
BRANCH   1   2
HETATM    2  N   UNL     1     -43.708 -50.665  12.907  1.00  0.00     0.090 N 
HETATM    3  H   UNL     1     -44.533 -50.549  13.487  1.00  0.00     0.316 HD
BRANCH   2   4
HETATM    4  C   UNL     1     -43.378 -52.100  12.937  1.00  0.00     0.221 C 
HETATM    5  C   UNL     1     -44.606 -52.968  13.239  1.00  0.00     0.039 C 
HETATM    6  C   UNL     1     -44.250 -54.448  13.412  1.00  0.00    -0.016 C 
HETATM    7  C   UNL     1     -43.158 -54.631  14.473  1.00  0.00     0.008 C 
HETATM    8  C   UNL     1     -45.508 -55.238  13.771  1.00  0.00     0.010 C 
HETATM    9  C   UNL     1     -41.908 -53.783  14.197  1.00  0.00    -0.016 C 
HETATM   10  C   UNL     1     -41.100 -54.316  13.010  1.00  0.00     0.010 C 
HETATM   11  C   UNL     1     -42.290 -52.310  14.006  1.00  0.00     0.039 C 
ENDBRANCH   2   4
ENDBRANCH   1   2
BRANCH   1  12
HETATM   12  C   UNL     1     -42.648 -48.286  13.132  1.00  0.00     0.285 C 
BRANCH  12  13
HETATM   13  N   UNL     1     -41.544 -47.451  13.711  1.00  0.00     0.090 N 
HETATM   14  C   UNL     1     -41.860 -46.017  13.619  1.00  0.00     0.310 C 
HETATM   15  C   UNL     1     -41.299 -47.760  15.124  1.00  0.00     0.310 C 
ENDBRANCH  12  13
BRANCH  12  16
HETATM   16  C   UNL     1     -42.629 -48.209  11.615  1.00  0.00     0.011 A 
HETATM   17  C   UNL     1     -41.542 -48.517  10.760  1.00  0.00     0.118 A 
HETATM   18  N   UNL     1     -41.804 -48.264   9.474  1.00  0.00    -0.310 N 
HETATM   19  N   UNL     1     -43.061 -47.792   9.495  1.00  0.00    -0.308 N 
ATOM     20  HN  UNL     1     -41.194 -48.398   8.667  1.00  0.00     0.186 HD
HETATM   21  C   UNL     1     -43.696 -47.361   8.273  1.00  0.00     0.177 C 
HETATM   22  C   UNL     1     -43.598 -47.732  10.747  1.00  0.00     0.120 A 
ENDBRANCH  12  16
ENDBRANCH   1  12
TORSDOF 5
ENDMDL
MODEL 8
REMARK VINA RESULT:      -5.6      1.915      3.459
REMARK  5 active torsions:
REMARK  status: ('A' for Active; 'I' for Inactive)
REMARK    1  A    between atoms: C_7  and  N_9 
REMARK    2  A    between atoms: N_9  and  C_10 
REMARK    3  A    between atoms: C_10  and  C_11 
REMARK    4  A    between atoms: C_11  and  N_12 
REMARK    5  A    between atoms: C_11  and  C_15 
ROOT
HETATM    1  C   UNL     1     -42.849 -49.093  13.653  1.00  0.00     0.310 C 
ENDROOT
BRANCH   1   2
HETATM    2  N   UNL     1     -43.196 -50.417  14.201  1.00  0.00     0.090 N 
HETATM    3  H   UNL     1     -42.644 -51.110  13.706  1.00  0.00     0.316 HD
BRANCH   2   4
HETATM    4  C   UNL     1     -44.608 -50.771  13.974  1.00  0.00     0.221 C 
HETATM    5  C   UNL     1     -45.385 -50.913  15.288  1.00  0.00     0.039 C 
HETATM    6  C   UNL     1     -46.816 -51.418  15.072  1.00  0.00    -0.016 C 
HETATM    7  C   UNL     1     -46.822 -52.726  14.272  1.00  0.00     0.008 C 
HETATM    8  C   UNL     1     -47.505 -51.594  16.424  1.00  0.00     0.010 C 
HETATM    9  C   UNL     1     -46.060 -52.618  12.943  1.00  0.00    -0.016 C 
HETATM   10  C   UNL     1     -46.812 -51.770  11.914  1.00  0.00     0.010 C 
HETATM   11  C   UNL     1     -44.639 -52.091  13.181  1.00  0.00     0.039 C 
ENDBRANCH   2   4
ENDBRANCH   1   2
BRANCH   1  12
HETATM   12  C   UNL     1     -42.605 -48.981  12.098  1.00  0.00     0.285 C 
BRANCH  12  13
HETATM   13  N   UNL     1     -42.688 -47.611  11.492  1.00  0.00     0.090 N 
HETATM   14  C   UNL     1     -43.813 -47.516  10.549  1.00  0.00     0.310 C 
HETATM   15  C   UNL     1     -42.871 -46.567  12.507  1.00  0.00     0.310 C 
ENDBRANCH  12  13
BRANCH  12  16
HETATM   16  C   UNL     1     -41.231 -49.583  11.858  1.00  0.00     0.011 A 
HETATM   17  C   UNL     1     -40.897 -50.961  11.843  1.00  0.00     0.118 A 
HETATM   18  N   UNL     1     -39.586 -51.175  11.694  1.00  0.00    -0.310 N 
HETATM   19  N   UNL     1     -39.071 -49.937  11.614  1.00  0.00    -0.308 N 
ATOM     20  HN  UNL     1     -39.093 -52.067  11.652  1.00  0.00     0.186 HD
HETATM   21  C   UNL     1     -37.645 -49.750  11.487  1.00  0.00     0.177 C 
HETATM   22  C   UNL     1     -40.007 -48.952  11.712  1.00  0.00     0.120 A 
ENDBRANCH  12  16
ENDBRANCH   1  12
TORSDOF 5
ENDMDL
MODEL 9
REMARK VINA RESULT:      -5.5      2.104      3.253
REMARK  5 active torsions:
REMARK  status: ('A' for Active; 'I' for Inactive)
REMARK    1  A    between atoms: C_7  and  N_9 
REMARK    2  A    between atoms: N_9  and  C_10 
REMARK    3  A    between atoms: C_10  and  C_11 
REMARK    4  A    between atoms: C_11  and  N_12 
REMARK    5  A    between atoms: C_11  and  C_15 
ROOT
HETATM    1  C   UNL     1     -41.185 -49.980  12.127  1.00  0.00     0.310 C 
ENDROOT
BRANCH   1   2
HETATM    2  N   UNL     1     -41.064 -51.207  11.318  1.00  0.00     0.090 N 
HETATM    3  H   UNL     1     -41.870 -51.252  10.703  1.00  0.00     0.316 HD
BRANCH   2   4
HETATM    4  C   UNL     1     -41.098 -52.431  12.138  1.00  0.00     0.221 C 
HETATM    5  C   UNL     1     -42.531 -52.869  12.462  1.00  0.00     0.039 C 
HETATM    6  C   UNL     1     -42.576 -54.057  13.428  1.00  0.00    -0.016 C 
HETATM    7  C   UNL     1     -41.779 -53.759  14.704  1.00  0.00     0.008 C 
HETATM    8  C   UNL     1     -44.031 -54.395  13.753  1.00  0.00     0.010 C 
HETATM    9  C   UNL     1     -40.334 -53.326  14.417  1.00  0.00    -0.016 C 
HETATM   10  C   UNL     1     -39.468 -54.491  13.928  1.00  0.00     0.010 C 
HETATM   11  C   UNL     1     -40.311 -52.151  13.431  1.00  0.00     0.039 C 
ENDBRANCH   2   4
ENDBRANCH   1   2
BRANCH   1  12
HETATM   12  C   UNL     1     -42.611 -49.314  12.244  1.00  0.00     0.285 C 
BRANCH  12  13
HETATM   13  N   UNL     1     -42.984 -48.731  13.575  1.00  0.00     0.090 N 
HETATM   14  C   UNL     1     -43.214 -49.789  14.572  1.00  0.00     0.310 C 
HETATM   15  C   UNL     1     -41.940 -47.846  14.103  1.00  0.00     0.310 C 
ENDBRANCH  12  13
BRANCH  12  16
HETATM   16  C   UNL     1     -42.650 -48.243  11.168  1.00  0.00     0.011 A 
HETATM   17  C   UNL     1     -41.538 -47.629  10.538  1.00  0.00     0.118 A 
HETATM   18  N   UNL     1     -41.892 -46.655   9.694  1.00  0.00    -0.310 N 
HETATM   19  N   UNL     1     -43.233 -46.637   9.777  1.00  0.00    -0.308 N 
ATOM     20  HN  UNL     1     -41.288 -46.064   9.122  1.00  0.00     0.186 HD
HETATM   21  C   UNL     1     -43.995 -45.670   9.024  1.00  0.00     0.177 C 
HETATM   22  C   UNL     1     -43.735 -47.560  10.646  1.00  0.00     0.120 A 
ENDBRANCH  12  16
ENDBRANCH   1  12
TORSDOF 5
ENDMDL
