MODEL 1
REMARK VINA RESULT:      -6.9      0.000      0.000
REMARK  8 active torsions:
REMARK  status: ('A' for Active; 'I' for Inactive)
REMARK    1  A    between atoms: C_2  and  C_3 
REMARK    2  A    between atoms: C_2  and  N_10 
REMARK    3  A    between atoms: C_3  and  N_4 
REMARK    4  A    between atoms: N_10  and  C_11 
REMARK    5  A    between atoms: C_11  and  C_12 
REMARK    6  A    between atoms: C_12  and  O_13 
REMARK    7  A    between atoms: C_12  and  C_14 
REMARK    8  A    between atoms: C_14  and  N_15 
ROOT
HETATM    1  C   UNL     1     -41.244 -50.132  11.347  1.00  0.00     0.164 C 
ENDROOT
BRANCH   1   2
HETATM    2  C   UNL     1     -41.952 -48.767  11.417  1.00  0.00     0.303 C 
BRANCH   2   3
HETATM    3  N   UNL     1     -41.688 -48.002  10.199  1.00  0.00     0.091 N 
HETATM    4  H   UNL     1     -40.678 -47.937  10.050  1.00  0.00     0.316 HD
BRANCH   3   5
HETATM    5  C   UNL     1     -42.298 -46.662  10.201  1.00  0.00     0.234 C 
HETATM    6  C   UNL     1     -41.188 -45.619  10.364  1.00  0.00     0.044 C 
BRANCH   5   7
HETATM    7  C   UNL     1     -43.170 -46.351   8.959  1.00  0.00     0.160 C 
BRANCH   7   8
HETATM    8  N   UNL     1     -44.328 -47.213   8.755  1.00  0.00    -0.350 N 
HETATM    9  C   UNL     1     -45.520 -47.136   9.558  1.00  0.00     0.126 C 
HETATM   10  C   UNL     1     -46.489 -48.129   8.942  1.00  0.00     0.029 C 
HETATM   11  C   UNL     1     -45.831 -48.630   7.665  1.00  0.00     0.104 C 
HETATM   12  C   UNL     1     -44.410 -48.144   7.740  1.00  0.00     0.219 C 
HETATM   13  O   UNL     1     -43.516 -48.464   6.974  1.00  0.00    -0.273 OA
ENDBRANCH   7   8
ENDBRANCH   5   7
ENDBRANCH   3   5
ENDBRANCH   2   3
ENDBRANCH   1   2
BRANCH   1  14
HETATM   14  O   UNL     1     -40.146 -50.040  10.427  1.00  0.00    -0.392 OA
HETATM   15  H   UNL     1     -40.485 -49.803   9.551  1.00  0.00     0.210 HD
ENDBRANCH   1  14
BRANCH   1  16
HETATM   16  C   UNL     1     -40.761 -50.532  12.745  1.00  0.00     0.163 C 
BRANCH  16  17
HETATM   17  N   UNL     1     -41.220 -51.852  13.120  1.00  0.00    -0.339 N 
HETATM   18  C   UNL     1     -40.442 -52.974  13.131  1.00  0.00     0.184 A 
HETATM   19  N   UNL     1     -41.134 -54.041  13.456  1.00  0.00    -0.350 N 
HETATM   20  C   UNL     1     -42.418 -53.586  13.647  1.00  0.00     0.060 A 
ATOM     21  HN  UNL     1     -40.794 -54.998  13.547  1.00  0.00     0.166 HD
HETATM   22  C   UNL     1     -43.577 -54.305  13.970  1.00  0.00     0.039 A 
HETATM   23  C   UNL     1     -42.498 -52.209  13.473  1.00  0.00     0.062 A 
HETATM   24  C   UNL     1     -44.803 -53.627  14.119  1.00  0.00    -0.054 A 
HETATM   25  C   UNL     1     -46.028 -54.443  14.434  1.00  0.00     0.049 C 
HETATM   26  C   UNL     1     -44.857 -52.225  13.962  1.00  0.00    -0.054 A 
HETATM   27  C   UNL     1     -46.130 -51.437  14.128  1.00  0.00     0.049 C 
HETATM   28  C   UNL     1     -43.692 -51.499  13.631  1.00  0.00     0.039 A 
ENDBRANCH  16  17
ENDBRANCH   1  16
TORSDOF 8
ENDMDL
MODEL 2
REMARK VINA RESULT:      -6.8      3.968      5.955
REMARK  8 active torsions:
REMARK  status: ('A' for Active; 'I' for Inactive)
REMARK    1  A    between atoms: C_2  and  C_3 
REMARK    2  A    between atoms: C_2  and  N_10 
REMARK    3  A    between atoms: C_3  and  N_4 
REMARK    4  A    between atoms: N_10  and  C_11 
REMARK    5  A    between atoms: C_11  and  C_12 
REMARK    6  A    between atoms: C_12  and  O_13 
REMARK    7  A    between atoms: C_12  and  C_14 
REMARK    8  A    between atoms: C_14  and  N_15 
ROOT
HETATM    1  C   UNL     1     -39.663 -53.898  13.689  1.00  0.00     0.164 C 
ENDROOT
BRANCH   1   2
HETATM    2  C   UNL     1     -39.898 -54.066  15.201  1.00  0.00     0.303 C 
BRANCH   2   3
HETATM    3  N   UNL     1     -39.297 -52.948  15.928  1.00  0.00     0.091 N 
HETATM    4  H   UNL     1     -39.582 -52.989  16.910  1.00  0.00     0.316 HD
BRANCH   3   5
HETATM    5  C   UNL     1     -39.613 -51.631  15.352  1.00  0.00     0.234 C 
HETATM    6  C   UNL     1     -40.501 -50.866  16.338  1.00  0.00     0.044 C 
BRANCH   5   7
HETATM    7  C   UNL     1     -38.374 -50.789  14.956  1.00  0.00     0.160 C 
BRANCH   7   8
HETATM    8  N   UNL     1     -38.354 -50.281  13.589  1.00  0.00    -0.350 N 
HETATM    9  C   UNL     1     -39.050 -49.090  13.179  1.00  0.00     0.126 C 
HETATM   10  C   UNL     1     -38.677 -48.883  11.723  1.00  0.00     0.029 C 
HETATM   11  C   UNL     1     -37.612 -49.923  11.404  1.00  0.00     0.104 C 
HETATM   12  C   UNL     1     -37.622 -50.864  12.575  1.00  0.00     0.219 C 
HETATM   13  O   UNL     1     -37.013 -51.921  12.634  1.00  0.00    -0.273 OA
ENDBRANCH   7   8
ENDBRANCH   5   7
ENDBRANCH   3   5
ENDBRANCH   2   3
ENDBRANCH   1   2
BRANCH   1  14
HETATM   14  O   UNL     1     -38.576 -54.746  13.289  1.00  0.00    -0.392 OA
HETATM   15  H   UNL     1     -38.927 -55.502  12.796  1.00  0.00     0.210 HD
ENDBRANCH   1  14
BRANCH   1  16
HETATM   16  C   UNL     1     -40.946 -54.250  12.929  1.00  0.00     0.163 C 
BRANCH  16  17
HETATM   17  N   UNL     1     -41.817 -53.104  12.776  1.00  0.00    -0.339 N 
HETATM   18  C   UNL     1     -41.481 -51.950  12.127  1.00  0.00     0.184 A 
HETATM   19  N   UNL     1     -42.442 -51.059  12.193  1.00  0.00    -0.350 N 
HETATM   20  C   UNL     1     -43.434 -51.661  12.932  1.00  0.00     0.060 A 
ATOM     21  HN  UNL     1     -42.451 -50.124  11.786  1.00  0.00     0.166 HD
HETATM   22  C   UNL     1     -44.671 -51.148  13.344  1.00  0.00     0.039 A 
HETATM   23  C   UNL     1     -43.083 -52.959  13.287  1.00  0.00     0.062 A 
HETATM   24  C   UNL     1     -45.544 -51.951  14.105  1.00  0.00    -0.054 A 
HETATM   25  C   UNL     1     -46.848 -51.348  14.552  1.00  0.00     0.049 C 
HETATM   26  C   UNL     1     -45.178 -53.274  14.433  1.00  0.00    -0.054 A 
HETATM   27  C   UNL     1     -46.073 -54.193  15.225  1.00  0.00     0.049 C 
HETATM   28  C   UNL     1     -43.930 -53.792  14.024  1.00  0.00     0.039 A 
ENDBRANCH  16  17
ENDBRANCH   1  16
TORSDOF 8
ENDMDL
MODEL 3
REMARK VINA RESULT:      -6.8      3.688      5.639
REMARK  8 active torsions:
REMARK  status: ('A' for Active; 'I' for Inactive)
REMARK    1  A    between atoms: C_2  and  C_3 
REMARK    2  A    between atoms: C_2  and  N_10 
REMARK    3  A    between atoms: C_3  and  N_4 
REMARK    4  A    between atoms: N_10  and  C_11 
REMARK    5  A    between atoms: C_11  and  C_12 
REMARK    6  A    between atoms: C_12  and  O_13 
REMARK    7  A    between atoms: C_12  and  C_14 
REMARK    8  A    between atoms: C_14  and  N_15 
ROOT
HETATM    1  C   UNL     1     -41.875 -52.448  12.056  1.00  0.00     0.164 C 
ENDROOT
BRANCH   1   2
HETATM    2  C   UNL     1     -41.571 -50.940  12.102  1.00  0.00     0.303 C 
BRANCH   2   3
HETATM    3  N   UNL     1     -40.515 -50.612  11.144  1.00  0.00     0.091 N 
HETATM    4  H   UNL     1     -39.838 -51.379  11.108  1.00  0.00     0.316 HD
BRANCH   3   5
HETATM    5  C   UNL     1     -39.838 -49.337  11.427  1.00  0.00     0.234 C 
HETATM    6  C   UNL     1     -40.626 -48.593  12.510  1.00  0.00     0.044 C 
BRANCH   5   7
HETATM    7  C   UNL     1     -38.347 -49.476  11.826  1.00  0.00     0.160 C 
BRANCH   7   8
HETATM    8  N   UNL     1     -38.083 -49.804  13.221  1.00  0.00    -0.350 N 
HETATM    9  C   UNL     1     -37.687 -48.826  14.201  1.00  0.00     0.126 C 
HETATM   10  C   UNL     1     -37.621 -49.576  15.519  1.00  0.00     0.029 C 
HETATM   11  C   UNL     1     -38.163 -50.971  15.243  1.00  0.00     0.104 C 
HETATM   12  C   UNL     1     -38.242 -51.070  13.745  1.00  0.00     0.219 C 
HETATM   13  O   UNL     1     -38.489 -52.089  13.120  1.00  0.00    -0.273 OA
ENDBRANCH   7   8
ENDBRANCH   5   7
ENDBRANCH   3   5
ENDBRANCH   2   3
ENDBRANCH   1   2
BRANCH   1  14
HETATM   14  O   UNL     1     -40.740 -53.137  11.510  1.00  0.00    -0.392 OA
HETATM   15  H   UNL     1     -40.598 -52.840  10.598  1.00  0.00     0.210 HD
ENDBRANCH   1  14
BRANCH   1  16
HETATM   16  C   UNL     1     -42.198 -52.950  13.468  1.00  0.00     0.163 C 
BRANCH  16  17
HETATM   17  N   UNL     1     -43.615 -53.183  13.649  1.00  0.00    -0.339 N 
HETATM   18  C   UNL     1     -44.359 -54.066  12.921  1.00  0.00     0.184 A 
HETATM   19  N   UNL     1     -45.626 -54.029  13.260  1.00  0.00    -0.350 N 
HETATM   20  C   UNL     1     -45.702 -53.066  14.239  1.00  0.00     0.060 A 
ATOM     21  HN  UNL     1     -46.388 -54.591  12.880  1.00  0.00     0.166 HD
HETATM   22  C   UNL     1     -46.824 -52.586  14.928  1.00  0.00     0.039 A 
HETATM   23  C   UNL     1     -44.450 -52.537  14.527  1.00  0.00     0.062 A 
HETATM   24  C   UNL     1     -46.670 -51.582  15.905  1.00  0.00    -0.054 A 
HETATM   25  C   UNL     1     -47.906 -51.074  16.597  1.00  0.00     0.049 C 
HETATM   26  C   UNL     1     -45.385 -51.076  16.199  1.00  0.00    -0.054 A 
HETATM   27  C   UNL     1     -45.148 -50.019  17.245  1.00  0.00     0.049 C 
HETATM   28  C   UNL     1     -44.253 -51.554  15.502  1.00  0.00     0.039 A 
ENDBRANCH  16  17
ENDBRANCH   1  16
TORSDOF 8
ENDMDL
MODEL 4
REMARK VINA RESULT:      -6.8      2.739      7.057
REMARK  8 active torsions:
REMARK  status: ('A' for Active; 'I' for Inactive)
REMARK    1  A    between atoms: C_2  and  C_3 
REMARK    2  A    between atoms: C_2  and  N_10 
REMARK    3  A    between atoms: C_3  and  N_4 
REMARK    4  A    between atoms: N_10  and  C_11 
REMARK    5  A    between atoms: C_11  and  C_12 
REMARK    6  A    between atoms: C_12  and  O_13 
REMARK    7  A    between atoms: C_12  and  C_14 
REMARK    8  A    between atoms: C_14  and  N_15 
ROOT
HETATM    1  C   UNL     1     -40.797 -52.691  12.581  1.00  0.00     0.164 C 
ENDROOT
BRANCH   1   2
HETATM    2  C   UNL     1     -41.591 -53.284  13.759  1.00  0.00     0.303 C 
BRANCH   2   3
HETATM    3  N   UNL     1     -42.967 -53.559  13.349  1.00  0.00     0.091 N 
HETATM    4  H   UNL     1     -43.552 -52.744  13.550  1.00  0.00     0.316 HD
BRANCH   3   5
HETATM    5  C   UNL     1     -43.535 -54.769  13.966  1.00  0.00     0.234 C 
HETATM    6  C   UNL     1     -43.015 -54.877  15.402  1.00  0.00     0.044 C 
BRANCH   5   7
HETATM    7  C   UNL     1     -45.083 -54.841  13.932  1.00  0.00     0.160 C 
BRANCH   7   8
HETATM    8  N   UNL     1     -45.789 -53.584  14.148  1.00  0.00    -0.350 N 
HETATM    9  C   UNL     1     -46.212 -53.128  15.446  1.00  0.00     0.126 C 
HETATM   10  C   UNL     1     -46.806 -51.751  15.219  1.00  0.00     0.029 C 
HETATM   11  C   UNL     1     -46.535 -51.404  13.763  1.00  0.00     0.104 C 
HETATM   12  C   UNL     1     -46.068 -52.688  13.136  1.00  0.00     0.219 C 
HETATM   13  O   UNL     1     -45.891 -52.863  11.941  1.00  0.00    -0.273 OA
ENDBRANCH   7   8
ENDBRANCH   5   7
ENDBRANCH   3   5
ENDBRANCH   2   3
ENDBRANCH   1   2
BRANCH   1  14
HETATM   14  O   UNL     1     -40.723 -53.666  11.530  1.00  0.00    -0.392 OA
HETATM   15  H   UNL     1     -41.338 -54.389  11.725  1.00  0.00     0.210 HD
ENDBRANCH   1  14
BRANCH   1  16
HETATM   16  C   UNL     1     -41.479 -51.407  12.097  1.00  0.00     0.163 C 
BRANCH  16  17
HETATM   17  N   UNL     1     -40.573 -50.279  12.097  1.00  0.00    -0.339 N 
HETATM   18  C   UNL     1     -39.337 -50.271  12.679  1.00  0.00     0.184 A 
HETATM   19  N   UNL     1     -38.759 -49.098  12.575  1.00  0.00    -0.350 N 
HETATM   20  C   UNL     1     -39.671 -48.311  11.911  1.00  0.00     0.060 A 
ATOM     21  HN  UNL     1     -37.835 -48.828  12.913  1.00  0.00     0.166 HD
HETATM   22  C   UNL     1     -39.591 -46.955  11.567  1.00  0.00     0.039 A 
HETATM   23  C   UNL     1     -40.809 -49.033  11.570  1.00  0.00     0.062 A 
HETATM   24  C   UNL     1     -40.657 -46.342  10.878  1.00  0.00    -0.054 A 
HETATM   25  C   UNL     1     -40.542 -44.877  10.558  1.00  0.00     0.049 C 
HETATM   26  C   UNL     1     -41.793 -47.101  10.521  1.00  0.00    -0.054 A 
HETATM   27  C   UNL     1     -42.958 -46.514   9.765  1.00  0.00     0.049 C 
HETATM   28  C   UNL     1     -41.879 -48.467  10.870  1.00  0.00     0.039 A 
ENDBRANCH  16  17
ENDBRANCH   1  16
TORSDOF 8
ENDMDL
MODEL 5
REMARK VINA RESULT:      -6.6      1.971      2.598
REMARK  8 active torsions:
REMARK  status: ('A' for Active; 'I' for Inactive)
REMARK    1  A    between atoms: C_2  and  C_3 
REMARK    2  A    between atoms: C_2  and  N_10 
REMARK    3  A    between atoms: C_3  and  N_4 
REMARK    4  A    between atoms: N_10  and  C_11 
REMARK    5  A    between atoms: C_11  and  C_12 
REMARK    6  A    between atoms: C_12  and  O_13 
REMARK    7  A    between atoms: C_12  and  C_14 
REMARK    8  A    between atoms: C_14  and  N_15 
ROOT
HETATM    1  C   UNL     1     -40.680 -49.698  11.613  1.00  0.00     0.164 C 
ENDROOT
BRANCH   1   2
HETATM    2  C   UNL     1     -39.810 -48.528  12.108  1.00  0.00     0.303 C 
BRANCH   2   3
HETATM    3  N   UNL     1     -39.652 -47.537  11.045  1.00  0.00     0.091 N 
HETATM    4  H   UNL     1     -38.663 -47.466  10.789  1.00  0.00     0.316 HD
BRANCH   3   5
HETATM    5  C   UNL     1     -40.192 -46.212  11.389  1.00  0.00     0.234 C 
HETATM    6  C   UNL     1     -39.776 -45.215  10.303  1.00  0.00     0.044 C 
BRANCH   5   7
HETATM    7  C   UNL     1     -41.726 -46.181  11.609  1.00  0.00     0.160 C 
BRANCH   7   8
HETATM    8  N   UNL     1     -42.549 -46.313  10.412  1.00  0.00    -0.350 N 
HETATM    9  C   UNL     1     -42.788 -47.569   9.753  1.00  0.00     0.126 C 
HETATM   10  C   UNL     1     -43.763 -47.261   8.632  1.00  0.00     0.029 C 
HETATM   11  C   UNL     1     -44.176 -45.808   8.815  1.00  0.00     0.104 C 
HETATM   12  C   UNL     1     -43.220 -45.255   9.834  1.00  0.00     0.219 C 
HETATM   13  O   UNL     1     -43.125 -44.078  10.144  1.00  0.00    -0.273 OA
ENDBRANCH   7   8
ENDBRANCH   5   7
ENDBRANCH   3   5
ENDBRANCH   2   3
ENDBRANCH   1   2
BRANCH   1  14
HETATM   14  O   UNL     1     -40.213 -50.112  10.320  1.00  0.00    -0.392 OA
HETATM   15  H   UNL     1     -39.363 -50.566  10.420  1.00  0.00     0.210 HD
ENDBRANCH   1  14
BRANCH   1  16
HETATM   16  C   UNL     1     -40.611 -50.850  12.621  1.00  0.00     0.163 C 
BRANCH  16  17
HETATM   17  N   UNL     1     -41.862 -51.574  12.701  1.00  0.00    -0.339 N 
HETATM   18  C   UNL     1     -42.237 -52.579  11.856  1.00  0.00     0.184 A 
HETATM   19  N   UNL     1     -43.444 -53.016  12.127  1.00  0.00    -0.350 N 
HETATM   20  C   UNL     1     -43.871 -52.246  13.184  1.00  0.00     0.060 A 
ATOM     21  HN  UNL     1     -43.955 -53.763  11.657  1.00  0.00     0.166 HD
HETATM   22  C   UNL     1     -45.103 -52.256  13.851  1.00  0.00     0.039 A 
HETATM   23  C   UNL     1     -42.887 -51.351  13.587  1.00  0.00     0.062 A 
HETATM   24  C   UNL     1     -45.328 -51.367  14.921  1.00  0.00    -0.054 A 
HETATM   25  C   UNL     1     -46.677 -51.391  15.587  1.00  0.00     0.049 C 
HETATM   26  C   UNL     1     -44.306 -50.484  15.330  1.00  0.00    -0.054 A 
HETATM   27  C   UNL     1     -44.473 -49.524  16.480  1.00  0.00     0.049 C 
HETATM   28  C   UNL     1     -43.065 -50.468  14.657  1.00  0.00     0.039 A 
ENDBRANCH  16  17
ENDBRANCH   1  16
TORSDOF 8
ENDMDL
MODEL 6
REMARK VINA RESULT:      -6.5      3.014      4.527
REMARK  8 active torsions:
REMARK  status: ('A' for Active; 'I' for Inactive)
REMARK    1  A    between atoms: C_2  and  C_3 
REMARK    2  A    between atoms: C_2  and  N_10 
REMARK    3  A    between atoms: C_3  and  N_4 
REMARK    4  A    between atoms: N_10  and  C_11 
REMARK    5  A    between atoms: C_11  and  C_12 
REMARK    6  A    between atoms: C_12  and  O_13 
REMARK    7  A    between atoms: C_12  and  C_14 
REMARK    8  A    between atoms: C_14  and  N_15 
ROOT
HETATM    1  C   UNL     1     -41.353 -52.049  11.904  1.00  0.00     0.164 C 
ENDROOT
BRANCH   1   2
HETATM    2  C   UNL     1     -40.399 -50.841  11.872  1.00  0.00     0.303 C 
BRANCH   2   3
HETATM    3  N   UNL     1     -40.642 -50.041  10.671  1.00  0.00     0.091 N 
HETATM    4  H   UNL     1     -39.837 -50.116  10.044  1.00  0.00     0.316 HD
BRANCH   3   5
HETATM    5  C   UNL     1     -40.947 -48.630  10.954  1.00  0.00     0.234 C 
HETATM    6  C   UNL     1     -42.364 -48.540  11.530  1.00  0.00     0.044 C 
BRANCH   5   7
HETATM    7  C   UNL     1     -39.927 -47.926  11.885  1.00  0.00     0.160 C 
BRANCH   7   8
HETATM    8  N   UNL     1     -39.867 -46.472  11.789  1.00  0.00    -0.350 N 
HETATM    9  C   UNL     1     -40.071 -45.753  10.559  1.00  0.00     0.126 C 
HETATM   10  C   UNL     1     -40.021 -44.284  10.934  1.00  0.00     0.029 C 
HETATM   11  C   UNL     1     -39.949 -44.235  12.453  1.00  0.00     0.104 C 
HETATM   12  C   UNL     1     -39.666 -45.649  12.877  1.00  0.00     0.219 C 
HETATM   13  O   UNL     1     -39.389 -46.000  14.013  1.00  0.00    -0.273 OA
ENDBRANCH   7   8
ENDBRANCH   5   7
ENDBRANCH   3   5
ENDBRANCH   2   3
ENDBRANCH   1   2
BRANCH   1  14
HETATM   14  O   UNL     1     -40.659 -53.203  11.406  1.00  0.00    -0.392 OA
HETATM   15  H   UNL     1     -41.307 -53.877  11.150  1.00  0.00     0.210 HD
ENDBRANCH   1  14
BRANCH   1  16
HETATM   16  C   UNL     1     -41.846 -52.275  13.336  1.00  0.00     0.163 C 
BRANCH  16  17
HETATM   17  N   UNL     1     -43.265 -52.559  13.382  1.00  0.00    -0.339 N 
HETATM   18  C   UNL     1     -43.941 -53.305  12.459  1.00  0.00     0.184 A 
HETATM   19  N   UNL     1     -45.226 -53.350  12.718  1.00  0.00    -0.350 N 
HETATM   20  C   UNL     1     -45.386 -52.585  13.850  1.00  0.00     0.060 A 
ATOM     21  HN  UNL     1     -45.949 -53.844  12.195  1.00  0.00     0.166 HD
HETATM   22  C   UNL     1     -46.559 -52.256  14.543  1.00  0.00     0.039 A 
HETATM   23  C   UNL     1     -44.167 -52.099  14.308  1.00  0.00     0.062 A 
HETATM   24  C   UNL     1     -46.490 -51.447  15.694  1.00  0.00    -0.054 A 
HETATM   25  C   UNL     1     -47.778 -51.093  16.387  1.00  0.00     0.049 C 
HETATM   26  C   UNL     1     -45.239 -50.984  16.156  1.00  0.00    -0.054 A 
HETATM   27  C   UNL     1     -45.092 -50.133  17.391  1.00  0.00     0.049 C 
HETATM   28  C   UNL     1     -44.055 -51.309  15.457  1.00  0.00     0.039 A 
ENDBRANCH  16  17
ENDBRANCH   1  16
TORSDOF 8
ENDMDL
MODEL 7
REMARK VINA RESULT:      -6.4      1.688      3.365
REMARK  8 active torsions:
REMARK  status: ('A' for Active; 'I' for Inactive)
REMARK    1  A    between atoms: C_2  and  C_3 
REMARK    2  A    between atoms: C_2  and  N_10 
REMARK    3  A    between atoms: C_3  and  N_4 
REMARK    4  A    between atoms: N_10  and  C_11 
REMARK    5  A    between atoms: C_11  and  C_12 
REMARK    6  A    between atoms: C_12  and  O_13 
REMARK    7  A    between atoms: C_12  and  C_14 
REMARK    8  A    between atoms: C_14  and  N_15 
ROOT
HETATM    1  C   UNL     1     -40.863 -50.211  11.333  1.00  0.00     0.164 C 
ENDROOT
BRANCH   1   2
HETATM    2  C   UNL     1     -41.759 -48.960  11.308  1.00  0.00     0.303 C 
BRANCH   2   3
HETATM    3  N   UNL     1     -41.795 -48.396   9.959  1.00  0.00     0.091 N 
HETATM    4  H   UNL     1     -40.839 -48.277   9.615  1.00  0.00     0.316 HD
BRANCH   3   5
HETATM    5  C   UNL     1     -42.539 -47.129   9.870  1.00  0.00     0.234 C 
HETATM    6  C   UNL     1     -43.911 -47.408   9.249  1.00  0.00     0.044 C 
BRANCH   5   7
HETATM    7  C   UNL     1     -42.684 -46.372  11.215  1.00  0.00     0.160 C 
BRANCH   7   8
HETATM    8  N   UNL     1     -41.699 -45.330  11.475  1.00  0.00    -0.350 N 
HETATM    9  C   UNL     1     -40.469 -45.566  12.185  1.00  0.00     0.126 C 
HETATM   10  C   UNL     1     -39.714 -44.250  12.137  1.00  0.00     0.029 C 
HETATM   11  C   UNL     1     -40.513 -43.334  11.222  1.00  0.00     0.104 C 
HETATM   12  C   UNL     1     -41.827 -44.035  11.017  1.00  0.00     0.219 C 
HETATM   13  O   UNL     1     -42.802 -43.554  10.462  1.00  0.00    -0.273 OA
ENDBRANCH   7   8
ENDBRANCH   5   7
ENDBRANCH   3   5
ENDBRANCH   2   3
ENDBRANCH   1   2
BRANCH   1  14
HETATM   14  O   UNL     1     -39.613 -49.902  10.699  1.00  0.00    -0.392 OA
HETATM   15  H   UNL     1     -39.785 -49.569   9.805  1.00  0.00     0.210 HD
ENDBRANCH   1  14
BRANCH   1  16
HETATM   16  C   UNL     1     -40.651 -50.661  12.782  1.00  0.00     0.163 C 
BRANCH  16  17
HETATM   17  N   UNL     1     -41.168 -51.992  13.017  1.00  0.00    -0.339 N 
HETATM   18  C   UNL     1     -40.455 -53.146  12.857  1.00  0.00     0.184 A 
HETATM   19  N   UNL     1     -41.192 -54.208  13.084  1.00  0.00    -0.350 N 
HETATM   20  C   UNL     1     -42.439 -53.715  13.389  1.00  0.00     0.060 A 
ATOM     21  HN  UNL     1     -40.903 -55.185  13.044  1.00  0.00     0.166 HD
HETATM   22  C   UNL     1     -43.622 -54.408  13.678  1.00  0.00     0.039 A 
HETATM   23  C   UNL     1     -42.448 -52.325  13.385  1.00  0.00     0.062 A 
HETATM   24  C   UNL     1     -44.802 -53.692  13.965  1.00  0.00    -0.054 A 
HETATM   25  C   UNL     1     -46.056 -54.476  14.238  1.00  0.00     0.049 C 
HETATM   26  C   UNL     1     -44.783 -52.280  13.980  1.00  0.00    -0.054 A 
HETATM   27  C   UNL     1     -46.002 -51.454  14.300  1.00  0.00     0.049 C 
HETATM   28  C   UNL     1     -43.593 -51.579  13.684  1.00  0.00     0.039 A 
ENDBRANCH  16  17
ENDBRANCH   1  16
TORSDOF 8
ENDMDL
MODEL 8
REMARK VINA RESULT:      -6.2      2.361      7.523
REMARK  8 active torsions:
REMARK  status: ('A' for Active; 'I' for Inactive)
REMARK    1  A    between atoms: C_2  and  C_3 
REMARK    2  A    between atoms: C_2  and  N_10 
REMARK    3  A    between atoms: C_3  and  N_4 
REMARK    4  A    between atoms: N_10  and  C_11 
REMARK    5  A    between atoms: C_11  and  C_12 
REMARK    6  A    between atoms: C_12  and  O_13 
REMARK    7  A    between atoms: C_12  and  C_14 
REMARK    8  A    between atoms: C_14  and  N_15 
ROOT
HETATM    1  C   UNL     1     -41.586 -50.031  11.870  1.00  0.00     0.164 C 
ENDROOT
BRANCH   1   2
HETATM    2  C   UNL     1     -40.756 -51.307  12.103  1.00  0.00     0.303 C 
BRANCH   2   3
HETATM    3  N   UNL     1     -41.466 -52.471  11.575  1.00  0.00     0.091 N 
HETATM    4  H   UNL     1     -42.265 -52.158  11.017  1.00  0.00     0.316 HD
BRANCH   3   5
HETATM    5  C   UNL     1     -41.900 -53.418  12.615  1.00  0.00     0.234 C 
HETATM    6  C   UNL     1     -40.667 -54.136  13.170  1.00  0.00     0.044 C 
BRANCH   5   7
HETATM    7  C   UNL     1     -42.730 -52.781  13.758  1.00  0.00     0.160 C 
BRANCH   7   8
HETATM    8  N   UNL     1     -44.091 -52.383  13.419  1.00  0.00    -0.350 N 
HETATM    9  C   UNL     1     -44.932 -53.131  12.522  1.00  0.00     0.126 C 
HETATM   10  C   UNL     1     -46.274 -52.423  12.538  1.00  0.00     0.029 C 
HETATM   11  C   UNL     1     -46.178 -51.353  13.616  1.00  0.00     0.104 C 
HETATM   12  C   UNL     1     -44.719 -51.285  13.970  1.00  0.00     0.219 C 
HETATM   13  O   UNL     1     -44.209 -50.443  14.692  1.00  0.00    -0.273 OA
ENDBRANCH   7   8
ENDBRANCH   5   7
ENDBRANCH   3   5
ENDBRANCH   2   3
ENDBRANCH   1   2
BRANCH   1  14
HETATM   14  O   UNL     1     -41.845 -49.406  13.136  1.00  0.00    -0.392 OA
HETATM   15  H   UNL     1     -42.295 -48.561  12.987  1.00  0.00     0.210 HD
ENDBRANCH   1  14
BRANCH   1  16
HETATM   16  C   UNL     1     -40.825 -49.088  10.933  1.00  0.00     0.163 C 
BRANCH  16  17
HETATM   17  N   UNL     1     -41.536 -47.845  10.723  1.00  0.00    -0.339 N 
HETATM   18  C   UNL     1     -42.694 -47.720  10.010  1.00  0.00     0.184 A 
HETATM   19  N   UNL     1     -43.085 -46.470   9.933  1.00  0.00    -0.350 N 
HETATM   20  C   UNL     1     -42.126 -45.757  10.615  1.00  0.00     0.060 A 
ATOM     21  HN  UNL     1     -43.918 -46.106   9.471  1.00  0.00     0.166 HD
HETATM   22  C   UNL     1     -42.020 -44.374  10.814  1.00  0.00     0.039 A 
HETATM   23  C   UNL     1     -41.155 -46.596  11.149  1.00  0.00     0.062 A 
HETATM   24  C   UNL     1     -40.940 -43.852  11.553  1.00  0.00    -0.054 A 
HETATM   25  C   UNL     1     -40.850 -42.359  11.714  1.00  0.00     0.049 C 
HETATM   26  C   UNL     1     -39.979 -44.725  12.107  1.00  0.00    -0.054 A 
HETATM   27  C   UNL     1     -38.813 -44.236  12.926  1.00  0.00     0.049 C 
HETATM   28  C   UNL     1     -40.080 -46.119  11.904  1.00  0.00     0.039 A 
ENDBRANCH  16  17
ENDBRANCH   1  16
TORSDOF 8
ENDMDL
MODEL 9
REMARK VINA RESULT:      -6.2      3.740      6.105
REMARK  8 active torsions:
REMARK  status: ('A' for Active; 'I' for Inactive)
REMARK    1  A    between atoms: C_2  and  C_3 
REMARK    2  A    between atoms: C_2  and  N_10 
REMARK    3  A    between atoms: C_3  and  N_4 
REMARK    4  A    between atoms: N_10  and  C_11 
REMARK    5  A    between atoms: C_11  and  C_12 
REMARK    6  A    between atoms: C_12  and  O_13 
REMARK    7  A    between atoms: C_12  and  C_14 
REMARK    8  A    between atoms: C_14  and  N_15 
ROOT
HETATM    1  C   UNL     1     -39.776 -49.755  13.388  1.00  0.00     0.164 C 
ENDROOT
BRANCH   1   2
HETATM    2  C   UNL     1     -39.194 -51.140  13.057  1.00  0.00     0.303 C 
BRANCH   2   3
HETATM    3  N   UNL     1     -39.279 -52.013  14.227  1.00  0.00     0.091 N 
HETATM    4  H   UNL     1     -38.336 -52.271  14.530  1.00  0.00     0.316 HD
BRANCH   3   5
HETATM    5  C   UNL     1     -40.098 -53.216  14.007  1.00  0.00     0.234 C 
HETATM    6  C   UNL     1     -39.180 -54.442  14.014  1.00  0.00     0.044 C 
BRANCH   5   7
HETATM    7  C   UNL     1     -41.264 -53.393  15.013  1.00  0.00     0.160 C 
BRANCH   7   8
HETATM    8  N   UNL     1     -42.544 -53.802  14.446  1.00  0.00    -0.350 N 
HETATM    9  C   UNL     1     -42.787 -53.895  13.031  1.00  0.00     0.126 C 
HETATM   10  C   UNL     1     -44.195 -54.446  12.897  1.00  0.00     0.029 C 
HETATM   11  C   UNL     1     -44.646 -54.808  14.304  1.00  0.00     0.104 C 
HETATM   12  C   UNL     1     -43.622 -54.191  15.214  1.00  0.00     0.219 C 
HETATM   13  O   UNL     1     -43.708 -54.129  16.430  1.00  0.00    -0.273 OA
ENDBRANCH   7   8
ENDBRANCH   5   7
ENDBRANCH   3   5
ENDBRANCH   2   3
ENDBRANCH   1   2
BRANCH   1  14
HETATM   14  O   UNL     1     -39.055 -48.757  12.648  1.00  0.00    -0.392 OA
HETATM   15  H   UNL     1     -38.274 -49.165  12.244  1.00  0.00     0.210 HD
ENDBRANCH   1  14
BRANCH   1  16
HETATM   16  C   UNL     1     -41.268 -49.728  13.041  1.00  0.00     0.163 C 
BRANCH  16  17
HETATM   17  N   UNL     1     -42.100 -49.892  14.214  1.00  0.00    -0.339 N 
HETATM   18  C   UNL     1     -41.693 -49.659  15.496  1.00  0.00     0.184 A 
HETATM   19  N   UNL     1     -42.636 -49.944  16.364  1.00  0.00    -0.350 N 
HETATM   20  C   UNL     1     -43.691 -50.396  15.604  1.00  0.00     0.060 A 
ATOM     21  HN  UNL     1     -42.596 -49.852  17.378  1.00  0.00     0.166 HD
HETATM   22  C   UNL     1     -44.942 -50.873  16.017  1.00  0.00     0.039 A 
HETATM   23  C   UNL     1     -43.395 -50.346  14.247  1.00  0.00     0.062 A 
HETATM   24  C   UNL     1     -45.885 -51.290  15.055  1.00  0.00    -0.054 A 
HETATM   25  C   UNL     1     -47.203 -51.826  15.544  1.00  0.00     0.049 C 
HETATM   26  C   UNL     1     -45.572 -51.208  13.681  1.00  0.00    -0.054 A 
HETATM   27  C   UNL     1     -46.541 -51.616  12.602  1.00  0.00     0.049 C 
HETATM   28  C   UNL     1     -44.310 -50.732  13.263  1.00  0.00     0.039 A 
ENDBRANCH  16  17
ENDBRANCH   1  16
TORSDOF 8
ENDMDL
