MODEL 1
REMARK VINA RESULT:      -5.0      0.000      0.000
REMARK  5 active torsions:
REMARK  status: ('A' for Active; 'I' for Inactive)
REMARK    1  A    between atoms: C_2  and  O_3 
REMARK    2  A    between atoms: O_3  and  C_4 
REMARK    3  A    between atoms: C_4  and  C_5 
REMARK    4  A    between atoms: C_5  and  N_6 
REMARK    5  A    between atoms: C_7  and  N_8 
ROOT
HETATM    1  N   UNL     1     -42.472 -46.141  10.381  1.00  0.00    -0.288 N 
HETATM    2  C   UNL     1     -43.398 -45.549   9.522  1.00  0.00     0.089 A 
HETATM    3  C   UNL     1     -43.890 -46.267   8.500  1.00  0.00     0.116 A 
HETATM    4  C   UNL     1     -43.464 -47.649   8.273  1.00  0.00     0.252 A 
HETATM    5  O   UNL     1     -43.917 -48.307   7.344  1.00  0.00    -0.268 OA
HETATM    6  N   UNL     1     -42.558 -48.137   9.153  1.00  0.00    -0.275 N 
HETATM    7  C   UNL     1     -42.065 -47.466  10.230  1.00  0.00     0.330 A 
HETATM    8  O   UNL     1     -41.294 -48.045  10.994  1.00  0.00    -0.246 OA
HETATM    9  H   UNL     1     -42.250 -49.089   9.031  1.00  0.00     0.173 HD
ENDROOT
BRANCH   1  10
HETATM   10  C   UNL     1     -41.858 -45.401  11.492  1.00  0.00     0.161 C 
BRANCH  10  11
HETATM   11  C   UNL     1     -40.566 -44.675  11.098  1.00  0.00     0.188 C 
BRANCH  11  12
HETATM   12  O   UNL     1     -40.888 -43.410  10.510  1.00  0.00    -0.390 OA
BRANCH  12  13
HETATM   13  C   UNL     1     -41.295 -42.477  11.511  1.00  0.00     0.163 C 
HETATM   14  C   UNL     1     -40.109 -42.155  12.395  1.00  0.00     0.033 C 
ENDBRANCH  12  13
ENDBRANCH  11  12
ENDBRANCH  10  11
ENDBRANCH   1  10
BRANCH   2  15
HETATM   15  N   UNL     1     -43.841 -44.248   9.687  1.00  0.00    -0.288 NA
HETATM   16  H   UNL     1     -43.087 -43.577   9.793  1.00  0.00     0.125 HD
HETATM   17  H   UNL     1     -44.520 -44.136  10.436  1.00  0.00     0.125 HD
ENDBRANCH   2  15
TORSDOF 5
ENDMDL
MODEL 2
REMARK VINA RESULT:      -4.8      8.128      9.776
REMARK  5 active torsions:
REMARK  status: ('A' for Active; 'I' for Inactive)
REMARK    1  A    between atoms: C_2  and  O_3 
REMARK    2  A    between atoms: O_3  and  C_4 
REMARK    3  A    between atoms: C_4  and  C_5 
REMARK    4  A    between atoms: C_5  and  N_6 
REMARK    5  A    between atoms: C_7  and  N_8 
ROOT
HETATM    1  N   UNL     1     -44.355 -54.334  13.595  1.00  0.00    -0.288 N 
HETATM    2  C   UNL     1     -43.150 -54.664  14.216  1.00  0.00     0.089 A 
HETATM    3  C   UNL     1     -42.012 -54.116  13.762  1.00  0.00     0.116 A 
HETATM    4  C   UNL     1     -42.020 -53.190  12.628  1.00  0.00     0.252 A 
HETATM    5  O   UNL     1     -40.982 -52.684  12.216  1.00  0.00    -0.268 OA
HETATM    6  N   UNL     1     -43.233 -52.935  12.085  1.00  0.00    -0.275 N 
HETATM    7  C   UNL     1     -44.418 -53.428  12.538  1.00  0.00     0.330 A 
HETATM    8  O   UNL     1     -45.462 -53.068  11.996  1.00  0.00    -0.246 OA
HETATM    9  H   UNL     1     -43.275 -52.294  11.307  1.00  0.00     0.173 HD
ENDROOT
BRANCH   1  10
HETATM   10  C   UNL     1     -45.632 -54.932  14.009  1.00  0.00     0.161 C 
BRANCH  10  11
HETATM   11  C   UNL     1     -46.275 -54.222  15.207  1.00  0.00     0.188 C 
BRANCH  11  12
HETATM   12  O   UNL     1     -47.234 -53.268  14.738  1.00  0.00    -0.390 OA
BRANCH  12  13
HETATM   13  C   UNL     1     -47.172 -52.069  15.511  1.00  0.00     0.163 C 
HETATM   14  C   UNL     1     -45.978 -51.254  15.060  1.00  0.00     0.033 C 
ENDBRANCH  12  13
ENDBRANCH  11  12
ENDBRANCH  10  11
ENDBRANCH   1  10
BRANCH   2  15
HETATM   15  N   UNL     1     -43.080 -55.530  15.293  1.00  0.00    -0.288 NA
HETATM   16  H   UNL     1     -43.917 -55.528  15.867  1.00  0.00     0.125 HD
HETATM   17  H   UNL     1     -42.254 -55.399  15.873  1.00  0.00     0.125 HD
ENDBRANCH   2  15
TORSDOF 5
ENDMDL
MODEL 3
REMARK VINA RESULT:      -4.7      8.201      9.670
REMARK  5 active torsions:
REMARK  status: ('A' for Active; 'I' for Inactive)
REMARK    1  A    between atoms: C_2  and  O_3 
REMARK    2  A    between atoms: O_3  and  C_4 
REMARK    3  A    between atoms: C_4  and  C_5 
REMARK    4  A    between atoms: C_5  and  N_6 
REMARK    5  A    between atoms: C_7  and  N_8 
ROOT
HETATM    1  N   UNL     1     -44.420 -54.309  13.724  1.00  0.00    -0.288 N 
HETATM    2  C   UNL     1     -44.299 -53.362  12.706  1.00  0.00     0.089 A 
HETATM    3  C   UNL     1     -43.074 -52.944  12.350  1.00  0.00     0.116 A 
HETATM    4  C   UNL     1     -41.876 -53.458  13.016  1.00  0.00     0.252 A 
HETATM    5  O   UNL     1     -40.757 -53.082  12.687  1.00  0.00    -0.268 OA
HETATM    6  N   UNL     1     -42.092 -54.368  13.995  1.00  0.00    -0.275 N 
HETATM    7  C   UNL     1     -43.308 -54.858  14.360  1.00  0.00     0.330 A 
HETATM    8  O   UNL     1     -43.366 -55.732  15.224  1.00  0.00    -0.246 OA
HETATM    9  H   UNL     1     -41.287 -54.750  14.468  1.00  0.00     0.173 HD
ENDROOT
BRANCH   1  10
HETATM   10  C   UNL     1     -45.730 -54.777  14.197  1.00  0.00     0.161 C 
BRANCH  10  11
HETATM   11  C   UNL     1     -46.339 -53.883  15.284  1.00  0.00     0.188 C 
BRANCH  11  12
HETATM   12  O   UNL     1     -47.180 -52.897  14.677  1.00  0.00    -0.390 OA
BRANCH  12  13
HETATM   13  C   UNL     1     -46.849 -51.591  15.147  1.00  0.00     0.163 C 
HETATM   14  C   UNL     1     -47.567 -51.342  16.457  1.00  0.00     0.033 C 
ENDBRANCH  12  13
ENDBRANCH  11  12
ENDBRANCH  10  11
ENDBRANCH   1  10
BRANCH   2  15
HETATM   15  N   UNL     1     -45.393 -52.841  12.039  1.00  0.00    -0.288 NA
HETATM   16  H   UNL     1     -45.141 -52.214  11.282  1.00  0.00     0.125 HD
HETATM   17  H   UNL     1     -46.076 -52.399  12.651  1.00  0.00     0.125 HD
ENDBRANCH   2  15
TORSDOF 5
ENDMDL
MODEL 4
REMARK VINA RESULT:      -4.3      7.342      8.483
REMARK  5 active torsions:
REMARK  status: ('A' for Active; 'I' for Inactive)
REMARK    1  A    between atoms: C_2  and  O_3 
REMARK    2  A    between atoms: O_3  and  C_4 
REMARK    3  A    between atoms: C_4  and  C_5 
REMARK    4  A    between atoms: C_5  and  N_6 
REMARK    5  A    between atoms: C_7  and  N_8 
ROOT
HETATM    1  N   UNL     1     -41.589 -53.869  13.402  1.00  0.00    -0.288 N 
HETATM    2  C   UNL     1     -42.189 -53.230  12.317  1.00  0.00     0.089 A 
HETATM    3  C   UNL     1     -43.527 -53.248  12.209  1.00  0.00     0.116 A 
HETATM    4  C   UNL     1     -44.356 -53.931  13.203  1.00  0.00     0.252 A 
HETATM    5  O   UNL     1     -45.578 -53.943  13.109  1.00  0.00    -0.268 OA
HETATM    6  N   UNL     1     -43.686 -54.529  14.217  1.00  0.00    -0.275 N 
HETATM    7  C   UNL     1     -42.337 -54.500  14.395  1.00  0.00     0.330 A 
HETATM    8  O   UNL     1     -41.855 -55.029  15.395  1.00  0.00    -0.246 OA
HETATM    9  H   UNL     1     -44.229 -55.002  14.924  1.00  0.00     0.173 HD
ENDROOT
BRANCH   1  10
HETATM   10  C   UNL     1     -40.129 -53.930  13.559  1.00  0.00     0.161 C 
BRANCH  10  11
HETATM   11  C   UNL     1     -39.509 -52.597  13.996  1.00  0.00     0.188 C 
BRANCH  11  12
HETATM   12  O   UNL     1     -39.020 -51.897  12.847  1.00  0.00    -0.390 OA
BRANCH  12  13
HETATM   13  C   UNL     1     -37.919 -51.059  13.197  1.00  0.00     0.163 C 
HETATM   14  C   UNL     1     -37.499 -50.264  11.978  1.00  0.00     0.033 C 
ENDBRANCH  12  13
ENDBRANCH  11  12
ENDBRANCH  10  11
ENDBRANCH   1  10
BRANCH   2  15
HETATM   15  N   UNL     1     -41.458 -52.566  11.347  1.00  0.00    -0.288 NA
HETATM   16  H   UNL     1     -41.923 -51.738  10.991  1.00  0.00     0.125 HD
HETATM   17  H   UNL     1     -41.160 -53.162  10.578  1.00  0.00     0.125 HD
ENDBRANCH   2  15
TORSDOF 5
ENDMDL
MODEL 5
REMARK VINA RESULT:      -4.3      7.242      8.928
REMARK  5 active torsions:
REMARK  status: ('A' for Active; 'I' for Inactive)
REMARK    1  A    between atoms: C_2  and  O_3 
REMARK    2  A    between atoms: O_3  and  C_4 
REMARK    3  A    between atoms: C_4  and  C_5 
REMARK    4  A    between atoms: C_5  and  N_6 
REMARK    5  A    between atoms: C_7  and  N_8 
ROOT
HETATM    1  N   UNL     1     -45.050 -53.194  13.480  1.00  0.00    -0.288 N 
HETATM    2  C   UNL     1     -45.271 -51.824  13.621  1.00  0.00     0.089 A 
HETATM    3  C   UNL     1     -46.218 -51.403  14.474  1.00  0.00     0.116 A 
HETATM    4  C   UNL     1     -47.019 -52.355  15.245  1.00  0.00     0.252 A 
HETATM    5  O   UNL     1     -47.879 -51.971  16.030  1.00  0.00    -0.268 OA
HETATM    6  N   UNL     1     -46.738 -53.664  15.038  1.00  0.00    -0.275 N 
HETATM    7  C   UNL     1     -45.759 -54.139  14.220  1.00  0.00     0.330 A 
HETATM    8  O   UNL     1     -45.561 -55.352  14.168  1.00  0.00    -0.246 OA
HETATM    9  H   UNL     1     -47.266 -54.346  15.560  1.00  0.00     0.173 HD
ENDROOT
BRANCH   1  10
HETATM   10  C   UNL     1     -44.063 -53.728  12.530  1.00  0.00     0.161 C 
BRANCH  10  11
HETATM   11  C   UNL     1     -42.673 -53.928  13.147  1.00  0.00     0.188 C 
BRANCH  11  12
HETATM   12  O   UNL     1     -41.994 -52.670  13.212  1.00  0.00    -0.390 OA
BRANCH  12  13
HETATM   13  C   UNL     1     -41.251 -52.433  12.017  1.00  0.00     0.163 C 
HETATM   14  C   UNL     1     -41.016 -50.944  11.870  1.00  0.00     0.033 C 
ENDBRANCH  12  13
ENDBRANCH  11  12
ENDBRANCH  10  11
ENDBRANCH   1  10
BRANCH   2  15
HETATM   15  N   UNL     1     -44.545 -50.877  12.922  1.00  0.00    -0.288 NA
HETATM   16  H   UNL     1     -44.474 -51.076  11.930  1.00  0.00     0.125 HD
HETATM   17  H   UNL     1     -43.623 -50.694  13.312  1.00  0.00     0.125 HD
ENDBRANCH   2  15
TORSDOF 5
ENDMDL
MODEL 6
REMARK VINA RESULT:      -4.2      3.165      4.925
REMARK  5 active torsions:
REMARK  status: ('A' for Active; 'I' for Inactive)
REMARK    1  A    between atoms: C_2  and  O_3 
REMARK    2  A    between atoms: O_3  and  C_4 
REMARK    3  A    between atoms: C_4  and  C_5 
REMARK    4  A    between atoms: C_5  and  N_6 
REMARK    5  A    between atoms: C_7  and  N_8 
ROOT
HETATM    1  N   UNL     1     -40.931 -47.523  11.373  1.00  0.00    -0.288 N 
HETATM    2  C   UNL     1     -42.078 -48.219  10.990  1.00  0.00     0.089 A 
HETATM    3  C   UNL     1     -42.897 -47.672  10.078  1.00  0.00     0.116 A 
HETATM    4  C   UNL     1     -42.608 -46.363   9.491  1.00  0.00     0.252 A 
HETATM    5  O   UNL     1     -43.351 -45.866   8.654  1.00  0.00    -0.268 OA
HETATM    6  N   UNL     1     -41.477 -45.759   9.928  1.00  0.00    -0.275 N 
HETATM    7  C   UNL     1     -40.592 -46.292  10.814  1.00  0.00     0.330 A 
HETATM    8  O   UNL     1     -39.565 -45.669  11.082  1.00  0.00    -0.246 OA
HETATM    9  H   UNL     1     -41.243 -44.859   9.537  1.00  0.00     0.173 HD
ENDROOT
BRANCH   1  10
HETATM   10  C   UNL     1     -40.015 -48.040  12.399  1.00  0.00     0.161 C 
BRANCH  10  11
HETATM   11  C   UNL     1     -38.980 -49.028  11.849  1.00  0.00     0.188 C 
BRANCH  11  12
HETATM   12  O   UNL     1     -39.500 -50.359  11.929  1.00  0.00    -0.390 OA
BRANCH  12  13
HETATM   13  C   UNL     1     -38.799 -51.117  12.915  1.00  0.00     0.163 C 
HETATM   14  C   UNL     1     -37.309 -50.940  12.704  1.00  0.00     0.033 C 
ENDBRANCH  12  13
ENDBRANCH  11  12
ENDBRANCH  10  11
ENDBRANCH   1  10
BRANCH   2  15
HETATM   15  N   UNL     1     -42.403 -49.461  11.508  1.00  0.00    -0.288 NA
HETATM   16  H   UNL     1     -43.219 -49.444  12.110  1.00  0.00     0.125 HD
HETATM   17  H   UNL     1     -41.629 -49.927  11.976  1.00  0.00     0.125 HD
ENDBRANCH   2  15
TORSDOF 5
ENDMDL
MODEL 7
REMARK VINA RESULT:      -4.2      8.115     10.022
REMARK  5 active torsions:
REMARK  status: ('A' for Active; 'I' for Inactive)
REMARK    1  A    between atoms: C_2  and  O_3 
REMARK    2  A    between atoms: O_3  and  C_4 
REMARK    3  A    between atoms: C_4  and  C_5 
REMARK    4  A    between atoms: C_5  and  N_6 
REMARK    5  A    between atoms: C_7  and  N_8 
ROOT
HETATM    1  N   UNL     1     -42.122 -54.040  13.662  1.00  0.00    -0.288 N 
HETATM    2  C   UNL     1     -43.268 -54.637  14.187  1.00  0.00     0.089 A 
HETATM    3  C   UNL     1     -44.464 -54.324  13.661  1.00  0.00     0.116 A 
HETATM    4  C   UNL     1     -44.578 -53.367  12.559  1.00  0.00     0.252 A 
HETATM    5  O   UNL     1     -45.667 -53.086  12.074  1.00  0.00    -0.268 OA
HETATM    6  N   UNL     1     -43.413 -52.834  12.120  1.00  0.00    -0.275 N 
HETATM    7  C   UNL     1     -42.175 -53.153  12.588  1.00  0.00     0.330 A 
HETATM    8  O   UNL     1     -41.187 -52.645  12.060  1.00  0.00    -0.246 OA
HETATM    9  H   UNL     1     -43.455 -52.178  11.356  1.00  0.00     0.173 HD
ENDROOT
BRANCH   1  10
HETATM   10  C   UNL     1     -40.787 -54.300  14.218  1.00  0.00     0.161 C 
BRANCH  10  11
HETATM   11  C   UNL     1     -40.533 -53.582  15.549  1.00  0.00     0.188 C 
BRANCH  11  12
HETATM   12  O   UNL     1     -40.564 -54.532  16.619  1.00  0.00    -0.390 OA
BRANCH  12  13
HETATM   13  C   UNL     1     -39.731 -55.654  16.322  1.00  0.00     0.163 C 
HETATM   14  C   UNL     1     -40.289 -56.878  17.018  1.00  0.00     0.033 C 
ENDBRANCH  12  13
ENDBRANCH  11  12
ENDBRANCH  10  11
ENDBRANCH   1  10
BRANCH   2  15
HETATM   15  N   UNL     1     -43.224 -55.550  15.226  1.00  0.00    -0.288 NA
HETATM   16  H   UNL     1     -43.145 -55.116  16.139  1.00  0.00     0.125 HD
HETATM   17  H   UNL     1     -42.511 -56.267  15.113  1.00  0.00     0.125 HD
ENDBRANCH   2  15
TORSDOF 5
ENDMDL
MODEL 8
REMARK VINA RESULT:      -4.1      7.447      8.552
REMARK  5 active torsions:
REMARK  status: ('A' for Active; 'I' for Inactive)
REMARK    1  A    between atoms: C_2  and  O_3 
REMARK    2  A    between atoms: O_3  and  C_4 
REMARK    3  A    between atoms: C_4  and  C_5 
REMARK    4  A    between atoms: C_5  and  N_6 
REMARK    5  A    between atoms: C_7  and  N_8 
ROOT
HETATM    1  N   UNL     1     -41.786 -53.788  13.399  1.00  0.00    -0.288 N 
HETATM    2  C   UNL     1     -42.805 -54.418  14.114  1.00  0.00     0.089 A 
HETATM    3  C   UNL     1     -44.078 -54.236  13.731  1.00  0.00     0.116 A 
HETATM    4  C   UNL     1     -44.408 -53.387  12.585  1.00  0.00     0.252 A 
HETATM    5  O   UNL     1     -45.570 -53.226  12.229  1.00  0.00    -0.268 OA
HETATM    6  N   UNL     1     -43.356 -52.812  11.956  1.00  0.00    -0.275 N 
HETATM    7  C   UNL     1     -42.047 -53.002  12.278  1.00  0.00     0.330 A 
HETATM    8  O   UNL     1     -41.178 -52.472  11.586  1.00  0.00    -0.246 OA
HETATM    9  H   UNL     1     -43.548 -52.228  11.157  1.00  0.00     0.173 HD
ENDROOT
BRANCH   1  10
HETATM   10  C   UNL     1     -40.375 -53.904  13.791  1.00  0.00     0.161 C 
BRANCH  10  11
HETATM   11  C   UNL     1     -39.879 -52.724  14.634  1.00  0.00     0.188 C 
BRANCH  11  12
HETATM   12  O   UNL     1     -38.583 -52.321  14.180  1.00  0.00    -0.390 OA
BRANCH  12  13
HETATM   13  C   UNL     1     -38.648 -51.056  13.521  1.00  0.00     0.163 C 
HETATM   14  C   UNL     1     -37.393 -50.866  12.696  1.00  0.00     0.033 C 
ENDBRANCH  12  13
ENDBRANCH  11  12
ENDBRANCH  10  11
ENDBRANCH   1  10
BRANCH   2  15
HETATM   15  N   UNL     1     -42.555 -55.234  15.204  1.00  0.00    -0.288 NA
HETATM   16  H   UNL     1     -43.073 -54.966  16.034  1.00  0.00     0.125 HD
HETATM   17  H   UNL     1     -41.567 -55.337  15.423  1.00  0.00     0.125 HD
ENDBRANCH   2  15
TORSDOF 5
ENDMDL
MODEL 9
REMARK VINA RESULT:      -4.1      6.113      7.606
REMARK  5 active torsions:
REMARK  status: ('A' for Active; 'I' for Inactive)
REMARK    1  A    between atoms: C_2  and  O_3 
REMARK    2  A    between atoms: O_3  and  C_4 
REMARK    3  A    between atoms: C_4  and  C_5 
REMARK    4  A    between atoms: C_5  and  N_6 
REMARK    5  A    between atoms: C_7  and  N_8 
ROOT
HETATM    1  N   UNL     1     -42.173 -51.847  12.789  1.00  0.00    -0.288 N 
HETATM    2  C   UNL     1     -41.570 -53.085  12.565  1.00  0.00     0.089 A 
HETATM    3  C   UNL     1     -42.020 -54.159  13.233  1.00  0.00     0.116 A 
HETATM    4  C   UNL     1     -43.123 -54.046  14.190  1.00  0.00     0.252 A 
HETATM    5  O   UNL     1     -43.539 -55.027  14.795  1.00  0.00    -0.268 OA
HETATM    6  N   UNL     1     -43.641 -52.805  14.347  1.00  0.00    -0.275 N 
HETATM    7  C   UNL     1     -43.251 -51.696  13.661  1.00  0.00     0.330 A 
HETATM    8  O   UNL     1     -43.847 -50.636  13.848  1.00  0.00    -0.246 OA
HETATM    9  H   UNL     1     -44.408 -52.694  14.992  1.00  0.00     0.173 HD
ENDROOT
BRANCH   1  10
HETATM   10  C   UNL     1     -41.701 -50.622  12.129  1.00  0.00     0.161 C 
BRANCH  10  11
HETATM   11  C   UNL     1     -40.576 -49.915  12.894  1.00  0.00     0.188 C 
BRANCH  11  12
HETATM   12  O   UNL     1     -39.309 -50.403  12.439  1.00  0.00    -0.390 OA
BRANCH  12  13
HETATM   13  C   UNL     1     -38.564 -49.363  11.806  1.00  0.00     0.163 C 
HETATM   14  C   UNL     1     -37.350 -49.968  11.132  1.00  0.00     0.033 C 
ENDBRANCH  12  13
ENDBRANCH  11  12
ENDBRANCH  10  11
ENDBRANCH   1  10
BRANCH   2  15
HETATM   15  N   UNL     1     -40.527 -53.254  11.672  1.00  0.00    -0.288 NA
HETATM   16  H   UNL     1     -40.059 -52.387  11.430  1.00  0.00     0.125 HD
HETATM   17  H   UNL     1     -40.786 -53.763  10.829  1.00  0.00     0.125 HD
ENDBRANCH   2  15
TORSDOF 5
ENDMDL
