MODEL 1
REMARK VINA RESULT:      -5.9      0.000      0.000
REMARK  7 active torsions:
REMARK  status: ('A' for Active; 'I' for Inactive)
REMARK    1  A    between atoms: C_2  and  C_4 
REMARK    2  A    between atoms: C_2  and  N_18 
REMARK    3  A    between atoms: C_4  and  N_5 
REMARK    4  A    between atoms: N_5  and  C_6 
REMARK    5  A    between atoms: C_6  and  C_7 
REMARK    6  A    between atoms: C_6  and  C_15 
REMARK    7  A    between atoms: C_7  and  C_8 
ROOT
HETATM    1  N   UNL     1     -40.881 -51.376  11.427  1.00  0.00     0.091 N 
HETATM    2  H   UNL     1     -41.338 -51.548  10.536  1.00  0.00     0.316 HD
ENDROOT
BRANCH   1   3
HETATM    3  C   UNL     1     -41.907 -51.389  12.470  1.00  0.00     0.310 C 
BRANCH   3   4
HETATM    4  C   UNL     1     -41.671 -52.515  13.563  1.00  0.00     0.178 C 
HETATM    5  C   UNL     1     -41.123 -53.787  12.879  1.00  0.00     0.051 C 
HETATM    6  C   UNL     1     -40.550 -52.001  14.514  1.00  0.00     0.051 C 
BRANCH   4   7
HETATM    7  N   UNL     1     -42.908 -52.723  14.372  1.00  0.00     0.103 N 
HETATM    8  C   UNL     1     -42.853 -53.699  15.478  1.00  0.00     0.299 C 
HETATM    9  C   UNL     1     -43.195 -55.148  15.080  1.00  0.00     0.198 C 
HETATM   10  O   UNL     1     -44.459 -55.233  14.413  1.00  0.00    -0.388 OA
HETATM   11  C   UNL     1     -44.493 -54.369  13.271  1.00  0.00     0.198 C 
HETATM   12  C   UNL     1     -44.188 -52.914  13.661  1.00  0.00     0.299 C 
ENDBRANCH   4   7
ENDBRANCH   3   4
ENDBRANCH   1   3
BRANCH   1  13
HETATM   13  C   UNL     1     -40.121 -50.124  11.267  1.00  0.00     0.230 C 
BRANCH  13  14
HETATM   14  C   UNL     1     -40.821 -48.915  11.930  1.00  0.00     0.092 C 
BRANCH  14  15
HETATM   15  C   UNL     1     -41.493 -47.945  10.982  1.00  0.00     0.011 A 
HETATM   16  C   UNL     1     -41.145 -46.594  11.027  1.00  0.00     0.025 A 
HETATM   17  C   UNL     1     -41.870 -45.681  10.264  1.00  0.00     0.003 A 
HETATM   18  C   UNL     1     -42.922 -46.133   9.481  1.00  0.00     0.017 A 
HETATM   19  C   UNL     1     -43.204 -47.487   9.488  1.00  0.00     0.088 A 
HETATM   20  N   UNL     1     -42.523 -48.396  10.224  1.00  0.00    -0.369 N 
ATOM     21  HN  UNL     1     -42.775 -49.384  10.210  1.00  0.00     0.165 HD
ENDBRANCH  14  15
ENDBRANCH  13  14
BRANCH  13  22
HETATM   22  C   UNL     1     -38.746 -50.371  11.901  1.00  0.00     0.019 A 
HETATM   23  C   UNL     1     -37.924 -49.234  12.474  1.00  0.00     0.007 A 
HETATM   24  C   UNL     1     -37.430 -49.961  11.255  1.00  0.00     0.007 A 
ENDBRANCH  13  22
ENDBRANCH   1  13
TORSDOF 7
ENDMDL
MODEL 2
REMARK VINA RESULT:      -5.7      2.975      6.861
REMARK  7 active torsions:
REMARK  status: ('A' for Active; 'I' for Inactive)
REMARK    1  A    between atoms: C_2  and  C_4 
REMARK    2  A    between atoms: C_2  and  N_18 
REMARK    3  A    between atoms: C_4  and  N_5 
REMARK    4  A    between atoms: N_5  and  C_6 
REMARK    5  A    between atoms: C_6  and  C_7 
REMARK    6  A    between atoms: C_6  and  C_15 
REMARK    7  A    between atoms: C_7  and  C_8 
ROOT
HETATM    1  N   UNL     1     -42.276 -50.874  11.919  1.00  0.00     0.091 N 
HETATM    2  H   UNL     1     -42.101 -51.254  10.992  1.00  0.00     0.316 HD
ENDROOT
BRANCH   1   3
HETATM    3  C   UNL     1     -41.151 -50.005  12.269  1.00  0.00     0.310 C 
BRANCH   3   4
HETATM    4  C   UNL     1     -41.525 -48.463  12.243  1.00  0.00     0.178 C 
HETATM    5  C   UNL     1     -42.982 -48.280  12.721  1.00  0.00     0.051 C 
HETATM    6  C   UNL     1     -40.618 -47.756  13.294  1.00  0.00     0.051 C 
BRANCH   4   7
HETATM    7  N   UNL     1     -41.227 -47.878  10.902  1.00  0.00     0.103 N 
HETATM    8  C   UNL     1     -40.590 -46.547  10.857  1.00  0.00     0.299 C 
HETATM    9  C   UNL     1     -41.571 -45.359  10.858  1.00  0.00     0.198 C 
HETATM   10  O   UNL     1     -42.545 -45.473   9.815  1.00  0.00    -0.388 OA
HETATM   11  C   UNL     1     -43.250 -46.716   9.907  1.00  0.00     0.198 C 
HETATM   12  C   UNL     1     -42.284 -47.910   9.872  1.00  0.00     0.299 C 
ENDBRANCH   4   7
ENDBRANCH   3   4
ENDBRANCH   1   3
BRANCH   1  13
HETATM   13  C   UNL     1     -42.512 -52.031  12.801  1.00  0.00     0.230 C 
BRANCH  13  14
HETATM   14  C   UNL     1     -43.716 -52.889  12.347  1.00  0.00     0.092 C 
BRANCH  14  15
HETATM   15  C   UNL     1     -44.961 -52.777  13.201  1.00  0.00     0.011 A 
HETATM   16  C   UNL     1     -45.516 -51.519  13.436  1.00  0.00     0.025 A 
HETATM   17  C   UNL     1     -46.568 -51.400  14.342  1.00  0.00     0.003 A 
HETATM   18  C   UNL     1     -47.036 -52.534  14.993  1.00  0.00     0.017 A 
HETATM   19  C   UNL     1     -46.434 -53.744  14.704  1.00  0.00     0.088 A 
HETATM   20  N   UNL     1     -45.407 -53.889  13.835  1.00  0.00    -0.369 N 
ATOM     21  HN  UNL     1     -44.984 -54.801  13.663  1.00  0.00     0.165 HD
ENDBRANCH  14  15
ENDBRANCH  13  14
BRANCH  13  22
HETATM   22  C   UNL     1     -41.219 -52.856  12.783  1.00  0.00     0.019 A 
HETATM   23  C   UNL     1     -41.212 -54.324  13.161  1.00  0.00     0.007 A 
HETATM   24  C   UNL     1     -40.501 -53.332  14.038  1.00  0.00     0.007 A 
ENDBRANCH  13  22
ENDBRANCH   1  13
TORSDOF 7
ENDMDL
MODEL 3
REMARK VINA RESULT:      -5.6      1.637      2.381
REMARK  7 active torsions:
REMARK  status: ('A' for Active; 'I' for Inactive)
REMARK    1  A    between atoms: C_2  and  C_4 
REMARK    2  A    between atoms: C_2  and  N_18 
REMARK    3  A    between atoms: C_4  and  N_5 
REMARK    4  A    between atoms: N_5  and  C_6 
REMARK    5  A    between atoms: C_6  and  C_7 
REMARK    6  A    between atoms: C_6  and  C_15 
REMARK    7  A    between atoms: C_7  and  C_8 
ROOT
HETATM    1  N   UNL     1     -41.887 -51.155  11.802  1.00  0.00     0.091 N 
HETATM    2  H   UNL     1     -42.358 -50.364  12.234  1.00  0.00     0.316 HD
ENDROOT
BRANCH   1   3
HETATM    3  C   UNL     1     -42.401 -52.378  12.420  1.00  0.00     0.310 C 
BRANCH   3   4
HETATM    4  C   UNL     1     -43.649 -52.119  13.366  1.00  0.00     0.178 C 
HETATM    5  C   UNL     1     -43.254 -52.418  14.829  1.00  0.00     0.051 C 
HETATM    6  C   UNL     1     -43.972 -50.598  13.291  1.00  0.00     0.051 C 
BRANCH   4   7
HETATM    7  N   UNL     1     -44.840 -52.873  12.873  1.00  0.00     0.103 N 
HETATM    8  C   UNL     1     -46.178 -52.356  13.226  1.00  0.00     0.299 C 
HETATM    9  C   UNL     1     -46.739 -52.876  14.564  1.00  0.00     0.198 C 
HETATM   10  O   UNL     1     -46.734 -54.307  14.622  1.00  0.00    -0.388 OA
HETATM   11  C   UNL     1     -45.420 -54.823  14.387  1.00  0.00     0.198 C 
HETATM   12  C   UNL     1     -44.862 -54.339  13.039  1.00  0.00     0.299 C 
ENDBRANCH   4   7
ENDBRANCH   3   4
ENDBRANCH   1   3
BRANCH   1  13
HETATM   13  C   UNL     1     -40.442 -50.903  11.945  1.00  0.00     0.230 C 
BRANCH  13  14
HETATM   14  C   UNL     1     -40.024 -49.516  11.404  1.00  0.00     0.092 C 
BRANCH  14  15
HETATM   15  C   UNL     1     -41.157 -48.552  11.126  1.00  0.00     0.011 A 
HETATM   16  C   UNL     1     -41.758 -47.880  12.191  1.00  0.00     0.025 A 
HETATM   17  C   UNL     1     -42.896 -47.112  11.952  1.00  0.00     0.003 A 
HETATM   18  C   UNL     1     -43.408 -47.035  10.664  1.00  0.00     0.017 A 
HETATM   19  C   UNL     1     -42.753 -47.728   9.663  1.00  0.00     0.088 A 
HETATM   20  N   UNL     1     -41.652 -48.488   9.865  1.00  0.00    -0.369 N 
ATOM     21  HN  UNL     1     -41.209 -48.994   9.098  1.00  0.00     0.165 HD
ENDBRANCH  14  15
ENDBRANCH  13  14
BRANCH  13  22
HETATM   22  C   UNL     1     -40.133 -51.018  13.443  1.00  0.00     0.019 A 
HETATM   23  C   UNL     1     -38.863 -50.439  14.035  1.00  0.00     0.007 A 
HETATM   24  C   UNL     1     -39.058 -51.929  14.018  1.00  0.00     0.007 A 
ENDBRANCH  13  22
ENDBRANCH   1  13
TORSDOF 7
ENDMDL
MODEL 4
REMARK VINA RESULT:      -5.3      2.799      6.494
REMARK  7 active torsions:
REMARK  status: ('A' for Active; 'I' for Inactive)
REMARK    1  A    between atoms: C_2  and  C_4 
REMARK    2  A    between atoms: C_2  and  N_18 
REMARK    3  A    between atoms: C_4  and  N_5 
REMARK    4  A    between atoms: N_5  and  C_6 
REMARK    5  A    between atoms: C_6  and  C_7 
REMARK    6  A    between atoms: C_6  and  C_15 
REMARK    7  A    between atoms: C_7  and  C_8 
ROOT
HETATM    1  N   UNL     1     -42.361 -50.346  13.423  1.00  0.00     0.091 N 
HETATM    2  H   UNL     1     -42.934 -50.517  14.246  1.00  0.00     0.316 HD
ENDROOT
BRANCH   1   3
HETATM    3  C   UNL     1     -42.958 -49.234  12.683  1.00  0.00     0.310 C 
BRANCH   3   4
HETATM    4  C   UNL     1     -42.103 -47.899  12.769  1.00  0.00     0.178 C 
HETATM    5  C   UNL     1     -43.002 -46.745  13.262  1.00  0.00     0.051 C 
HETATM    6  C   UNL     1     -41.018 -48.122  13.864  1.00  0.00     0.051 C 
BRANCH   4   7
HETATM    7  N   UNL     1     -41.409 -47.642  11.472  1.00  0.00     0.103 N 
HETATM    8  C   UNL     1     -40.754 -46.331  11.288  1.00  0.00     0.299 C 
HETATM    9  C   UNL     1     -41.664 -45.229  10.711  1.00  0.00     0.198 C 
HETATM   10  O   UNL     1     -42.290 -45.641   9.491  1.00  0.00    -0.388 OA
HETATM   11  C   UNL     1     -43.020 -46.859   9.676  1.00  0.00     0.198 C 
HETATM   12  C   UNL     1     -42.115 -47.976  10.220  1.00  0.00     0.299 C 
ENDBRANCH   4   7
ENDBRANCH   3   4
ENDBRANCH   1   3
BRANCH   1  13
HETATM   13  C   UNL     1     -42.265 -51.633  12.712  1.00  0.00     0.230 C 
BRANCH  13  14
HETATM   14  C   UNL     1     -40.883 -52.305  12.883  1.00  0.00     0.092 C 
BRANCH  14  15
HETATM   15  C   UNL     1     -39.685 -51.395  12.708  1.00  0.00     0.011 A 
HETATM   16  C   UNL     1     -38.819 -51.194  13.783  1.00  0.00     0.025 A 
HETATM   17  C   UNL     1     -37.808 -50.242  13.670  1.00  0.00     0.003 A 
HETATM   18  C   UNL     1     -37.688 -49.514  12.495  1.00  0.00     0.017 A 
HETATM   19  C   UNL     1     -38.584 -49.773  11.475  1.00  0.00     0.088 A 
HETATM   20  N   UNL     1     -39.580 -50.686  11.558  1.00  0.00    -0.369 N 
ATOM     21  HN  UNL     1     -40.228 -50.834  10.784  1.00  0.00     0.165 HD
ENDBRANCH  14  15
ENDBRANCH  13  14
BRANCH  13  22
HETATM   22  C   UNL     1     -43.376 -52.523  13.284  1.00  0.00     0.019 A 
HETATM   23  C   UNL     1     -43.326 -54.033  13.152  1.00  0.00     0.007 A 
HETATM   24  C   UNL     1     -44.394 -53.263  12.426  1.00  0.00     0.007 A 
ENDBRANCH  13  22
ENDBRANCH   1  13
TORSDOF 7
ENDMDL
MODEL 5
REMARK VINA RESULT:      -5.3      2.760      4.433
REMARK  7 active torsions:
REMARK  status: ('A' for Active; 'I' for Inactive)
REMARK    1  A    between atoms: C_2  and  C_4 
REMARK    2  A    between atoms: C_2  and  N_18 
REMARK    3  A    between atoms: C_4  and  N_5 
REMARK    4  A    between atoms: N_5  and  C_6 
REMARK    5  A    between atoms: C_6  and  C_7 
REMARK    6  A    between atoms: C_6  and  C_15 
REMARK    7  A    between atoms: C_7  and  C_8 
ROOT
HETATM    1  N   UNL     1     -42.199 -53.475  12.452  1.00  0.00     0.091 N 
HETATM    2  H   UNL     1     -42.086 -53.800  11.495  1.00  0.00     0.316 HD
ENDROOT
BRANCH   1   3
HETATM    3  C   UNL     1     -43.098 -52.320  12.431  1.00  0.00     0.310 C 
BRANCH   3   4
HETATM    4  C   UNL     1     -44.364 -52.500  13.373  1.00  0.00     0.178 C 
HETATM    5  C   UNL     1     -44.536 -51.239  14.247  1.00  0.00     0.051 C 
HETATM    6  C   UNL     1     -45.614 -52.578  12.447  1.00  0.00     0.051 C 
BRANCH   4   7
HETATM    7  N   UNL     1     -44.268 -53.781  14.133  1.00  0.00     0.103 N 
HETATM    8  C   UNL     1     -45.342 -54.777  13.946  1.00  0.00     0.299 C 
HETATM    9  C   UNL     1     -46.546 -54.617  14.895  1.00  0.00     0.198 C 
HETATM   10  O   UNL     1     -46.140 -54.585  16.267  1.00  0.00    -0.388 OA
HETATM   11  C   UNL     1     -45.174 -53.552  16.491  1.00  0.00     0.198 C 
HETATM   12  C   UNL     1     -43.953 -53.721  15.574  1.00  0.00     0.299 C 
ENDBRANCH   4   7
ENDBRANCH   3   4
ENDBRANCH   1   3
BRANCH   1  13
HETATM   13  C   UNL     1     -40.841 -53.241  12.972  1.00  0.00     0.230 C 
BRANCH  13  14
HETATM   14  C   UNL     1     -40.666 -51.823  13.564  1.00  0.00     0.092 C 
BRANCH  14  15
HETATM   15  C   UNL     1     -39.509 -51.019  13.010  1.00  0.00     0.011 A 
HETATM   16  C   UNL     1     -39.771 -49.937  12.170  1.00  0.00     0.025 A 
HETATM   17  C   UNL     1     -38.706 -49.294  11.541  1.00  0.00     0.003 A 
HETATM   18  C   UNL     1     -37.413 -49.746  11.761  1.00  0.00     0.017 A 
HETATM   19  C   UNL     1     -37.236 -50.823  12.609  1.00  0.00     0.088 A 
HETATM   20  N   UNL     1     -38.250 -51.472  13.228  1.00  0.00    -0.369 N 
ATOM     21  HN  UNL     1     -38.074 -52.273  13.835  1.00  0.00     0.165 HD
ENDBRANCH  14  15
ENDBRANCH  13  14
BRANCH  13  22
HETATM   22  C   UNL     1     -40.603 -54.311  14.046  1.00  0.00     0.019 A 
HETATM   23  C   UNL     1     -39.998 -53.960  15.391  1.00  0.00     0.007 A 
HETATM   24  C   UNL     1     -39.225 -54.826  14.437  1.00  0.00     0.007 A 
ENDBRANCH  13  22
ENDBRANCH   1  13
TORSDOF 7
ENDMDL
MODEL 6
REMARK VINA RESULT:      -5.3      1.871      4.450
REMARK  7 active torsions:
REMARK  status: ('A' for Active; 'I' for Inactive)
REMARK    1  A    between atoms: C_2  and  C_4 
REMARK    2  A    between atoms: C_2  and  N_18 
REMARK    3  A    between atoms: C_4  and  N_5 
REMARK    4  A    between atoms: N_5  and  C_6 
REMARK    5  A    between atoms: C_6  and  C_7 
REMARK    6  A    between atoms: C_6  and  C_15 
REMARK    7  A    between atoms: C_7  and  C_8 
ROOT
HETATM    1  N   UNL     1     -43.506 -50.441  13.729  1.00  0.00     0.091 N 
HETATM    2  H   UNL     1     -43.111 -50.617  14.649  1.00  0.00     0.316 HD
ENDROOT
BRANCH   1   3
HETATM    3  C   UNL     1     -44.003 -51.712  13.201  1.00  0.00     0.310 C 
BRANCH   3   4
HETATM    4  C   UNL     1     -45.483 -52.045  13.669  1.00  0.00     0.178 C 
HETATM    5  C   UNL     1     -45.861 -51.136  14.859  1.00  0.00     0.051 C 
HETATM    6  C   UNL     1     -46.430 -51.661  12.494  1.00  0.00     0.051 C 
BRANCH   4   7
HETATM    7  N   UNL     1     -45.630 -53.508  13.927  1.00  0.00     0.103 N 
HETATM    8  C   UNL     1     -46.227 -53.925  15.211  1.00  0.00     0.299 C 
HETATM    9  C   UNL     1     -45.223 -54.097  16.367  1.00  0.00     0.198 C 
HETATM   10  O   UNL     1     -44.152 -54.979  16.014  1.00  0.00    -0.388 OA
HETATM   11  C   UNL     1     -43.490 -54.530  14.826  1.00  0.00     0.198 C 
HETATM   12  C   UNL     1     -44.476 -54.388  13.657  1.00  0.00     0.299 C 
ENDBRANCH   4   7
ENDBRANCH   3   4
ENDBRANCH   1   3
BRANCH   1  13
HETATM   13  C   UNL     1     -42.451 -49.771  12.948  1.00  0.00     0.230 C 
BRANCH  13  14
HETATM   14  C   UNL     1     -41.716 -50.738  11.991  1.00  0.00     0.092 C 
BRANCH  14  15
HETATM   15  C   UNL     1     -40.206 -50.748  12.102  1.00  0.00     0.011 A 
HETATM   16  C   UNL     1     -39.607 -51.353  13.207  1.00  0.00     0.025 A 
HETATM   17  C   UNL     1     -38.230 -51.229  13.386  1.00  0.00     0.003 A 
HETATM   18  C   UNL     1     -37.488 -50.504  12.464  1.00  0.00     0.017 A 
HETATM   19  C   UNL     1     -38.155 -49.936  11.394  1.00  0.00     0.088 A 
HETATM   20  N   UNL     1     -39.491 -50.033  11.199  1.00  0.00    -0.369 N 
ATOM     21  HN  UNL     1     -39.943 -49.585  10.402  1.00  0.00     0.165 HD
ENDBRANCH  14  15
ENDBRANCH  13  14
BRANCH  13  22
HETATM   22  C   UNL     1     -43.146 -48.652  12.161  1.00  0.00     0.019 A 
HETATM   23  C   UNL     1     -42.493 -48.016  10.949  1.00  0.00     0.007 A 
HETATM   24  C   UNL     1     -42.702 -47.196  12.191  1.00  0.00     0.007 A 
ENDBRANCH  13  22
ENDBRANCH   1  13
TORSDOF 7
ENDMDL
MODEL 7
REMARK VINA RESULT:      -5.3      1.889      2.811
REMARK  7 active torsions:
REMARK  status: ('A' for Active; 'I' for Inactive)
REMARK    1  A    between atoms: C_2  and  C_4 
REMARK    2  A    between atoms: C_2  and  N_18 
REMARK    3  A    between atoms: C_4  and  N_5 
REMARK    4  A    between atoms: N_5  and  C_6 
REMARK    5  A    between atoms: C_6  and  C_7 
REMARK    6  A    between atoms: C_6  and  C_15 
REMARK    7  A    between atoms: C_7  and  C_8 
ROOT
HETATM    1  N   UNL     1     -40.879 -51.388  11.411  1.00  0.00     0.091 N 
HETATM    2  H   UNL     1     -41.857 -51.135  11.519  1.00  0.00     0.316 HD
ENDROOT
BRANCH   1   3
HETATM    3  C   UNL     1     -40.509 -52.249  12.535  1.00  0.00     0.310 C 
BRANCH   3   4
HETATM    4  C   UNL     1     -41.740 -52.617  13.468  1.00  0.00     0.178 C 
HETATM    5  C   UNL     1     -42.989 -51.839  12.999  1.00  0.00     0.051 C 
HETATM    6  C   UNL     1     -42.044 -54.128  13.247  1.00  0.00     0.051 C 
BRANCH   4   7
HETATM    7  N   UNL     1     -41.381 -52.419  14.903  1.00  0.00     0.103 N 
HETATM    8  C   UNL     1     -41.530 -51.064  15.471  1.00  0.00     0.299 C 
HETATM    9  C   UNL     1     -40.294 -50.158  15.317  1.00  0.00     0.198 C 
HETATM   10  O   UNL     1     -39.111 -50.779  15.833  1.00  0.00    -0.388 OA
HETATM   11  C   UNL     1     -38.891 -52.052  15.214  1.00  0.00     0.198 C 
HETATM   12  C   UNL     1     -40.105 -52.977  15.392  1.00  0.00     0.299 C 
ENDBRANCH   4   7
ENDBRANCH   3   4
ENDBRANCH   1   3
BRANCH   1  13
HETATM   13  C   UNL     1     -40.137 -50.121  11.282  1.00  0.00     0.230 C 
BRANCH  13  14
HETATM   14  C   UNL     1     -40.875 -48.931  11.937  1.00  0.00     0.092 C 
BRANCH  14  15
HETATM   15  C   UNL     1     -41.535 -47.961  10.980  1.00  0.00     0.011 A 
HETATM   16  C   UNL     1     -41.144 -46.621  10.988  1.00  0.00     0.025 A 
HETATM   17  C   UNL     1     -41.856 -45.703  10.219  1.00  0.00     0.003 A 
HETATM   18  C   UNL     1     -42.936 -46.139   9.465  1.00  0.00     0.017 A 
HETATM   19  C   UNL     1     -43.259 -47.482   9.508  1.00  0.00     0.088 A 
HETATM   20  N   UNL     1     -42.592 -48.396  10.252  1.00  0.00    -0.369 N 
ATOM     21  HN  UNL     1     -42.875 -49.376  10.264  1.00  0.00     0.165 HD
ENDBRANCH  14  15
ENDBRANCH  13  14
BRANCH  13  22
HETATM   22  C   UNL     1     -38.775 -50.351  11.950  1.00  0.00     0.019 A 
HETATM   23  C   UNL     1     -37.942 -49.194  12.465  1.00  0.00     0.007 A 
HETATM   24  C   UNL     1     -37.444 -50.001  11.300  1.00  0.00     0.007 A 
ENDBRANCH  13  22
ENDBRANCH   1  13
TORSDOF 7
ENDMDL
MODEL 8
REMARK VINA RESULT:      -5.3      2.471      3.946
REMARK  7 active torsions:
REMARK  status: ('A' for Active; 'I' for Inactive)
REMARK    1  A    between atoms: C_2  and  C_4 
REMARK    2  A    between atoms: C_2  and  N_18 
REMARK    3  A    between atoms: C_4  and  N_5 
REMARK    4  A    between atoms: N_5  and  C_6 
REMARK    5  A    between atoms: C_6  and  C_7 
REMARK    6  A    between atoms: C_6  and  C_15 
REMARK    7  A    between atoms: C_7  and  C_8 
ROOT
HETATM    1  N   UNL     1     -41.989 -54.332  12.881  1.00  0.00     0.091 N 
HETATM    2  H   UNL     1     -41.836 -54.977  12.110  1.00  0.00     0.316 HD
ENDROOT
BRANCH   1   3
HETATM    3  C   UNL     1     -43.379 -53.877  12.817  1.00  0.00     0.310 C 
BRANCH   3   4
HETATM    4  C   UNL     1     -44.201 -54.200  14.135  1.00  0.00     0.178 C 
HETATM    5  C   UNL     1     -45.443 -55.042  13.772  1.00  0.00     0.051 C 
HETATM    6  C   UNL     1     -43.296 -55.099  15.029  1.00  0.00     0.051 C 
BRANCH   4   7
HETATM    7  N   UNL     1     -44.494 -52.943  14.886  1.00  0.00     0.103 N 
HETATM    8  C   UNL     1     -45.627 -52.954  15.834  1.00  0.00     0.299 C 
HETATM    9  C   UNL     1     -46.990 -52.584  15.217  1.00  0.00     0.198 C 
HETATM   10  O   UNL     1     -46.938 -51.331  14.527  1.00  0.00    -0.388 OA
HETATM   11  C   UNL     1     -45.913 -51.338  13.528  1.00  0.00     0.198 C 
HETATM   12  C   UNL     1     -44.542 -51.672  14.137  1.00  0.00     0.299 C 
ENDBRANCH   4   7
ENDBRANCH   3   4
ENDBRANCH   1   3
BRANCH   1  13
HETATM   13  C   UNL     1     -40.951 -53.293  12.763  1.00  0.00     0.230 C 
BRANCH  13  14
HETATM   14  C   UNL     1     -41.473 -52.004  12.089  1.00  0.00     0.092 C 
BRANCH  14  15
HETATM   15  C   UNL     1     -40.585 -50.785  12.227  1.00  0.00     0.011 A 
HETATM   16  C   UNL     1     -41.077 -49.653  12.876  1.00  0.00     0.025 A 
HETATM   17  C   UNL     1     -40.318 -48.484  12.868  1.00  0.00     0.003 A 
HETATM   18  C   UNL     1     -39.095 -48.471  12.213  1.00  0.00     0.017 A 
HETATM   19  C   UNL     1     -38.676 -49.635  11.596  1.00  0.00     0.088 A 
HETATM   20  N   UNL     1     -39.394 -50.782  11.579  1.00  0.00    -0.369 N 
ATOM     21  HN  UNL     1     -39.052 -51.614  11.098  1.00  0.00     0.165 HD
ENDBRANCH  14  15
ENDBRANCH  13  14
BRANCH  13  22
HETATM   22  C   UNL     1     -40.471 -53.003  14.191  1.00  0.00     0.019 A 
HETATM   23  C   UNL     1     -38.999 -52.823  14.509  1.00  0.00     0.007 A 
HETATM   24  C   UNL     1     -39.733 -54.015  15.057  1.00  0.00     0.007 A 
ENDBRANCH  13  22
ENDBRANCH   1  13
TORSDOF 7
ENDMDL
MODEL 9
REMARK VINA RESULT:      -5.2      2.746      6.301
REMARK  7 active torsions:
REMARK  status: ('A' for Active; 'I' for Inactive)
REMARK    1  A    between atoms: C_2  and  C_4 
REMARK    2  A    between atoms: C_2  and  N_18 
REMARK    3  A    between atoms: C_4  and  N_5 
REMARK    4  A    between atoms: N_5  and  C_6 
REMARK    5  A    between atoms: C_6  and  C_7 
REMARK    6  A    between atoms: C_6  and  C_15 
REMARK    7  A    between atoms: C_7  and  C_8 
ROOT
HETATM    1  N   UNL     1     -38.843 -52.332  14.151  1.00  0.00     0.091 N 
HETATM    2  H   UNL     1     -37.913 -52.700  14.329  1.00  0.00     0.316 HD
ENDROOT
BRANCH   1   3
HETATM    3  C   UNL     1     -38.905 -50.979  14.705  1.00  0.00     0.310 C 
BRANCH   3   4
HETATM    4  C   UNL     1     -38.426 -49.864  13.682  1.00  0.00     0.178 C 
HETATM    5  C   UNL     1     -37.472 -48.884  14.399  1.00  0.00     0.051 C 
HETATM    6  C   UNL     1     -37.586 -50.583  12.585  1.00  0.00     0.051 C 
BRANCH   4   7
HETATM    7  N   UNL     1     -39.602 -49.224  13.022  1.00  0.00     0.103 N 
HETATM    8  C   UNL     1     -40.835 -49.062  13.818  1.00  0.00     0.299 C 
HETATM    9  C   UNL     1     -41.801 -50.262  13.767  1.00  0.00     0.198 C 
HETATM   10  O   UNL     1     -42.129 -50.623  12.421  1.00  0.00    -0.388 OA
HETATM   11  C   UNL     1     -40.945 -50.889  11.660  1.00  0.00     0.198 C 
HETATM   12  C   UNL     1     -39.990 -49.686  11.675  1.00  0.00     0.299 C 
ENDBRANCH   4   7
ENDBRANCH   3   4
ENDBRANCH   1   3
BRANCH   1  13
HETATM   13  C   UNL     1     -39.790 -53.314  14.707  1.00  0.00     0.230 C 
BRANCH  13  14
HETATM   14  C   UNL     1     -40.479 -54.162  13.613  1.00  0.00     0.092 C 
BRANCH  14  15
HETATM   15  C   UNL     1     -41.993 -54.154  13.634  1.00  0.00     0.011 A 
HETATM   16  C   UNL     1     -42.664 -54.760  14.697  1.00  0.00     0.025 A 
HETATM   17  C   UNL     1     -44.050 -54.887  14.641  1.00  0.00     0.003 A 
HETATM   18  C   UNL     1     -44.731 -54.412  13.528  1.00  0.00     0.017 A 
HETATM   19  C   UNL     1     -43.996 -53.823  12.518  1.00  0.00     0.088 A 
HETATM   20  N   UNL     1     -42.648 -53.692  12.541  1.00  0.00    -0.369 N 
ATOM     21  HN  UNL     1     -42.145 -53.263  11.765  1.00  0.00     0.165 HD
ENDBRANCH  14  15
ENDBRANCH  13  14
BRANCH  13  22
HETATM   22  C   UNL     1     -38.975 -54.206  15.653  1.00  0.00     0.019 A 
HETATM   23  C   UNL     1     -39.427 -55.612  15.999  1.00  0.00     0.007 A 
HETATM   24  C   UNL     1     -39.410 -54.557  17.070  1.00  0.00     0.007 A 
ENDBRANCH  13  22
ENDBRANCH   1  13
TORSDOF 7
ENDMDL
