MODEL 1
REMARK VINA RESULT:      -6.3      0.000      0.000
REMARK  2 active torsions:
REMARK  status: ('A' for Active; 'I' for Inactive)
REMARK    1  A    between atoms: C_8  and  N_9 
REMARK       I    between atoms: N_9  and  C_10 
REMARK       I    between atoms: C_10  and  N_12 
REMARK    2  A    between atoms: N_12  and  C_13 
ROOT
HETATM    1  N   UNL     1     -43.067 -52.436  14.049  1.00  0.00    -0.294 N 
HETATM    2  C   UNL     1     -42.605 -53.686  14.376  1.00  0.00     0.322 C 
HETATM    3  O   UNL     1     -43.259 -54.720  14.393  1.00  0.00    -0.247 OA
HETATM    4  N   UNL     1     -41.285 -53.640  14.782  1.00  0.00    -0.330 N 
HETATM    5  H   UNL     1     -42.701 -51.708  14.642  1.00  0.00     0.172 HD
HETATM    6  H   UNL     1     -40.729 -52.861  14.455  1.00  0.00     0.165 HD
ENDROOT
BRANCH   1   7
HETATM    7  C   UNL     1     -44.406 -52.169  13.728  1.00  0.00     0.114 A 
HETATM    8  C   UNL     1     -45.317 -51.533  14.577  1.00  0.00    -0.018 A 
HETATM    9  C   UNL     1     -45.004 -51.125  15.992  1.00  0.00     0.052 C 
HETATM   10  C   UNL     1     -46.613 -51.309  14.085  1.00  0.00     0.012 A 
HETATM   11  C   UNL     1     -46.964 -51.745  12.814  1.00  0.00     0.018 A 
HETATM   12  C   UNL     1     -46.010 -52.415  12.075  1.00  0.00     0.089 A 
HETATM   13  N   UNL     1     -44.754 -52.655  12.513  1.00  0.00    -0.352 N 
ATOM     14  HN  UNL     1     -44.091 -53.184  11.947  1.00  0.00     0.166 HD
ENDBRANCH   1   7
BRANCH   4  15
HETATM   15  C   UNL     1     -40.557 -54.860  15.170  1.00  0.00     0.172 C 
HETATM   16  C   UNL     1     -40.677 -55.049  16.681  1.00  0.00     0.034 C 
HETATM   17  C   UNL     1     -40.217 -56.430  17.134  1.00  0.00     0.004 C 
HETATM   18  C   UNL     1     -38.717 -56.548  17.379  1.00  0.00     0.015 C 
HETATM   19  C   UNL     1     -37.802 -55.810  16.414  1.00  0.00     0.095 C 
HETATM   20  N   UNL     1     -38.228 -55.766  15.030  1.00  0.00    -0.261 NA
HETATM   21  C   UNL     1     -39.110 -54.782  14.642  1.00  0.00     0.220 C 
HETATM   22  H   UNL     1     -37.426 -55.712  14.411  1.00  0.00     0.130 HD
HETATM   23  O   UNL     1     -38.742 -53.947  13.813  1.00  0.00    -0.278 OA
ENDBRANCH   4  15
TORSDOF 2
ENDMDL
MODEL 2
REMARK VINA RESULT:      -6.2      4.782      7.087
REMARK  2 active torsions:
REMARK  status: ('A' for Active; 'I' for Inactive)
REMARK    1  A    between atoms: C_8  and  N_9 
REMARK       I    between atoms: N_9  and  C_10 
REMARK       I    between atoms: C_10  and  N_12 
REMARK    2  A    between atoms: N_12  and  C_13 
ROOT
HETATM    1  N   UNL     1     -42.496 -51.881  12.011  1.00  0.00    -0.294 N 
HETATM    2  C   UNL     1     -42.490 -50.564  12.395  1.00  0.00     0.322 C 
HETATM    3  O   UNL     1     -43.069 -50.088  13.362  1.00  0.00    -0.247 OA
HETATM    4  N   UNL     1     -41.795 -49.782  11.492  1.00  0.00    -0.330 N 
HETATM    5  H   UNL     1     -42.566 -52.004  11.012  1.00  0.00     0.172 HD
HETATM    6  H   UNL     1     -41.100 -50.245  10.921  1.00  0.00     0.165 HD
ENDROOT
BRANCH   1   7
HETATM    7  C   UNL     1     -43.234 -52.873  12.672  1.00  0.00     0.114 A 
HETATM    8  C   UNL     1     -42.677 -53.915  13.420  1.00  0.00    -0.018 A 
HETATM    9  C   UNL     1     -41.198 -54.163  13.545  1.00  0.00     0.052 C 
HETATM   10  C   UNL     1     -43.561 -54.804  14.051  1.00  0.00     0.012 A 
HETATM   11  C   UNL     1     -44.933 -54.658  13.891  1.00  0.00     0.018 A 
HETATM   12  C   UNL     1     -45.383 -53.631  13.085  1.00  0.00     0.089 A 
HETATM   13  N   UNL     1     -44.566 -52.757  12.458  1.00  0.00    -0.352 N 
ATOM     14  HN  UNL     1     -44.939 -52.034  11.844  1.00  0.00     0.166 HD
ENDBRANCH   1   7
BRANCH   4  15
HETATM   15  C   UNL     1     -41.633 -48.333  11.694  1.00  0.00     0.172 C 
HETATM   16  C   UNL     1     -42.385 -47.592  10.590  1.00  0.00     0.034 C 
HETATM   17  C   UNL     1     -42.527 -46.102  10.880  1.00  0.00     0.004 C 
HETATM   18  C   UNL     1     -41.336 -45.256  10.444  1.00  0.00     0.015 C 
HETATM   19  C   UNL     1     -39.954 -45.859  10.644  1.00  0.00     0.095 C 
HETATM   20  N   UNL     1     -39.770 -46.666  11.833  1.00  0.00    -0.261 NA
HETATM   21  C   UNL     1     -40.131 -47.995  11.790  1.00  0.00     0.220 C 
HETATM   22  H   UNL     1     -38.806 -46.627  12.147  1.00  0.00     0.130 HD
HETATM   23  O   UNL     1     -39.258 -48.853  11.936  1.00  0.00    -0.278 OA
ENDBRANCH   4  15
TORSDOF 2
ENDMDL
MODEL 3
REMARK VINA RESULT:      -6.2      4.666      6.500
REMARK  2 active torsions:
REMARK  status: ('A' for Active; 'I' for Inactive)
REMARK    1  A    between atoms: C_8  and  N_9 
REMARK       I    between atoms: N_9  and  C_10 
REMARK       I    between atoms: C_10  and  N_12 
REMARK    2  A    between atoms: N_12  and  C_13 
ROOT
HETATM    1  N   UNL     1     -44.570 -51.026  12.688  1.00  0.00    -0.294 N 
HETATM    2  C   UNL     1     -43.255 -50.636  12.665  1.00  0.00     0.322 C 
HETATM    3  O   UNL     1     -42.296 -51.296  13.039  1.00  0.00    -0.247 OA
HETATM    4  N   UNL     1     -43.129 -49.331  12.228  1.00  0.00    -0.330 N 
HETATM    5  H   UNL     1     -45.199 -50.290  12.971  1.00  0.00     0.172 HD
HETATM    6  H   UNL     1     -43.875 -48.963  11.653  1.00  0.00     0.165 HD
ENDROOT
BRANCH   1   7
HETATM    7  C   UNL     1     -45.000 -52.255  13.210  1.00  0.00     0.114 A 
HETATM    8  C   UNL     1     -46.046 -52.410  14.125  1.00  0.00    -0.018 A 
HETATM    9  C   UNL     1     -46.798 -51.263  14.744  1.00  0.00     0.052 C 
HETATM   10  C   UNL     1     -46.374 -53.717  14.519  1.00  0.00     0.012 A 
HETATM   11  C   UNL     1     -45.648 -54.797  14.033  1.00  0.00     0.018 A 
HETATM   12  C   UNL     1     -44.596 -54.536  13.177  1.00  0.00     0.089 A 
HETATM   13  N   UNL     1     -44.245 -53.293  12.778  1.00  0.00    -0.352 N 
ATOM     14  HN  UNL     1     -43.440 -53.142  12.172  1.00  0.00     0.166 HD
ENDBRANCH   1   7
BRANCH   4  15
HETATM   15  C   UNL     1     -41.811 -48.687  12.100  1.00  0.00     0.172 C 
HETATM   16  C   UNL     1     -41.556 -47.829  13.337  1.00  0.00     0.034 C 
HETATM   17  C   UNL     1     -40.107 -47.366  13.437  1.00  0.00     0.004 C 
HETATM   18  C   UNL     1     -39.795 -46.091  12.662  1.00  0.00     0.015 C 
HETATM   19  C   UNL     1     -40.470 -45.927  11.308  1.00  0.00     0.095 C 
HETATM   20  N   UNL     1     -40.640 -47.134  10.524  1.00  0.00    -0.261 NA
HETATM   21  C   UNL     1     -41.743 -47.924  10.761  1.00  0.00     0.220 C 
HETATM   22  H   UNL     1     -40.631 -46.920   9.532  1.00  0.00     0.130 HD
HETATM   23  O   UNL     1     -42.572 -48.073   9.860  1.00  0.00    -0.278 OA
ENDBRANCH   4  15
TORSDOF 2
ENDMDL
MODEL 4
REMARK VINA RESULT:      -6.1      3.352      6.851
REMARK  2 active torsions:
REMARK  status: ('A' for Active; 'I' for Inactive)
REMARK    1  A    between atoms: C_8  and  N_9 
REMARK       I    between atoms: N_9  and  C_10 
REMARK       I    between atoms: C_10  and  N_12 
REMARK    2  A    between atoms: N_12  and  C_13 
ROOT
HETATM    1  N   UNL     1     -40.692 -52.072  13.050  1.00  0.00    -0.294 N 
HETATM    2  C   UNL     1     -41.963 -51.559  13.104  1.00  0.00     0.322 C 
HETATM    3  O   UNL     1     -42.281 -50.389  12.945  1.00  0.00    -0.247 OA
HETATM    4  N   UNL     1     -42.880 -52.532  13.452  1.00  0.00    -0.330 N 
HETATM    5  H   UNL     1     -40.512 -52.766  13.759  1.00  0.00     0.172 HD
HETATM    6  H   UNL     1     -42.628 -53.493  13.261  1.00  0.00     0.165 HD
ENDROOT
BRANCH   1   7
HETATM    7  C   UNL     1     -39.551 -51.282  12.847  1.00  0.00     0.114 A 
HETATM    8  C   UNL     1     -38.548 -51.073  13.799  1.00  0.00    -0.018 A 
HETATM    9  C   UNL     1     -38.601 -51.600  15.208  1.00  0.00     0.052 C 
HETATM   10  C   UNL     1     -37.450 -50.283  13.420  1.00  0.00     0.012 A 
HETATM   11  C   UNL     1     -37.404 -49.710  12.156  1.00  0.00     0.018 A 
HETATM   12  C   UNL     1     -38.471 -49.930  11.308  1.00  0.00     0.089 A 
HETATM   13  N   UNL     1     -39.547 -50.679  11.635  1.00  0.00    -0.352 N 
ATOM     14  HN  UNL     1     -40.330 -50.787  10.991  1.00  0.00     0.166 HD
ENDBRANCH   1   7
BRANCH   4  15
HETATM   15  C   UNL     1     -44.318 -52.231  13.560  1.00  0.00     0.172 C 
HETATM   16  C   UNL     1     -44.630 -51.814  14.995  1.00  0.00     0.034 C 
HETATM   17  C   UNL     1     -46.018 -51.199  15.134  1.00  0.00     0.004 C 
HETATM   18  C   UNL     1     -47.141 -52.210  15.332  1.00  0.00     0.015 C 
HETATM   19  C   UNL     1     -47.048 -53.506  14.540  1.00  0.00     0.095 C 
HETATM   20  N   UNL     1     -46.501 -53.404  13.203  1.00  0.00    -0.261 NA
HETATM   21  C   UNL     1     -45.132 -53.437  13.047  1.00  0.00     0.220 C 
HETATM   22  H   UNL     1     -46.889 -54.123  12.602  1.00  0.00     0.130 HD
HETATM   23  O   UNL     1     -44.628 -54.367  12.414  1.00  0.00    -0.278 OA
ENDBRANCH   4  15
TORSDOF 2
ENDMDL
MODEL 5
REMARK VINA RESULT:      -6.0      4.819      6.266
REMARK  2 active torsions:
REMARK  status: ('A' for Active; 'I' for Inactive)
REMARK    1  A    between atoms: C_8  and  N_9 
REMARK       I    between atoms: N_9  and  C_10 
REMARK       I    between atoms: C_10  and  N_12 
REMARK    2  A    between atoms: N_12  and  C_13 
ROOT
HETATM    1  N   UNL     1     -41.954 -49.334  11.013  1.00  0.00    -0.294 N 
HETATM    2  C   UNL     1     -42.169 -49.895  12.247  1.00  0.00     0.322 C 
HETATM    3  O   UNL     1     -42.113 -49.319  13.325  1.00  0.00    -0.247 OA
HETATM    4  N   UNL     1     -42.387 -51.255  12.146  1.00  0.00    -0.330 N 
HETATM    5  H   UNL     1     -41.428 -49.929  10.392  1.00  0.00     0.172 HD
HETATM    6  H   UNL     1     -42.730 -51.603  11.260  1.00  0.00     0.165 HD
ENDROOT
BRANCH   1   7
HETATM    7  C   UNL     1     -41.580 -47.995  10.830  1.00  0.00     0.114 A 
HETATM    8  C   UNL     1     -42.427 -46.989  10.354  1.00  0.00    -0.018 A 
HETATM    9  C   UNL     1     -43.838 -47.228   9.889  1.00  0.00     0.052 C 
HETATM   10  C   UNL     1     -41.903 -45.689  10.265  1.00  0.00     0.012 A 
HETATM   11  C   UNL     1     -40.579 -45.444  10.607  1.00  0.00     0.018 A 
HETATM   12  C   UNL     1     -39.808 -46.514  11.012  1.00  0.00     0.089 A 
HETATM   13  N   UNL     1     -40.272 -47.780  11.106  1.00  0.00    -0.352 N 
ATOM     14  HN  UNL     1     -39.658 -48.548  11.376  1.00  0.00     0.166 HD
ENDBRANCH   1   7
BRANCH   4  15
HETATM   15  C   UNL     1     -42.660 -52.081  13.335  1.00  0.00     0.172 C 
HETATM   16  C   UNL     1     -41.902 -53.401  13.205  1.00  0.00     0.034 C 
HETATM   17  C   UNL     1     -41.879 -54.189  14.510  1.00  0.00     0.004 C 
HETATM   18  C   UNL     1     -43.100 -55.074  14.736  1.00  0.00     0.015 C 
HETATM   19  C   UNL     1     -44.446 -54.511  14.305  1.00  0.00     0.095 C 
HETATM   20  N   UNL     1     -44.638 -53.087  14.493  1.00  0.00    -0.261 NA
HETATM   21  C   UNL     1     -44.184 -52.227  13.517  1.00  0.00     0.220 C 
HETATM   22  H   UNL     1     -45.618 -52.875  14.648  1.00  0.00     0.130 HD
HETATM   23  O   UNL     1     -45.003 -51.535  12.907  1.00  0.00    -0.278 OA
ENDBRANCH   4  15
TORSDOF 2
ENDMDL
MODEL 6
REMARK VINA RESULT:      -6.0      3.518      4.664
REMARK  2 active torsions:
REMARK  status: ('A' for Active; 'I' for Inactive)
REMARK    1  A    between atoms: C_8  and  N_9 
REMARK       I    between atoms: N_9  and  C_10 
REMARK       I    between atoms: C_10  and  N_12 
REMARK    2  A    between atoms: N_12  and  C_13 
ROOT
HETATM    1  N   UNL     1     -43.809 -52.227  12.875  1.00  0.00    -0.294 N 
HETATM    2  C   UNL     1     -42.700 -51.574  13.351  1.00  0.00     0.322 C 
HETATM    3  O   UNL     1     -42.559 -51.108  14.473  1.00  0.00    -0.247 OA
HETATM    4  N   UNL     1     -41.748 -51.419  12.362  1.00  0.00    -0.330 N 
HETATM    5  H   UNL     1     -44.041 -51.978  11.926  1.00  0.00     0.172 HD
HETATM    6  H   UNL     1     -41.775 -52.071  11.590  1.00  0.00     0.165 HD
ENDROOT
BRANCH   1   7
HETATM    7  C   UNL     1     -44.979 -52.406  13.626  1.00  0.00     0.114 A 
HETATM    8  C   UNL     1     -45.509 -53.648  13.993  1.00  0.00    -0.018 A 
HETATM    9  C   UNL     1     -44.937 -54.969  13.553  1.00  0.00     0.052 C 
HETATM   10  C   UNL     1     -46.672 -53.649  14.780  1.00  0.00     0.012 A 
HETATM   11  C   UNL     1     -47.277 -52.450  15.136  1.00  0.00     0.018 A 
HETATM   12  C   UNL     1     -46.709 -51.279  14.677  1.00  0.00     0.089 A 
HETATM   13  N   UNL     1     -45.594 -51.235  13.914  1.00  0.00    -0.352 N 
ATOM     14  HN  UNL     1     -45.228 -50.349  13.567  1.00  0.00     0.166 HD
ENDBRANCH   1   7
BRANCH   4  15
HETATM   15  C   UNL     1     -40.459 -50.760  12.631  1.00  0.00     0.172 C 
HETATM   16  C   UNL     1     -40.109 -49.854  11.453  1.00  0.00     0.034 C 
HETATM   17  C   UNL     1     -38.955 -48.909  11.767  1.00  0.00     0.004 C 
HETATM   18  C   UNL     1     -37.570 -49.505  11.538  1.00  0.00     0.015 C 
HETATM   19  C   UNL     1     -37.378 -50.965  11.921  1.00  0.00     0.095 C 
HETATM   20  N   UNL     1     -38.089 -51.420  13.097  1.00  0.00    -0.261 NA
HETATM   21  C   UNL     1     -39.398 -51.830  12.959  1.00  0.00     0.220 C 
HETATM   22  H   UNL     1     -37.585 -52.175  13.551  1.00  0.00     0.130 HD
HETATM   23  O   UNL     1     -39.682 -53.005  13.205  1.00  0.00    -0.278 OA
ENDBRANCH   4  15
TORSDOF 2
ENDMDL
MODEL 7
REMARK VINA RESULT:      -5.9      4.155      4.931
REMARK  2 active torsions:
REMARK  status: ('A' for Active; 'I' for Inactive)
REMARK    1  A    between atoms: C_8  and  N_9 
REMARK       I    between atoms: N_9  and  C_10 
REMARK       I    between atoms: C_10  and  N_12 
REMARK    2  A    between atoms: N_12  and  C_13 
ROOT
HETATM    1  N   UNL     1     -40.780 -50.891  11.091  1.00  0.00    -0.294 N 
HETATM    2  C   UNL     1     -41.066 -51.664  12.187  1.00  0.00     0.322 C 
HETATM    3  O   UNL     1     -41.390 -51.260  13.295  1.00  0.00    -0.247 OA
HETATM    4  N   UNL     1     -40.862 -53.005  11.920  1.00  0.00    -0.330 N 
HETATM    5  H   UNL     1     -39.993 -51.231  10.558  1.00  0.00     0.172 HD
HETATM    6  H   UNL     1     -40.908 -53.294  10.953  1.00  0.00     0.165 HD
ENDROOT
BRANCH   1   7
HETATM    7  C   UNL     1     -40.775 -49.489  11.116  1.00  0.00     0.114 A 
HETATM    8  C   UNL     1     -39.684 -48.703  11.498  1.00  0.00    -0.018 A 
HETATM    9  C   UNL     1     -38.387 -49.260  12.020  1.00  0.00     0.052 C 
HETATM   10  C   UNL     1     -39.835 -47.308  11.431  1.00  0.00     0.012 A 
HETATM   11  C   UNL     1     -41.045 -46.754  11.033  1.00  0.00     0.018 A 
HETATM   12  C   UNL     1     -42.081 -47.615  10.731  1.00  0.00     0.089 A 
HETATM   13  N   UNL     1     -41.978 -48.961  10.787  1.00  0.00    -0.352 N 
ATOM     14  HN  UNL     1     -42.779 -49.560  10.589  1.00  0.00     0.166 HD
ENDBRANCH   1   7
BRANCH   4  15
HETATM   15  C   UNL     1     -41.117 -54.039  12.937  1.00  0.00     0.172 C 
HETATM   16  C   UNL     1     -42.455 -53.748  13.614  1.00  0.00     0.034 C 
HETATM   17  C   UNL     1     -42.946 -54.917  14.460  1.00  0.00     0.004 C 
HETATM   18  C   UNL     1     -42.393 -54.944  15.881  1.00  0.00     0.015 C 
HETATM   19  C   UNL     1     -40.939 -54.537  16.061  1.00  0.00     0.095 C 
HETATM   20  N   UNL     1     -40.026 -54.929  15.007  1.00  0.00    -0.261 NA
HETATM   21  C   UNL     1     -39.913 -54.119  13.898  1.00  0.00     0.220 C 
HETATM   22  H   UNL     1     -39.091 -55.066  15.375  1.00  0.00     0.130 HD
HETATM   23  O   UNL     1     -38.829 -53.582  13.662  1.00  0.00    -0.278 OA
ENDBRANCH   4  15
TORSDOF 2
ENDMDL
MODEL 8
REMARK VINA RESULT:      -5.8      5.062      5.537
REMARK  2 active torsions:
REMARK  status: ('A' for Active; 'I' for Inactive)
REMARK    1  A    between atoms: C_8  and  N_9 
REMARK       I    between atoms: N_9  and  C_10 
REMARK       I    between atoms: C_10  and  N_12 
REMARK    2  A    between atoms: N_12  and  C_13 
ROOT
HETATM    1  N   UNL     1     -41.080 -48.770  10.602  1.00  0.00    -0.294 N 
HETATM    2  C   UNL     1     -41.413 -49.592  11.649  1.00  0.00     0.322 C 
HETATM    3  O   UNL     1     -42.483 -49.616  12.240  1.00  0.00    -0.247 OA
HETATM    4  N   UNL     1     -40.337 -50.369  12.035  1.00  0.00    -0.330 N 
HETATM    5  H   UNL     1     -40.138 -48.413  10.659  1.00  0.00     0.172 HD
HETATM    6  H   UNL     1     -39.619 -50.538  11.344  1.00  0.00     0.165 HD
ENDROOT
BRANCH   1   7
HETATM    7  C   UNL     1     -41.938 -47.785  10.093  1.00  0.00     0.114 A 
HETATM    8  C   UNL     1     -42.033 -46.479  10.584  1.00  0.00    -0.018 A 
HETATM    9  C   UNL     1     -41.284 -45.977  11.789  1.00  0.00     0.052 C 
HETATM   10  C   UNL     1     -42.918 -45.605   9.934  1.00  0.00     0.012 A 
HETATM   11  C   UNL     1     -43.689 -46.054   8.869  1.00  0.00     0.018 A 
HETATM   12  C   UNL     1     -43.565 -47.377   8.495  1.00  0.00     0.089 A 
HETATM   13  N   UNL     1     -42.729 -48.251   9.097  1.00  0.00    -0.352 N 
ATOM     14  HN  UNL     1     -42.694 -49.229   8.812  1.00  0.00     0.166 HD
ENDBRANCH   1   7
BRANCH   4  15
HETATM   15  C   UNL     1     -40.449 -51.347  13.130  1.00  0.00     0.172 C 
HETATM   16  C   UNL     1     -39.156 -51.330  13.943  1.00  0.00     0.034 C 
HETATM   17  C   UNL     1     -39.289 -52.081  15.263  1.00  0.00     0.004 C 
HETATM   18  C   UNL     1     -39.042 -53.582  15.164  1.00  0.00     0.015 C 
HETATM   19  C   UNL     1     -39.573 -54.286  13.925  1.00  0.00     0.095 C 
HETATM   20  N   UNL     1     -40.836 -53.805  13.404  1.00  0.00    -0.261 NA
HETATM   21  C   UNL     1     -40.828 -52.724  12.549  1.00  0.00     0.220 C 
HETATM   22  H   UNL     1     -41.340 -54.552  12.938  1.00  0.00     0.130 HD
HETATM   23  O   UNL     1     -41.223 -52.879  11.391  1.00  0.00    -0.278 OA
ENDBRANCH   4  15
TORSDOF 2
ENDMDL
MODEL 9
REMARK VINA RESULT:      -5.8      3.686      6.325
REMARK  2 active torsions:
REMARK  status: ('A' for Active; 'I' for Inactive)
REMARK    1  A    between atoms: C_8  and  N_9 
REMARK       I    between atoms: N_9  and  C_10 
REMARK       I    between atoms: C_10  and  N_12 
REMARK    2  A    between atoms: N_12  and  C_13 
ROOT
HETATM    1  N   UNL     1     -41.284 -51.603  11.513  1.00  0.00    -0.294 N 
HETATM    2  C   UNL     1     -42.303 -51.871  12.392  1.00  0.00     0.322 C 
HETATM    3  O   UNL     1     -42.473 -51.350  13.485  1.00  0.00    -0.247 OA
HETATM    4  N   UNL     1     -43.109 -52.893  11.927  1.00  0.00    -0.330 N 
HETATM    5  H   UNL     1     -40.918 -52.430  11.064  1.00  0.00     0.172 HD
HETATM    6  H   UNL     1     -43.119 -53.054  10.929  1.00  0.00     0.165 HD
ENDROOT
BRANCH   1   7
HETATM    7  C   UNL     1     -40.245 -50.704  11.789  1.00  0.00     0.114 A 
HETATM    8  C   UNL     1     -40.287 -49.332  11.522  1.00  0.00    -0.018 A 
HETATM    9  C   UNL     1     -41.427 -48.646  10.820  1.00  0.00     0.052 C 
HETATM   10  C   UNL     1     -39.171 -48.565  11.897  1.00  0.00     0.012 A 
HETATM   11  C   UNL     1     -38.064 -49.175  12.473  1.00  0.00     0.018 A 
HETATM   12  C   UNL     1     -38.097 -50.545  12.642  1.00  0.00     0.089 A 
HETATM   13  N   UNL     1     -39.148 -51.319  12.291  1.00  0.00    -0.352 N 
ATOM     14  HN  UNL     1     -39.116 -52.332  12.402  1.00  0.00     0.166 HD
ENDBRANCH   1   7
BRANCH   4  15
HETATM   15  C   UNL     1     -44.284 -53.352  12.687  1.00  0.00     0.172 C 
HETATM   16  C   UNL     1     -45.121 -52.139  13.085  1.00  0.00     0.034 C 
HETATM   17  C   UNL     1     -46.499 -52.528  13.608  1.00  0.00     0.004 C 
HETATM   18  C   UNL     1     -46.539 -52.867  15.094  1.00  0.00     0.015 C 
HETATM   19  C   UNL     1     -45.355 -53.641  15.655  1.00  0.00     0.095 C 
HETATM   20  N   UNL     1     -44.764 -54.635  14.782  1.00  0.00    -0.261 NA
HETATM   21  C   UNL     1     -43.818 -54.229  13.866  1.00  0.00     0.220 C 
HETATM   22  H   UNL     1     -44.355 -55.388  15.324  1.00  0.00     0.130 HD
HETATM   23  O   UNL     1     -42.670 -54.667  13.965  1.00  0.00    -0.278 OA
ENDBRANCH   4  15
TORSDOF 2
ENDMDL
