MODEL 1
REMARK VINA RESULT:      -6.6      0.000      0.000
REMARK  7 active torsions:
REMARK  status: ('A' for Active; 'I' for Inactive)
REMARK    1  A    between atoms: O_1  and  C_2 
REMARK    2  A    between atoms: C_2  and  C_3 
REMARK    3  A    between atoms: C_2  and  C_11 
REMARK    4  A    between atoms: C_3  and  O_4 
REMARK    5  A    between atoms: O_4  and  C_5 
REMARK    6  A    between atoms: C_5  and  C_6 
REMARK    7  A    between atoms: C_11  and  N_12 
ROOT
HETATM    1  N   UNL     1     -42.097 -51.297  12.416  1.00  0.00    -0.271 N 
HETATM    2  N   UNL     1     -41.243 -52.258  12.015  1.00  0.00    -0.019 NA
HETATM    3  N   UNL     1     -41.798 -53.428  12.300  1.00  0.00    -0.282 N 
ATOM      4  HN  UNL     1     -41.387 -54.344  12.116  1.00  0.00     0.184 HD
HETATM    5  C   UNL     1     -43.011 -53.200  12.884  1.00  0.00     0.075 A 
HETATM    6  C   UNL     1     -43.996 -54.090  13.330  1.00  0.00     0.058 A 
HETATM    7  C   UNL     1     -45.172 -53.564  13.885  1.00  0.00     0.058 A 
HETATM    8 CL   UNL     1     -46.385 -54.695  14.383  1.00  0.00    -0.082 Cl
HETATM    9  C   UNL     1     -45.351 -52.179  14.012  1.00  0.00     0.058 A 
HETATM   10 CL   UNL     1     -46.779 -51.496  14.710  1.00  0.00    -0.082 Cl
HETATM   11  C   UNL     1     -44.372 -51.280  13.563  1.00  0.00     0.058 A 
HETATM   12  C   UNL     1     -43.225 -51.833  12.988  1.00  0.00     0.078 A 
ENDROOT
BRANCH   1  13
HETATM   13  C   UNL     1     -41.839 -49.919  12.077  1.00  0.00     0.180 C 
BRANCH  13  14
HETATM   14  C   UNL     1     -40.446 -49.610  11.519  1.00  0.00     0.161 C 
BRANCH  14  15
HETATM   15  O   UNL     1     -40.456 -49.923  10.116  1.00  0.00    -0.392 OA
HETATM   16  H   UNL     1     -40.276 -49.103   9.623  1.00  0.00     0.210 HD
ENDBRANCH  14  15
BRANCH  14  17
HETATM   17  C   UNL     1     -40.020 -48.142  11.688  1.00  0.00     0.201 C 
BRANCH  17  18
HETATM   18  O   UNL     1     -41.099 -47.219  11.752  1.00  0.00    -0.382 OA
BRANCH  18  19
HETATM   19  C   UNL     1     -41.115 -46.277  10.676  1.00  0.00     0.232 C 
BRANCH  19  20
HETATM   20  C   UNL     1     -42.374 -46.474   9.926  1.00  0.00     0.076 A 
HETATM   21  C   UNL     1     -43.095 -47.578   9.521  1.00  0.00     0.037 A 
HETATM   22  C   UNL     1     -44.237 -47.087   8.849  1.00  0.00     0.027 A 
HETATM   23  C   UNL     1     -44.143 -45.718   8.882  1.00  0.00     0.142 A 
HETATM   24  O   UNL     1     -43.009 -45.336   9.523  1.00  0.00    -0.325 OA
ENDBRANCH  19  20
ENDBRANCH  18  19
ENDBRANCH  17  18
ENDBRANCH  14  17
ENDBRANCH  13  14
ENDBRANCH   1  13
TORSDOF 7
ENDMDL
MODEL 2
REMARK VINA RESULT:      -6.3      3.631      4.931
REMARK  7 active torsions:
REMARK  status: ('A' for Active; 'I' for Inactive)
REMARK    1  A    between atoms: O_1  and  C_2 
REMARK    2  A    between atoms: C_2  and  C_3 
REMARK    3  A    between atoms: C_2  and  C_11 
REMARK    4  A    between atoms: C_3  and  O_4 
REMARK    5  A    between atoms: O_4  and  C_5 
REMARK    6  A    between atoms: C_5  and  C_6 
REMARK    7  A    between atoms: C_11  and  N_12 
ROOT
HETATM    1  N   UNL     1     -43.869 -52.991  13.105  1.00  0.00    -0.271 N 
HETATM    2  N   UNL     1     -44.574 -53.974  12.513  1.00  0.00    -0.019 NA
HETATM    3  N   UNL     1     -45.760 -54.026  13.104  1.00  0.00    -0.282 N 
ATOM      4  HN  UNL     1     -46.514 -54.673  12.874  1.00  0.00     0.184 HD
HETATM    5  C   UNL     1     -45.801 -53.065  14.073  1.00  0.00     0.075 A 
HETATM    6  C   UNL     1     -46.829 -52.686  14.946  1.00  0.00     0.058 A 
HETATM    7  C   UNL     1     -46.591 -51.636  15.845  1.00  0.00     0.058 A 
HETATM    8 CL   UNL     1     -47.900 -51.165  16.875  1.00  0.00    -0.082 Cl
HETATM    9  C   UNL     1     -45.345 -50.993  15.887  1.00  0.00     0.058 A 
HETATM   10 CL   UNL     1     -45.010 -49.708  16.996  1.00  0.00    -0.082 Cl
HETATM   11  C   UNL     1     -44.311 -51.362  15.014  1.00  0.00     0.058 A 
HETATM   12  C   UNL     1     -44.588 -52.392  14.110  1.00  0.00     0.078 A 
ENDROOT
BRANCH   1  13
HETATM   13  C   UNL     1     -42.599 -52.586  12.554  1.00  0.00     0.180 C 
BRANCH  13  14
HETATM   14  C   UNL     1     -41.507 -53.660  12.513  1.00  0.00     0.161 C 
BRANCH  14  15
HETATM   15  O   UNL     1     -40.643 -53.365  11.403  1.00  0.00    -0.392 OA
HETATM   16  H   UNL     1     -40.042 -54.121  11.279  1.00  0.00     0.210 HD
ENDBRANCH  14  15
BRANCH  14  17
HETATM   17  C   UNL     1     -40.654 -53.728  13.791  1.00  0.00     0.201 C 
BRANCH  17  18
HETATM   18  O   UNL     1     -39.284 -53.401  13.602  1.00  0.00    -0.382 OA
BRANCH  18  19
HETATM   19  C   UNL     1     -38.899 -52.164  14.208  1.00  0.00     0.232 C 
BRANCH  19  20
HETATM   20  C   UNL     1     -38.596 -51.208  13.120  1.00  0.00     0.076 A 
HETATM   21  C   UNL     1     -37.436 -50.771  12.514  1.00  0.00     0.037 A 
HETATM   22  C   UNL     1     -37.829 -49.854  11.512  1.00  0.00     0.027 A 
HETATM   23  C   UNL     1     -39.200 -49.786  11.570  1.00  0.00     0.142 A 
HETATM   24  O   UNL     1     -39.674 -50.595  12.552  1.00  0.00    -0.325 OA
ENDBRANCH  19  20
ENDBRANCH  18  19
ENDBRANCH  17  18
ENDBRANCH  14  17
ENDBRANCH  13  14
ENDBRANCH   1  13
TORSDOF 7
ENDMDL
MODEL 3
REMARK VINA RESULT:      -6.0      1.595      2.306
REMARK  7 active torsions:
REMARK  status: ('A' for Active; 'I' for Inactive)
REMARK    1  A    between atoms: O_1  and  C_2 
REMARK    2  A    between atoms: C_2  and  C_3 
REMARK    3  A    between atoms: C_2  and  C_11 
REMARK    4  A    between atoms: C_3  and  O_4 
REMARK    5  A    between atoms: O_4  and  C_5 
REMARK    6  A    between atoms: C_5  and  C_6 
REMARK    7  A    between atoms: C_11  and  N_12 
ROOT
HETATM    1  N   UNL     1     -42.006 -51.404  12.431  1.00  0.00    -0.271 N 
HETATM    2  N   UNL     1     -41.201 -52.407  12.033  1.00  0.00    -0.019 NA
HETATM    3  N   UNL     1     -41.808 -53.547  12.331  1.00  0.00    -0.282 N 
ATOM      4  HN  UNL     1     -41.442 -54.483  12.152  1.00  0.00     0.184 HD
HETATM    5  C   UNL     1     -43.006 -53.258  12.919  1.00  0.00     0.075 A 
HETATM    6  C   UNL     1     -44.028 -54.097  13.379  1.00  0.00     0.058 A 
HETATM    7  C   UNL     1     -45.175 -53.512  13.935  1.00  0.00     0.058 A 
HETATM    8 CL   UNL     1     -46.437 -54.580  14.449  1.00  0.00    -0.082 Cl
HETATM    9  C   UNL     1     -45.288 -52.119  14.052  1.00  0.00     0.058 A 
HETATM   10 CL   UNL     1     -46.679 -51.364  14.752  1.00  0.00    -0.082 Cl
HETATM   11  C   UNL     1     -44.271 -51.270  13.590  1.00  0.00     0.058 A 
HETATM   12  C   UNL     1     -43.154 -51.881  13.013  1.00  0.00     0.078 A 
ENDROOT
BRANCH   1  13
HETATM   13  C   UNL     1     -41.685 -50.042  12.079  1.00  0.00     0.180 C 
BRANCH  13  14
HETATM   14  C   UNL     1     -40.302 -49.812  11.461  1.00  0.00     0.161 C 
BRANCH  14  15
HETATM   15  O   UNL     1     -40.441 -49.889  10.032  1.00  0.00    -0.392 OA
HETATM   16  H   UNL     1     -39.653 -50.339   9.677  1.00  0.00     0.210 HD
ENDBRANCH  14  15
BRANCH  14  17
HETATM   17  C   UNL     1     -39.682 -48.450  11.818  1.00  0.00     0.201 C 
BRANCH  17  18
HETATM   18  O   UNL     1     -40.619 -47.390  11.944  1.00  0.00    -0.382 OA
BRANCH  18  19
HETATM   19  C   UNL     1     -40.605 -46.476  10.844  1.00  0.00     0.232 C 
BRANCH  19  20
HETATM   20  C   UNL     1     -40.417 -45.116  11.394  1.00  0.00     0.076 A 
HETATM   21  C   UNL     1     -39.857 -44.609  12.548  1.00  0.00     0.037 A 
HETATM   22  C   UNL     1     -39.973 -43.203  12.466  1.00  0.00     0.027 A 
HETATM   23  C   UNL     1     -40.599 -42.938  11.273  1.00  0.00     0.142 A 
HETATM   24  O   UNL     1     -40.883 -44.093  10.620  1.00  0.00    -0.325 OA
ENDBRANCH  19  20
ENDBRANCH  18  19
ENDBRANCH  17  18
ENDBRANCH  14  17
ENDBRANCH  13  14
ENDBRANCH   1  13
TORSDOF 7
ENDMDL
MODEL 4
REMARK VINA RESULT:      -5.7      4.505      7.779
REMARK  7 active torsions:
REMARK  status: ('A' for Active; 'I' for Inactive)
REMARK    1  A    between atoms: O_1  and  C_2 
REMARK    2  A    between atoms: C_2  and  C_3 
REMARK    3  A    between atoms: C_2  and  C_11 
REMARK    4  A    between atoms: C_3  and  O_4 
REMARK    5  A    between atoms: O_4  and  C_5 
REMARK    6  A    between atoms: C_5  and  C_6 
REMARK    7  A    between atoms: C_11  and  N_12 
ROOT
HETATM    1  N   UNL     1     -41.121 -48.371  10.820  1.00  0.00    -0.271 N 
HETATM    2  N   UNL     1     -42.104 -48.355   9.900  1.00  0.00    -0.019 NA
HETATM    3  N   UNL     1     -42.423 -47.087   9.681  1.00  0.00    -0.282 N 
ATOM      4  HN  UNL     1     -43.138 -46.755   9.034  1.00  0.00     0.184 HD
HETATM    5  C   UNL     1     -41.631 -46.300  10.467  1.00  0.00     0.075 A 
HETATM    6  C   UNL     1     -41.546 -44.907  10.581  1.00  0.00     0.058 A 
HETATM    7  C   UNL     1     -40.613 -44.364  11.476  1.00  0.00     0.058 A 
HETATM    8 CL   UNL     1     -40.504 -42.638  11.554  1.00  0.00    -0.082 Cl
HETATM    9  C   UNL     1     -39.799 -45.195  12.260  1.00  0.00     0.058 A 
HETATM   10 CL   UNL     1     -38.653 -44.560  13.390  1.00  0.00    -0.082 Cl
HETATM   11  C   UNL     1     -39.874 -46.591  12.150  1.00  0.00     0.058 A 
HETATM   12  C   UNL     1     -40.792 -47.103  11.228  1.00  0.00     0.078 A 
ENDROOT
BRANCH   1  13
HETATM   13  C   UNL     1     -40.450 -49.610  11.132  1.00  0.00     0.180 C 
BRANCH  13  14
HETATM   14  C   UNL     1     -41.032 -50.420  12.294  1.00  0.00     0.161 C 
BRANCH  14  15
HETATM   15  O   UNL     1     -42.312 -50.925  11.879  1.00  0.00    -0.392 OA
HETATM   16  H   UNL     1     -42.270 -51.105  10.923  1.00  0.00     0.210 HD
ENDBRANCH  14  15
BRANCH  14  17
HETATM   17  C   UNL     1     -40.155 -51.608  12.724  1.00  0.00     0.201 C 
BRANCH  17  18
HETATM   18  O   UNL     1     -40.559 -52.862  12.191  1.00  0.00    -0.382 OA
BRANCH  18  19
HETATM   19  C   UNL     1     -40.586 -53.916  13.158  1.00  0.00     0.232 C 
BRANCH  19  20
HETATM   20  C   UNL     1     -42.000 -54.147  13.529  1.00  0.00     0.076 A 
HETATM   21  C   UNL     1     -42.633 -54.728  14.608  1.00  0.00     0.037 A 
HETATM   22  C   UNL     1     -44.021 -54.614  14.367  1.00  0.00     0.027 A 
HETATM   23  C   UNL     1     -44.150 -53.977  13.157  1.00  0.00     0.142 A 
HETATM   24  O   UNL     1     -42.928 -53.700  12.635  1.00  0.00    -0.325 OA
ENDBRANCH  19  20
ENDBRANCH  18  19
ENDBRANCH  17  18
ENDBRANCH  14  17
ENDBRANCH  13  14
ENDBRANCH   1  13
TORSDOF 7
ENDMDL
MODEL 5
REMARK VINA RESULT:      -5.7      2.231      4.063
REMARK  7 active torsions:
REMARK  status: ('A' for Active; 'I' for Inactive)
REMARK    1  A    between atoms: O_1  and  C_2 
REMARK    2  A    between atoms: C_2  and  C_3 
REMARK    3  A    between atoms: C_2  and  C_11 
REMARK    4  A    between atoms: C_3  and  O_4 
REMARK    5  A    between atoms: O_4  and  C_5 
REMARK    6  A    between atoms: C_5  and  C_6 
REMARK    7  A    between atoms: C_11  and  N_12 
ROOT
HETATM    1  N   UNL     1     -42.125 -51.274  12.408  1.00  0.00    -0.271 N 
HETATM    2  N   UNL     1     -41.278 -52.236  11.996  1.00  0.00    -0.019 NA
HETATM    3  N   UNL     1     -41.825 -53.405  12.299  1.00  0.00    -0.282 N 
ATOM      4  HN  UNL     1     -41.417 -54.322  12.111  1.00  0.00     0.184 HD
HETATM    5  C   UNL     1     -43.027 -53.175  12.904  1.00  0.00     0.075 A 
HETATM    6  C   UNL     1     -44.002 -54.064  13.375  1.00  0.00     0.058 A 
HETATM    7  C   UNL     1     -45.168 -53.536  13.949  1.00  0.00     0.058 A 
HETATM    8 CL   UNL     1     -46.370 -54.664  14.477  1.00  0.00    -0.082 Cl
HETATM    9  C   UNL     1     -45.346 -52.150  14.072  1.00  0.00     0.058 A 
HETATM   10 CL   UNL     1     -46.761 -51.464  14.794  1.00  0.00    -0.082 Cl
HETATM   11  C   UNL     1     -44.377 -51.252  13.599  1.00  0.00     0.058 A 
HETATM   12  C   UNL     1     -43.240 -51.807  13.005  1.00  0.00     0.078 A 
ENDROOT
BRANCH   1  13
HETATM   13  C   UNL     1     -41.874 -49.898  12.056  1.00  0.00     0.180 C 
BRANCH  13  14
HETATM   14  C   UNL     1     -40.483 -49.586  11.496  1.00  0.00     0.161 C 
BRANCH  14  15
HETATM   15  O   UNL     1     -40.492 -49.908  10.095  1.00  0.00    -0.392 OA
HETATM   16  H   UNL     1     -40.367 -50.870  10.006  1.00  0.00     0.210 HD
ENDBRANCH  14  15
BRANCH  14  17
HETATM   17  C   UNL     1     -40.065 -48.114  11.655  1.00  0.00     0.201 C 
BRANCH  17  18
HETATM   18  O   UNL     1     -40.333 -47.561  12.936  1.00  0.00    -0.382 OA
BRANCH  18  19
HETATM   19  C   UNL     1     -39.263 -46.766  13.455  1.00  0.00     0.232 C 
BRANCH  19  20
HETATM   20  C   UNL     1     -38.410 -47.647  14.282  1.00  0.00     0.076 A 
HETATM   21  C   UNL     1     -37.070 -47.666  14.606  1.00  0.00     0.037 A 
HETATM   22  C   UNL     1     -36.881 -48.772  15.466  1.00  0.00     0.027 A 
HETATM   23  C   UNL     1     -38.114 -49.361  15.611  1.00  0.00     0.142 A 
HETATM   24  O   UNL     1     -39.046 -48.692  14.886  1.00  0.00    -0.325 OA
ENDBRANCH  19  20
ENDBRANCH  18  19
ENDBRANCH  17  18
ENDBRANCH  14  17
ENDBRANCH  13  14
ENDBRANCH   1  13
TORSDOF 7
ENDMDL
MODEL 6
REMARK VINA RESULT:      -5.6      1.956      2.311
REMARK  7 active torsions:
REMARK  status: ('A' for Active; 'I' for Inactive)
REMARK    1  A    between atoms: O_1  and  C_2 
REMARK    2  A    between atoms: C_2  and  C_3 
REMARK    3  A    between atoms: C_2  and  C_11 
REMARK    4  A    between atoms: C_3  and  O_4 
REMARK    5  A    between atoms: O_4  and  C_5 
REMARK    6  A    between atoms: C_5  and  C_6 
REMARK    7  A    between atoms: C_11  and  N_12 
ROOT
HETATM    1  N   UNL     1     -40.055 -51.204  12.485  1.00  0.00    -0.271 N 
HETATM    2  N   UNL     1     -38.924 -51.578  13.113  1.00  0.00    -0.019 NA
HETATM    3  N   UNL     1     -39.214 -52.630  13.865  1.00  0.00    -0.282 N 
ATOM      4  HN  UNL     1     -38.560 -53.137  14.461  1.00  0.00     0.184 HD
HETATM    5  C   UNL     1     -40.539 -52.922  13.706  1.00  0.00     0.075 A 
HETATM    6  C   UNL     1     -41.323 -53.950  14.243  1.00  0.00     0.058 A 
HETATM    7  C   UNL     1     -42.678 -54.016  13.887  1.00  0.00     0.058 A 
HETATM    8 CL   UNL     1     -43.603 -55.328  14.534  1.00  0.00    -0.082 Cl
HETATM    9  C   UNL     1     -43.244 -53.059  13.032  1.00  0.00     0.058 A 
HETATM   10 CL   UNL     1     -44.916 -53.096  12.588  1.00  0.00    -0.082 Cl
HETATM   11  C   UNL     1     -42.466 -52.028  12.485  1.00  0.00     0.058 A 
HETATM   12  C   UNL     1     -41.113 -52.006  12.834  1.00  0.00     0.078 A 
ENDROOT
BRANCH   1  13
HETATM   13  C   UNL     1     -40.007 -50.187  11.463  1.00  0.00     0.180 C 
BRANCH  13  14
HETATM   14  C   UNL     1     -40.028 -48.735  11.952  1.00  0.00     0.161 C 
BRANCH  14  15
HETATM   15  O   UNL     1     -40.013 -47.883  10.794  1.00  0.00    -0.392 OA
HETATM   16  H   UNL     1     -39.763 -48.424  10.024  1.00  0.00     0.210 HD
ENDBRANCH  14  15
BRANCH  14  17
HETATM   17  C   UNL     1     -41.261 -48.383  12.801  1.00  0.00     0.201 C 
BRANCH  17  18
HETATM   18  O   UNL     1     -42.505 -48.564  12.138  1.00  0.00    -0.382 OA
BRANCH  18  19
HETATM   19  C   UNL     1     -43.152 -47.339  11.785  1.00  0.00     0.232 C 
BRANCH  19  20
HETATM   20  C   UNL     1     -43.672 -47.486  10.408  1.00  0.00     0.076 A 
HETATM   21  C   UNL     1     -44.933 -47.521   9.850  1.00  0.00     0.037 A 
HETATM   22  C   UNL     1     -44.751 -47.666   8.456  1.00  0.00     0.027 A 
HETATM   23  C   UNL     1     -43.394 -47.715   8.249  1.00  0.00     0.142 A 
HETATM   24  O   UNL     1     -42.731 -47.619   9.429  1.00  0.00    -0.325 OA
ENDBRANCH  19  20
ENDBRANCH  18  19
ENDBRANCH  17  18
ENDBRANCH  14  17
ENDBRANCH  13  14
ENDBRANCH   1  13
TORSDOF 7
ENDMDL
MODEL 7
REMARK VINA RESULT:      -5.6      3.831      6.944
REMARK  7 active torsions:
REMARK  status: ('A' for Active; 'I' for Inactive)
REMARK    1  A    between atoms: O_1  and  C_2 
REMARK    2  A    between atoms: C_2  and  C_3 
REMARK    3  A    between atoms: C_2  and  C_11 
REMARK    4  A    between atoms: C_3  and  O_4 
REMARK    5  A    between atoms: O_4  and  C_5 
REMARK    6  A    between atoms: C_5  and  C_6 
REMARK    7  A    between atoms: C_11  and  N_12 
ROOT
HETATM    1  N   UNL     1     -41.354 -50.290  12.512  1.00  0.00    -0.271 N 
HETATM    2  N   UNL     1     -40.182 -50.578  13.109  1.00  0.00    -0.019 NA
HETATM    3  N   UNL     1     -39.352 -49.575  12.863  1.00  0.00    -0.282 N 
ATOM      4  HN  UNL     1     -38.385 -49.507  13.183  1.00  0.00     0.184 HD
HETATM    5  C   UNL     1     -40.008 -48.646  12.107  1.00  0.00     0.075 A 
HETATM    6  C   UNL     1     -39.594 -47.401  11.619  1.00  0.00     0.058 A 
HETATM    7  C   UNL     1     -40.502 -46.640  10.868  1.00  0.00     0.058 A 
HETATM    8 CL   UNL     1     -39.968 -45.086  10.322  1.00  0.00    -0.082 Cl
HETATM    9  C   UNL     1     -41.789 -47.122  10.591  1.00  0.00     0.058 A 
HETATM   10 CL   UNL     1     -42.928 -46.220   9.651  1.00  0.00    -0.082 Cl
HETATM   11  C   UNL     1     -42.215 -48.366  11.080  1.00  0.00     0.058 A 
HETATM   12  C   UNL     1     -41.298 -49.089  11.849  1.00  0.00     0.078 A 
ENDROOT
BRANCH   1  13
HETATM   13  C   UNL     1     -42.507 -51.122  12.753  1.00  0.00     0.180 C 
BRANCH  13  14
HETATM   14  C   UNL     1     -42.489 -52.508  12.099  1.00  0.00     0.161 C 
BRANCH  14  15
HETATM   15  O   UNL     1     -41.320 -52.585  11.267  1.00  0.00    -0.392 OA
HETATM   16  H   UNL     1     -40.566 -52.842  11.828  1.00  0.00     0.210 HD
ENDBRANCH  14  15
BRANCH  14  17
HETATM   17  C   UNL     1     -42.449 -53.669  13.107  1.00  0.00     0.201 C 
BRANCH  17  18
HETATM   18  O   UNL     1     -43.712 -54.261  13.376  1.00  0.00    -0.382 OA
BRANCH  18  19
HETATM   19  C   UNL     1     -44.190 -54.019  14.702  1.00  0.00     0.232 C 
BRANCH  19  20
HETATM   20  C   UNL     1     -45.204 -52.944  14.624  1.00  0.00     0.076 A 
HETATM   21  C   UNL     1     -45.985 -52.425  13.613  1.00  0.00     0.037 A 
HETATM   22  C   UNL     1     -46.775 -51.409  14.198  1.00  0.00     0.027 A 
HETATM   23  C   UNL     1     -46.426 -51.369  15.526  1.00  0.00     0.142 A 
HETATM   24  O   UNL     1     -45.464 -52.288  15.792  1.00  0.00    -0.325 OA
ENDBRANCH  19  20
ENDBRANCH  18  19
ENDBRANCH  17  18
ENDBRANCH  14  17
ENDBRANCH  13  14
ENDBRANCH   1  13
TORSDOF 7
ENDMDL
MODEL 8
REMARK VINA RESULT:      -5.5      3.070      5.534
REMARK  7 active torsions:
REMARK  status: ('A' for Active; 'I' for Inactive)
REMARK    1  A    between atoms: O_1  and  C_2 
REMARK    2  A    between atoms: C_2  and  C_3 
REMARK    3  A    between atoms: C_2  and  C_11 
REMARK    4  A    between atoms: C_3  and  O_4 
REMARK    5  A    between atoms: O_4  and  C_5 
REMARK    6  A    between atoms: C_5  and  C_6 
REMARK    7  A    between atoms: C_11  and  N_12 
ROOT
HETATM    1  N   UNL     1     -42.081 -49.671  13.791  1.00  0.00    -0.271 N 
HETATM    2  N   UNL     1     -41.473 -49.508  14.982  1.00  0.00    -0.019 NA
HETATM    3  N   UNL     1     -42.292 -49.975  15.915  1.00  0.00    -0.282 N 
ATOM      4  HN  UNL     1     -42.109 -49.986  16.918  1.00  0.00     0.184 HD
HETATM    5  C   UNL     1     -43.423 -50.437  15.304  1.00  0.00     0.075 A 
HETATM    6  C   UNL     1     -44.563 -51.054  15.832  1.00  0.00     0.058 A 
HETATM    7  C   UNL     1     -45.582 -51.445  14.951  1.00  0.00     0.058 A 
HETATM    8 CL   UNL     1     -46.955 -52.247  15.635  1.00  0.00    -0.082 Cl
HETATM    9  C   UNL     1     -45.475 -51.203  13.573  1.00  0.00     0.058 A 
HETATM   10 CL   UNL     1     -46.720 -51.652  12.460  1.00  0.00    -0.082 Cl
HETATM   11  C   UNL     1     -44.334 -50.589  13.035  1.00  0.00     0.058 A 
HETATM   12  C   UNL     1     -43.323 -50.238  13.934  1.00  0.00     0.078 A 
ENDROOT
BRANCH   1  13
HETATM   13  C   UNL     1     -41.354 -49.412  12.573  1.00  0.00     0.180 C 
BRANCH  13  14
HETATM   14  C   UNL     1     -40.953 -50.641  11.751  1.00  0.00     0.161 C 
BRANCH  14  15
HETATM   15  O   UNL     1     -40.388 -50.176  10.513  1.00  0.00    -0.392 OA
HETATM   16  H   UNL     1     -40.108 -50.954   9.998  1.00  0.00     0.210 HD
ENDBRANCH  14  15
BRANCH  14  17
HETATM   17  C   UNL     1     -39.922 -51.545  12.448  1.00  0.00     0.201 C 
BRANCH  17  18
HETATM   18  O   UNL     1     -40.227 -52.933  12.399  1.00  0.00    -0.382 OA
BRANCH  18  19
HETATM   19  C   UNL     1     -40.218 -53.568  13.681  1.00  0.00     0.232 C 
BRANCH  19  20
HETATM   20  C   UNL     1     -41.597 -54.025  13.964  1.00  0.00     0.076 A 
HETATM   21  C   UNL     1     -42.812 -53.881  13.327  1.00  0.00     0.037 A 
HETATM   22  C   UNL     1     -43.759 -54.583  14.107  1.00  0.00     0.027 A 
HETATM   23  C   UNL     1     -43.067 -55.107  15.171  1.00  0.00     0.142 A 
HETATM   24  O   UNL     1     -41.756 -54.764  15.100  1.00  0.00    -0.325 OA
ENDBRANCH  19  20
ENDBRANCH  18  19
ENDBRANCH  17  18
ENDBRANCH  14  17
ENDBRANCH  13  14
ENDBRANCH   1  13
TORSDOF 7
ENDMDL
MODEL 9
REMARK VINA RESULT:      -5.5      2.995      5.423
REMARK  7 active torsions:
REMARK  status: ('A' for Active; 'I' for Inactive)
REMARK    1  A    between atoms: O_1  and  C_2 
REMARK    2  A    between atoms: C_2  and  C_3 
REMARK    3  A    between atoms: C_2  and  C_11 
REMARK    4  A    between atoms: C_3  and  O_4 
REMARK    5  A    between atoms: O_4  and  C_5 
REMARK    6  A    between atoms: C_5  and  C_6 
REMARK    7  A    between atoms: C_11  and  N_12 
ROOT
HETATM    1  N   UNL     1     -41.279 -51.937  12.239  1.00  0.00    -0.271 N 
HETATM    2  N   UNL     1     -40.528 -53.031  12.010  1.00  0.00    -0.019 NA
HETATM    3  N   UNL     1     -41.229 -54.085  12.404  1.00  0.00    -0.282 N 
ATOM      4  HN  UNL     1     -40.922 -55.057  12.357  1.00  0.00     0.184 HD
HETATM    5  C   UNL     1     -42.431 -53.650  12.883  1.00  0.00     0.075 A 
HETATM    6  C   UNL     1     -43.532 -54.359  13.378  1.00  0.00     0.058 A 
HETATM    7  C   UNL     1     -44.661 -53.638  13.794  1.00  0.00     0.058 A 
HETATM    8 CL   UNL     1     -46.020 -54.552  14.356  1.00  0.00    -0.082 Cl
HETATM    9  C   UNL     1     -44.681 -52.237  13.739  1.00  0.00     0.058 A 
HETATM   10 CL   UNL     1     -46.048 -51.314  14.263  1.00  0.00    -0.082 Cl
HETATM   11  C   UNL     1     -43.584 -51.518  13.240  1.00  0.00     0.058 A 
HETATM   12  C   UNL     1     -42.486 -52.265  12.806  1.00  0.00     0.078 A 
ENDROOT
BRANCH   1  13
HETATM   13  C   UNL     1     -40.845 -50.652  11.749  1.00  0.00     0.180 C 
BRANCH  13  14
HETATM   14  C   UNL     1     -39.388 -50.275  12.036  1.00  0.00     0.161 C 
BRANCH  14  15
HETATM   15  O   UNL     1     -39.069 -49.118  11.245  1.00  0.00    -0.392 OA
HETATM   16  H   UNL     1     -38.403 -48.597  11.728  1.00  0.00     0.210 HD
ENDBRANCH  14  15
BRANCH  14  17
HETATM   17  C   UNL     1     -39.111 -49.948  13.513  1.00  0.00     0.201 C 
BRANCH  17  18
HETATM   18  O   UNL     1     -38.761 -51.071  14.311  1.00  0.00    -0.382 OA
BRANCH  18  19
HETATM   19  C   UNL     1     -39.682 -51.331  15.374  1.00  0.00     0.232 C 
BRANCH  19  20
HETATM   20  C   UNL     1     -39.819 -52.798  15.500  1.00  0.00     0.076 A 
HETATM   21  C   UNL     1     -40.694 -53.633  16.163  1.00  0.00     0.037 A 
HETATM   22  C   UNL     1     -40.294 -54.955  15.861  1.00  0.00     0.027 A 
HETATM   23  C   UNL     1     -39.199 -54.846  15.039  1.00  0.00     0.142 A 
HETATM   24  O   UNL     1     -38.895 -53.541  14.823  1.00  0.00    -0.325 OA
ENDBRANCH  19  20
ENDBRANCH  18  19
ENDBRANCH  17  18
ENDBRANCH  14  17
ENDBRANCH  13  14
ENDBRANCH   1  13
TORSDOF 7
ENDMDL
