MODEL 1
REMARK VINA RESULT:      -6.4      0.000      0.000
REMARK  6 active torsions:
REMARK  status: ('A' for Active; 'I' for Inactive)
REMARK    1  A    between atoms: C_2  and  O_3 
REMARK    2  A    between atoms: C_2  and  C_4 
REMARK    3  A    between atoms: N_13  and  C_14 
REMARK    4  A    between atoms: C_14  and  C_15 
REMARK    5  A    between atoms: C_15  and  O_16 
REMARK    6  A    between atoms: O_16  and  C_17 
ROOT
HETATM    1  C   UNL     1     -42.217 -52.598  12.881  1.00  0.00     0.113 A 
HETATM    2  N   UNL     1     -43.244 -52.973  12.140  1.00  0.00    -0.342 N 
ATOM      3  HN  UNL     1     -43.209 -53.509  11.273  1.00  0.00     0.167 HD
HETATM    4  C   UNL     1     -44.363 -52.500  12.765  1.00  0.00     0.060 A 
HETATM    5  C   UNL     1     -45.706 -52.644  12.391  1.00  0.00     0.032 A 
HETATM    6  C   UNL     1     -46.691 -52.052  13.184  1.00  0.00     0.002 A 
HETATM    7  C   UNL     1     -46.342 -51.324  14.323  1.00  0.00     0.002 A 
HETATM    8  C   UNL     1     -45.004 -51.178  14.717  1.00  0.00     0.032 A 
HETATM    9  C   UNL     1     -44.031 -51.787  13.912  1.00  0.00     0.062 A 
HETATM   10  N   UNL     1     -42.653 -51.874  13.978  1.00  0.00    -0.331 N 
ENDROOT
BRANCH  10  11
HETATM   11  C   UNL     1     -41.823 -51.291  15.020  1.00  0.00     0.157 C 
BRANCH  11  12
HETATM   12  C   UNL     1     -41.389 -49.872  14.670  1.00  0.00     0.196 C 
BRANCH  12  13
HETATM   13  O   UNL     1     -39.999 -49.685  14.961  1.00  0.00    -0.350 OA
BRANCH  13  14
HETATM   14  C   UNL     1     -39.139 -49.959  13.922  1.00  0.00     0.068 A 
HETATM   15  C   UNL     1     -38.089 -50.884  13.962  1.00  0.00     0.037 A 
HETATM   16  C   UNL     1     -37.268 -51.075  12.850  1.00  0.00     0.003 A 
HETATM   17  C   UNL     1     -37.489 -50.346  11.685  1.00  0.00     0.000 A 
HETATM   18  C   UNL     1     -38.534 -49.426  11.633  1.00  0.00     0.003 A 
HETATM   19  C   UNL     1     -39.356 -49.233  12.749  1.00  0.00     0.037 A 
ENDBRANCH  13  14
ENDBRANCH  12  13
ENDBRANCH  11  12
ENDBRANCH  10  11
BRANCH   1  20
HETATM   20  C   UNL     1     -40.788 -52.946  12.587  1.00  0.00     0.181 C 
HETATM   21  C   UNL     1     -40.323 -54.166  13.374  1.00  0.00     0.047 C 
BRANCH  20  22
HETATM   22  O   UNL     1     -40.679 -53.227  11.194  1.00  0.00    -0.388 OA
HETATM   23  H   UNL     1     -40.840 -52.390  10.723  1.00  0.00     0.210 HD
ENDBRANCH  20  22
ENDBRANCH   1  20
TORSDOF 6
ENDMDL
MODEL 2
REMARK VINA RESULT:      -6.1      1.903      2.687
REMARK  6 active torsions:
REMARK  status: ('A' for Active; 'I' for Inactive)
REMARK    1  A    between atoms: C_2  and  O_3 
REMARK    2  A    between atoms: C_2  and  C_4 
REMARK    3  A    between atoms: N_13  and  C_14 
REMARK    4  A    between atoms: C_14  and  C_15 
REMARK    5  A    between atoms: C_15  and  O_16 
REMARK    6  A    between atoms: O_16  and  C_17 
ROOT
HETATM    1  C   UNL     1     -42.244 -52.658  12.861  1.00  0.00     0.113 A 
HETATM    2  N   UNL     1     -43.271 -53.082  12.148  1.00  0.00    -0.342 N 
ATOM      3  HN  UNL     1     -43.236 -53.675  11.318  1.00  0.00     0.167 HD
HETATM    4  C   UNL     1     -44.390 -52.570  12.742  1.00  0.00     0.060 A 
HETATM    5  C   UNL     1     -45.733 -52.741  12.379  1.00  0.00     0.032 A 
HETATM    6  C   UNL     1     -46.718 -52.098  13.133  1.00  0.00     0.002 A 
HETATM    7  C   UNL     1     -46.368 -51.297  14.221  1.00  0.00     0.002 A 
HETATM    8  C   UNL     1     -45.030 -51.123  14.602  1.00  0.00     0.032 A 
HETATM    9  C   UNL     1     -44.058 -51.783  13.839  1.00  0.00     0.062 A 
HETATM   10  N   UNL     1     -42.680 -51.863  13.908  1.00  0.00    -0.331 N 
ENDROOT
BRANCH  10  11
HETATM   11  C   UNL     1     -41.849 -51.212  14.908  1.00  0.00     0.157 C 
BRANCH  11  12
HETATM   12  C   UNL     1     -41.624 -49.739  14.584  1.00  0.00     0.196 C 
BRANCH  12  13
HETATM   13  O   UNL     1     -40.937 -49.597  13.336  1.00  0.00    -0.350 OA
BRANCH  13  14
HETATM   14  C   UNL     1     -41.525 -48.740  12.435  1.00  0.00     0.068 A 
HETATM   15  C   UNL     1     -42.892 -48.690  12.137  1.00  0.00     0.037 A 
HETATM   16  C   UNL     1     -43.382 -47.785  11.195  1.00  0.00     0.003 A 
HETATM   17  C   UNL     1     -42.511 -46.916  10.543  1.00  0.00     0.000 A 
HETATM   18  C   UNL     1     -41.150 -46.954  10.836  1.00  0.00     0.003 A 
HETATM   19  C   UNL     1     -40.658 -47.863  11.779  1.00  0.00     0.037 A 
ENDBRANCH  13  14
ENDBRANCH  12  13
ENDBRANCH  11  12
ENDBRANCH  10  11
BRANCH   1  20
HETATM   20  C   UNL     1     -40.814 -53.023  12.588  1.00  0.00     0.181 C 
HETATM   21  C   UNL     1     -40.384 -54.266  13.361  1.00  0.00     0.047 C 
BRANCH  20  22
HETATM   22  O   UNL     1     -40.682 -53.278  11.192  1.00  0.00    -0.388 OA
HETATM   23  H   UNL     1     -41.582 -53.389  10.839  1.00  0.00     0.210 HD
ENDBRANCH  20  22
ENDBRANCH   1  20
TORSDOF 6
ENDMDL
MODEL 3
REMARK VINA RESULT:      -5.9      4.023      7.377
REMARK  6 active torsions:
REMARK  status: ('A' for Active; 'I' for Inactive)
REMARK    1  A    between atoms: C_2  and  O_3 
REMARK    2  A    between atoms: C_2  and  C_4 
REMARK    3  A    between atoms: N_13  and  C_14 
REMARK    4  A    between atoms: C_14  and  C_15 
REMARK    5  A    between atoms: C_15  and  O_16 
REMARK    6  A    between atoms: O_16  and  C_17 
ROOT
HETATM    1  C   UNL     1     -42.120 -47.065  10.131  1.00  0.00     0.113 A 
HETATM    2  N   UNL     1     -41.653 -45.830  10.097  1.00  0.00    -0.342 N 
ATOM      3  HN  UNL     1     -41.879 -45.110   9.411  1.00  0.00     0.167 HD
HETATM    4  C   UNL     1     -40.807 -45.709  11.163  1.00  0.00     0.060 A 
HETATM    5  C   UNL     1     -40.073 -44.589  11.579  1.00  0.00     0.032 A 
HETATM    6  C   UNL     1     -39.250 -44.707  12.702  1.00  0.00     0.002 A 
HETATM    7  C   UNL     1     -39.157 -45.917  13.390  1.00  0.00     0.002 A 
HETATM    8  C   UNL     1     -39.892 -47.043  12.993  1.00  0.00     0.032 A 
HETATM    9  C   UNL     1     -40.718 -46.903  11.870  1.00  0.00     0.062 A 
HETATM   10  N   UNL     1     -41.577 -47.756  11.202  1.00  0.00    -0.331 N 
ENDROOT
BRANCH  10  11
HETATM   11  C   UNL     1     -41.845 -49.137  11.570  1.00  0.00     0.157 C 
BRANCH  11  12
HETATM   12  C   UNL     1     -42.985 -49.244  12.576  1.00  0.00     0.196 C 
BRANCH  12  13
HETATM   13  O   UNL     1     -43.147 -50.598  13.012  1.00  0.00    -0.350 OA
BRANCH  13  14
HETATM   14  C   UNL     1     -44.327 -50.869  13.664  1.00  0.00     0.068 A 
HETATM   15  C   UNL     1     -45.500 -51.338  13.058  1.00  0.00     0.037 A 
HETATM   16  C   UNL     1     -46.648 -51.569  13.816  1.00  0.00     0.003 A 
HETATM   17  C   UNL     1     -46.637 -51.339  15.188  1.00  0.00     0.000 A 
HETATM   18  C   UNL     1     -45.475 -50.877  15.802  1.00  0.00     0.003 A 
HETATM   19  C   UNL     1     -44.324 -50.643  15.042  1.00  0.00     0.037 A 
ENDBRANCH  13  14
ENDBRANCH  12  13
ENDBRANCH  11  12
ENDBRANCH  10  11
BRANCH   1  20
HETATM   20  C   UNL     1     -43.124 -47.619   9.163  1.00  0.00     0.181 C 
HETATM   21  C   UNL     1     -44.556 -47.424   9.652  1.00  0.00     0.047 C 
BRANCH  20  22
HETATM   22  O   UNL     1     -42.964 -46.937   7.922  1.00  0.00    -0.388 OA
HETATM   23  H   UNL     1     -43.537 -47.387   7.276  1.00  0.00     0.210 HD
ENDBRANCH  20  22
ENDBRANCH   1  20
TORSDOF 6
ENDMDL
MODEL 4
REMARK VINA RESULT:      -5.9      1.989      2.726
REMARK  6 active torsions:
REMARK  status: ('A' for Active; 'I' for Inactive)
REMARK    1  A    between atoms: C_2  and  O_3 
REMARK    2  A    between atoms: C_2  and  C_4 
REMARK    3  A    between atoms: N_13  and  C_14 
REMARK    4  A    between atoms: C_14  and  C_15 
REMARK    5  A    between atoms: C_15  and  O_16 
REMARK    6  A    between atoms: O_16  and  C_17 
ROOT
HETATM    1  C   UNL     1     -40.881 -53.797  13.910  1.00  0.00     0.113 A 
HETATM    2  N   UNL     1     -41.615 -54.543  14.715  1.00  0.00    -0.342 N 
ATOM      3  HN  UNL     1     -41.287 -55.083  15.516  1.00  0.00     0.167 HD
HETATM    4  C   UNL     1     -42.900 -54.448  14.263  1.00  0.00     0.060 A 
HETATM    5  C   UNL     1     -44.060 -55.039  14.782  1.00  0.00     0.032 A 
HETATM    6  C   UNL     1     -45.276 -54.812  14.134  1.00  0.00     0.002 A 
HETATM    7  C   UNL     1     -45.332 -54.019  12.987  1.00  0.00     0.002 A 
HETATM    8  C   UNL     1     -44.182 -53.413  12.460  1.00  0.00     0.032 A 
HETATM    9  C   UNL     1     -42.973 -53.646  13.130  1.00  0.00     0.062 A 
HETATM   10  N   UNL     1     -41.672 -53.226  12.927  1.00  0.00    -0.331 N 
ENDROOT
BRANCH  10  11
HETATM   11  C   UNL     1     -41.229 -52.345  11.859  1.00  0.00     0.157 C 
BRANCH  11  12
HETATM   12  C   UNL     1     -41.608 -50.894  12.128  1.00  0.00     0.196 C 
BRANCH  12  13
HETATM   13  O   UNL     1     -40.511 -50.022  11.830  1.00  0.00    -0.350 OA
BRANCH  13  14
HETATM   14  C   UNL     1     -39.424 -50.140  12.664  1.00  0.00     0.068 A 
HETATM   15  C   UNL     1     -38.153 -50.588  12.281  1.00  0.00     0.037 A 
HETATM   16  C   UNL     1     -37.121 -50.678  13.215  1.00  0.00     0.003 A 
HETATM   17  C   UNL     1     -37.345 -50.319  14.541  1.00  0.00     0.000 A 
HETATM   18  C   UNL     1     -38.604 -49.868  14.931  1.00  0.00     0.003 A 
HETATM   19  C   UNL     1     -39.640 -49.779  13.995  1.00  0.00     0.037 A 
ENDBRANCH  13  14
ENDBRANCH  12  13
ENDBRANCH  11  12
ENDBRANCH  10  11
BRANCH   1  20
HETATM   20  C   UNL     1     -39.405 -53.577  14.069  1.00  0.00     0.181 C 
HETATM   21  C   UNL     1     -38.980 -53.587  15.534  1.00  0.00     0.047 C 
BRANCH  20  22
HETATM   22  O   UNL     1     -38.725 -54.626  13.384  1.00  0.00    -0.388 OA
HETATM   23  H   UNL     1     -38.776 -55.414  13.954  1.00  0.00     0.210 HD
ENDBRANCH  20  22
ENDBRANCH   1  20
TORSDOF 6
ENDMDL
MODEL 5
REMARK VINA RESULT:      -5.8      2.547      3.436
REMARK  6 active torsions:
REMARK  status: ('A' for Active; 'I' for Inactive)
REMARK    1  A    between atoms: C_2  and  O_3 
REMARK    2  A    between atoms: C_2  and  C_4 
REMARK    3  A    between atoms: N_13  and  C_14 
REMARK    4  A    between atoms: C_14  and  C_15 
REMARK    5  A    between atoms: C_15  and  O_16 
REMARK    6  A    between atoms: O_16  and  C_17 
ROOT
HETATM    1  C   UNL     1     -40.844 -53.795  13.933  1.00  0.00     0.113 A 
HETATM    2  N   UNL     1     -41.592 -54.533  14.733  1.00  0.00    -0.342 N 
ATOM      3  HN  UNL     1     -41.276 -55.071  15.539  1.00  0.00     0.167 HD
HETATM    4  C   UNL     1     -42.871 -54.433  14.266  1.00  0.00     0.060 A 
HETATM    5  C   UNL     1     -44.041 -55.014  14.775  1.00  0.00     0.032 A 
HETATM    6  C   UNL     1     -45.248 -54.783  14.112  1.00  0.00     0.002 A 
HETATM    7  C   UNL     1     -45.286 -53.994  12.962  1.00  0.00     0.002 A 
HETATM    8  C   UNL     1     -44.127 -53.397  12.445  1.00  0.00     0.032 A 
HETATM    9  C   UNL     1     -42.927 -53.634  13.129  1.00  0.00     0.062 A 
HETATM   10  N   UNL     1     -41.621 -53.223  12.939  1.00  0.00    -0.331 N 
ENDROOT
BRANCH  10  11
HETATM   11  C   UNL     1     -41.161 -52.349  11.872  1.00  0.00     0.157 C 
BRANCH  11  12
HETATM   12  C   UNL     1     -41.361 -50.878  12.220  1.00  0.00     0.196 C 
BRANCH  12  13
HETATM   13  O   UNL     1     -40.216 -50.109  11.833  1.00  0.00    -0.350 OA
BRANCH  13  14
HETATM   14  C   UNL     1     -40.475 -48.805  11.481  1.00  0.00     0.068 A 
HETATM   15  C   UNL     1     -39.660 -47.707  11.783  1.00  0.00     0.037 A 
HETATM   16  C   UNL     1     -40.025 -46.421  11.385  1.00  0.00     0.003 A 
HETATM   17  C   UNL     1     -41.206 -46.217  10.678  1.00  0.00     0.000 A 
HETATM   18  C   UNL     1     -42.022 -47.303  10.368  1.00  0.00     0.003 A 
HETATM   19  C   UNL     1     -41.657 -48.593  10.769  1.00  0.00     0.037 A 
ENDBRANCH  13  14
ENDBRANCH  12  13
ENDBRANCH  11  12
ENDBRANCH  10  11
BRANCH   1  20
HETATM   20  C   UNL     1     -39.369 -53.583  14.107  1.00  0.00     0.181 C 
HETATM   21  C   UNL     1     -38.961 -53.584  15.577  1.00  0.00     0.047 C 
BRANCH  20  22
HETATM   22  O   UNL     1     -38.688 -54.642  13.438  1.00  0.00    -0.388 OA
HETATM   23  H   UNL     1     -38.709 -54.435  12.487  1.00  0.00     0.210 HD
ENDBRANCH  20  22
ENDBRANCH   1  20
TORSDOF 6
ENDMDL
MODEL 6
REMARK VINA RESULT:      -5.7      4.068      6.228
REMARK  6 active torsions:
REMARK  status: ('A' for Active; 'I' for Inactive)
REMARK    1  A    between atoms: C_2  and  O_3 
REMARK    2  A    between atoms: C_2  and  C_4 
REMARK    3  A    between atoms: N_13  and  C_14 
REMARK    4  A    between atoms: C_14  and  C_15 
REMARK    5  A    between atoms: C_15  and  O_16 
REMARK    6  A    between atoms: O_16  and  C_17 
ROOT
HETATM    1  C   UNL     1     -42.323 -46.836  10.288  1.00  0.00     0.113 A 
HETATM    2  N   UNL     1     -41.521 -45.845   9.944  1.00  0.00    -0.342 N 
ATOM      3  HN  UNL     1     -41.468 -45.390   9.032  1.00  0.00     0.167 HD
HETATM    4  C   UNL     1     -40.776 -45.551  11.050  1.00  0.00     0.060 A 
HETATM    5  C   UNL     1     -39.792 -44.565  11.210  1.00  0.00     0.032 A 
HETATM    6  C   UNL     1     -39.143 -44.459  12.442  1.00  0.00     0.002 A 
HETATM    7  C   UNL     1     -39.463 -45.324  13.489  1.00  0.00     0.002 A 
HETATM    8  C   UNL     1     -40.451 -46.309  13.349  1.00  0.00     0.032 A 
HETATM    9  C   UNL     1     -41.098 -46.393  12.108  1.00  0.00     0.062 A 
HETATM   10  N   UNL     1     -42.101 -47.200  11.606  1.00  0.00    -0.331 N 
ENDROOT
BRANCH  10  11
HETATM   11  C   UNL     1     -42.786 -48.249  12.344  1.00  0.00     0.157 C 
BRANCH  11  12
HETATM   12  C   UNL     1     -42.099 -49.599  12.177  1.00  0.00     0.196 C 
BRANCH  12  13
HETATM   13  O   UNL     1     -41.171 -49.828  13.244  1.00  0.00    -0.350 OA
BRANCH  13  14
HETATM   14  C   UNL     1     -39.877 -50.081  12.854  1.00  0.00     0.068 A 
HETATM   15  C   UNL     1     -39.244 -49.525  11.735  1.00  0.00     0.037 A 
HETATM   16  C   UNL     1     -37.926 -49.860  11.425  1.00  0.00     0.003 A 
HETATM   17  C   UNL     1     -37.223 -50.751  12.231  1.00  0.00     0.000 A 
HETATM   18  C   UNL     1     -37.842 -51.307  13.349  1.00  0.00     0.003 A 
HETATM   19  C   UNL     1     -39.165 -50.973  13.659  1.00  0.00     0.037 A 
ENDBRANCH  13  14
ENDBRANCH  12  13
ENDBRANCH  11  12
ENDBRANCH  10  11
BRANCH   1  20
HETATM   20  C   UNL     1     -43.353 -47.447   9.383  1.00  0.00     0.181 C 
HETATM   21  C   UNL     1     -44.275 -46.396   8.775  1.00  0.00     0.047 C 
BRANCH  20  22
HETATM   22  O   UNL     1     -42.670 -48.125   8.332  1.00  0.00    -0.388 OA
HETATM   23  H   UNL     1     -42.174 -48.856   8.742  1.00  0.00     0.210 HD
ENDBRANCH  20  22
ENDBRANCH   1  20
TORSDOF 6
ENDMDL
MODEL 7
REMARK VINA RESULT:      -5.6      2.403      6.669
REMARK  6 active torsions:
REMARK  status: ('A' for Active; 'I' for Inactive)
REMARK    1  A    between atoms: C_2  and  O_3 
REMARK    2  A    between atoms: C_2  and  C_4 
REMARK    3  A    between atoms: N_13  and  C_14 
REMARK    4  A    between atoms: C_14  and  C_15 
REMARK    5  A    between atoms: C_15  and  O_16 
REMARK    6  A    between atoms: O_16  and  C_17 
ROOT
HETATM    1  C   UNL     1     -41.052 -48.574  11.900  1.00  0.00     0.113 A 
HETATM    2  N   UNL     1     -40.116 -48.878  11.019  1.00  0.00    -0.342 N 
ATOM      3  HN  UNL     1     -40.117 -48.652  10.024  1.00  0.00     0.167 HD
HETATM    4  C   UNL     1     -39.148 -49.555  11.704  1.00  0.00     0.060 A 
HETATM    5  C   UNL     1     -37.938 -50.078  11.228  1.00  0.00     0.032 A 
HETATM    6  C   UNL     1     -37.103 -50.756  12.120  1.00  0.00     0.002 A 
HETATM    7  C   UNL     1     -37.473 -50.914  13.457  1.00  0.00     0.002 A 
HETATM    8  C   UNL     1     -38.675 -50.389  13.951  1.00  0.00     0.032 A 
HETATM    9  C   UNL     1     -39.494 -49.704  13.043  1.00  0.00     0.062 A 
HETATM   10  N   UNL     1     -40.711 -49.057  13.152  1.00  0.00    -0.331 N 
ENDROOT
BRANCH  10  11
HETATM   11  C   UNL     1     -41.486 -48.924  14.375  1.00  0.00     0.157 C 
BRANCH  11  12
HETATM   12  C   UNL     1     -42.197 -50.222  14.737  1.00  0.00     0.196 C 
BRANCH  12  13
HETATM   13  O   UNL     1     -43.219 -50.521  13.779  1.00  0.00    -0.350 OA
BRANCH  13  14
HETATM   14  C   UNL     1     -44.452 -50.822  14.308  1.00  0.00     0.068 A 
HETATM   15  C   UNL     1     -44.800 -50.720  15.661  1.00  0.00     0.037 A 
HETATM   16  C   UNL     1     -46.082 -51.063  16.092  1.00  0.00     0.003 A 
HETATM   17  C   UNL     1     -47.032 -51.506  15.177  1.00  0.00     0.000 A 
HETATM   18  C   UNL     1     -46.698 -51.606  13.828  1.00  0.00     0.003 A 
HETATM   19  C   UNL     1     -45.411 -51.266  13.396  1.00  0.00     0.037 A 
ENDBRANCH  13  14
ENDBRANCH  12  13
ENDBRANCH  11  12
ENDBRANCH  10  11
BRANCH   1  20
HETATM   20  C   UNL     1     -42.289 -47.784  11.584  1.00  0.00     0.181 C 
HETATM   21  C   UNL     1     -42.143 -46.987  10.292  1.00  0.00     0.047 C 
BRANCH  20  22
HETATM   22  O   UNL     1     -43.373 -48.698  11.443  1.00  0.00    -0.388 OA
HETATM   23  H   UNL     1     -44.187 -48.205  11.648  1.00  0.00     0.210 HD
ENDBRANCH  20  22
ENDBRANCH   1  20
TORSDOF 6
ENDMDL
MODEL 8
REMARK VINA RESULT:      -5.6      2.808      6.374
REMARK  6 active torsions:
REMARK  status: ('A' for Active; 'I' for Inactive)
REMARK    1  A    between atoms: C_2  and  O_3 
REMARK    2  A    between atoms: C_2  and  C_4 
REMARK    3  A    between atoms: N_13  and  C_14 
REMARK    4  A    between atoms: C_14  and  C_15 
REMARK    5  A    between atoms: C_15  and  O_16 
REMARK    6  A    between atoms: O_16  and  C_17 
ROOT
HETATM    1  C   UNL     1     -44.495 -52.689  13.008  1.00  0.00     0.113 A 
HETATM    2  N   UNL     1     -43.721 -51.796  12.419  1.00  0.00    -0.342 N 
ATOM      3  HN  UNL     1     -44.023 -51.014  11.838  1.00  0.00     0.167 HD
HETATM    4  C   UNL     1     -42.436 -52.128  12.742  1.00  0.00     0.060 A 
HETATM    5  C   UNL     1     -41.245 -51.484  12.380  1.00  0.00     0.032 A 
HETATM    6  C   UNL     1     -40.032 -52.021  12.817  1.00  0.00     0.002 A 
HETATM    7  C   UNL     1     -40.009 -53.181  13.594  1.00  0.00     0.002 A 
HETATM    8  C   UNL     1     -41.192 -53.832  13.972  1.00  0.00     0.032 A 
HETATM    9  C   UNL     1     -42.398 -53.273  13.530  1.00  0.00     0.062 A 
HETATM   10  N   UNL     1     -43.728 -53.609  13.703  1.00  0.00    -0.331 N 
ENDROOT
BRANCH  10  11
HETATM   11  C   UNL     1     -44.215 -54.741  14.474  1.00  0.00     0.157 C 
BRANCH  11  12
HETATM   12  C   UNL     1     -44.215 -54.448  15.970  1.00  0.00     0.196 C 
BRANCH  12  13
HETATM   13  O   UNL     1     -45.536 -54.129  16.422  1.00  0.00    -0.350 OA
BRANCH  13  14
HETATM   14  C   UNL     1     -45.733 -52.817  16.784  1.00  0.00     0.068 A 
HETATM   15  C   UNL     1     -46.964 -52.250  17.139  1.00  0.00     0.037 A 
HETATM   16  C   UNL     1     -47.052 -50.900  17.480  1.00  0.00     0.003 A 
HETATM   17  C   UNL     1     -45.912 -50.102  17.475  1.00  0.00     0.000 A 
HETATM   18  C   UNL     1     -44.682 -50.657  17.129  1.00  0.00     0.003 A 
HETATM   19  C   UNL     1     -44.593 -52.011  16.784  1.00  0.00     0.037 A 
ENDBRANCH  13  14
ENDBRANCH  12  13
ENDBRANCH  11  12
ENDBRANCH  10  11
BRANCH   1  20
HETATM   20  C   UNL     1     -45.995 -52.677  12.956  1.00  0.00     0.181 C 
HETATM   21  C   UNL     1     -46.579 -51.431  13.613  1.00  0.00     0.047 C 
BRANCH  20  22
HETATM   22  O   UNL     1     -46.390 -52.705  11.587  1.00  0.00    -0.388 OA
HETATM   23  H   UNL     1     -47.232 -53.192  11.546  1.00  0.00     0.210 HD
ENDBRANCH  20  22
ENDBRANCH   1  20
TORSDOF 6
ENDMDL
MODEL 9
REMARK VINA RESULT:      -5.5      2.515      6.585
REMARK  6 active torsions:
REMARK  status: ('A' for Active; 'I' for Inactive)
REMARK    1  A    between atoms: C_2  and  O_3 
REMARK    2  A    between atoms: C_2  and  C_4 
REMARK    3  A    between atoms: N_13  and  C_14 
REMARK    4  A    between atoms: C_14  and  C_15 
REMARK    5  A    between atoms: C_15  and  O_16 
REMARK    6  A    between atoms: O_16  and  C_17 
ROOT
HETATM    1  C   UNL     1     -40.092 -49.133  12.412  1.00  0.00     0.113 A 
HETATM    2  N   UNL     1     -39.081 -48.285  12.446  1.00  0.00    -0.342 N 
ATOM      3  HN  UNL     1     -38.808 -47.629  11.714  1.00  0.00     0.167 HD
HETATM    4  C   UNL     1     -38.472 -48.461  13.656  1.00  0.00     0.060 A 
HETATM    5  C   UNL     1     -37.361 -47.790  14.187  1.00  0.00     0.032 A 
HETATM    6  C   UNL     1     -36.898 -48.156  15.453  1.00  0.00     0.002 A 
HETATM    7  C   UNL     1     -37.526 -49.175  16.170  1.00  0.00     0.002 A 
HETATM    8  C   UNL     1     -38.643 -49.851  15.658  1.00  0.00     0.032 A 
HETATM    9  C   UNL     1     -39.098 -49.463  14.390  1.00  0.00     0.062 A 
HETATM   10  N   UNL     1     -40.142 -49.871  13.583  1.00  0.00    -0.331 N 
ENDROOT
BRANCH  10  11
HETATM   11  C   UNL     1     -41.110 -50.904  13.917  1.00  0.00     0.157 C 
BRANCH  11  12
HETATM   12  C   UNL     1     -40.644 -52.283  13.466  1.00  0.00     0.196 C 
BRANCH  12  13
HETATM   13  O   UNL     1     -41.545 -52.825  12.493  1.00  0.00    -0.350 OA
BRANCH  13  14
HETATM   14  C   UNL     1     -42.623 -53.508  13.007  1.00  0.00     0.068 A 
HETATM   15  C   UNL     1     -43.932 -53.445  12.513  1.00  0.00     0.037 A 
HETATM   16  C   UNL     1     -44.956 -54.173  13.119  1.00  0.00     0.003 A 
HETATM   17  C   UNL     1     -44.683 -54.975  14.223  1.00  0.00     0.000 A 
HETATM   18  C   UNL     1     -43.384 -55.048  14.721  1.00  0.00     0.003 A 
HETATM   19  C   UNL     1     -42.357 -54.316  14.114  1.00  0.00     0.037 A 
ENDBRANCH  13  14
ENDBRANCH  12  13
ENDBRANCH  11  12
ENDBRANCH  10  11
BRANCH   1  20
HETATM   20  C   UNL     1     -41.065 -49.247  11.275  1.00  0.00     0.181 C 
HETATM   21  C   UNL     1     -41.425 -47.883  10.693  1.00  0.00     0.047 C 
BRANCH  20  22
HETATM   22  O   UNL     1     -40.463 -50.040  10.255  1.00  0.00    -0.388 OA
HETATM   23  H   UNL     1     -41.031 -50.821  10.133  1.00  0.00     0.210 HD
ENDBRANCH  20  22
ENDBRANCH   1  20
TORSDOF 6
ENDMDL
