MODEL 1
REMARK VINA RESULT:      -6.9      0.000      0.000
REMARK  12 active torsions:
REMARK  status: ('A' for Active; 'I' for Inactive)
REMARK    1  A    between atoms: N_2  and  C_13 
REMARK    2  A    between atoms: C_6  and  N_8 
REMARK    3  A    between atoms: N_8  and  C_17 
REMARK    4  A    between atoms: N_8  and  C_18 
REMARK    5  A    between atoms: C_13  and  C_14 
REMARK    6  A    between atoms: C_14  and  C_19 
REMARK    7  A    between atoms: C_18  and  C_29 
REMARK    8  A    between atoms: C_19  and  O_20 
REMARK    9  A    between atoms: O_21  and  C_30 
REMARK   10  A    between atoms: O_24  and  C_29 
REMARK   11  A    between atoms: O_24  and  C_31 
REMARK   12  A    between atoms: C_30  and  C_31 
ROOT
HETATM    1  C   UNL     1     -42.319 -49.175  12.079  1.00  0.00     0.122 A 
HETATM    2  N   UNL     1     -42.507 -50.957  13.399  1.00  0.00    -0.326 N 
HETATM    3  C   UNL     1     -41.623 -50.277  12.588  1.00  0.00     0.140 A 
HETATM    4  N   UNL     1     -43.600 -49.175  12.611  1.00  0.00    -0.346 N 
ATOM      5  HN  UNL     1     -44.338 -48.494  12.433  1.00  0.00     0.167 HD
HETATM    6  C   UNL     1     -41.638 -48.333  11.133  1.00  0.00     0.135 A 
HETATM    7  C   UNL     1     -43.672 -50.235  13.393  1.00  0.00     0.185 A 
HETATM    8  N   UNL     1     -40.353 -48.706  10.842  1.00  0.00    -0.337 N 
ATOM      9  HN  UNL     1     -39.803 -48.154  10.184  1.00  0.00     0.168 HD
HETATM   10  N   UNL     1     -40.364 -50.645  12.303  1.00  0.00    -0.336 N 
ATOM     11  HN  UNL     1     -39.893 -51.457  12.702  1.00  0.00     0.168 HD
HETATM   12  C   UNL     1     -39.809 -49.796  11.417  1.00  0.00     0.183 A 
ENDROOT
BRANCH   6  13
HETATM   13  N   UNL     1     -42.162 -47.214  10.448  1.00  0.00    -0.359 N 
BRANCH  13  14
HETATM   14  C   UNL     1     -41.724 -45.862  10.842  1.00  0.00     0.077 C 
HETATM   15  C   UNL     1     -41.877 -45.638  12.356  1.00  0.00     0.032 C 
HETATM   16  C   UNL     1     -40.289 -45.561  10.392  1.00  0.00     0.032 C 
ENDBRANCH  13  14
BRANCH  13  17
HETATM   17  C   UNL     1     -42.903 -47.459   9.189  1.00  0.00     0.151 C 
BRANCH  17  18
HETATM   18  C   UNL     1     -43.657 -46.225   8.671  1.00  0.00     0.187 C 
BRANCH  18  19
HETATM   19  O   UNL     1     -45.086 -46.315   8.810  1.00  0.00    -0.387 OA
BRANCH  19  20
HETATM   20  C   UNL     1     -45.411 -47.556   9.455  1.00  0.00     0.193 C 
BRANCH  20  21
HETATM   21  C   UNL     1     -46.621 -48.237   8.829  1.00  0.00     0.190 C 
BRANCH  21  22
HETATM   22  O   UNL     1     -46.322 -48.558   7.471  1.00  0.00    -0.399 OA
HETATM   23  H   UNL     1     -47.170 -48.684   7.012  1.00  0.00     0.209 HD
ENDBRANCH  21  22
ENDBRANCH  20  21
ENDBRANCH  19  20
ENDBRANCH  18  19
ENDBRANCH  17  18
ENDBRANCH  13  17
ENDBRANCH   6  13
BRANCH   2  24
HETATM   24  C   UNL     1     -42.251 -52.193  14.153  1.00  0.00     0.143 C 
BRANCH  24  25
HETATM   25  C   UNL     1     -42.354 -53.538  13.345  1.00  0.00     0.001 C 
HETATM   26  C   UNL     1     -43.292 -53.365  12.122  1.00  0.00     0.039 C 
HETATM   27  C   UNL     1     -44.763 -53.330  12.542  1.00  0.00     0.168 C 
HETATM   28  O   UNL     1     -45.118 -54.568  13.147  1.00  0.00    -0.391 OA
HETATM   29  C   UNL     1     -44.428 -54.786  14.371  1.00  0.00     0.168 C 
HETATM   30  C   UNL     1     -42.916 -54.735  14.185  1.00  0.00     0.039 C 
BRANCH  25  31
HETATM   31  C   UNL     1     -40.932 -53.973  12.909  1.00  0.00     0.175 C 
BRANCH  31  32
HETATM   32  O   UNL     1     -40.670 -53.521  11.582  1.00  0.00    -0.400 OA
HETATM   33  H   UNL     1     -40.170 -52.681  11.648  1.00  0.00     0.209 HD
ENDBRANCH  31  32
ENDBRANCH  25  31
ENDBRANCH  24  25
ENDBRANCH   2  24
TORSDOF 12
ENDMDL
MODEL 2
REMARK VINA RESULT:      -6.4      1.799      3.160
REMARK  12 active torsions:
REMARK  status: ('A' for Active; 'I' for Inactive)
REMARK    1  A    between atoms: N_2  and  C_13 
REMARK    2  A    between atoms: C_6  and  N_8 
REMARK    3  A    between atoms: N_8  and  C_17 
REMARK    4  A    between atoms: N_8  and  C_18 
REMARK    5  A    between atoms: C_13  and  C_14 
REMARK    6  A    between atoms: C_14  and  C_19 
REMARK    7  A    between atoms: C_18  and  C_29 
REMARK    8  A    between atoms: C_19  and  O_20 
REMARK    9  A    between atoms: O_21  and  C_30 
REMARK   10  A    between atoms: O_24  and  C_29 
REMARK   11  A    between atoms: O_24  and  C_31 
REMARK   12  A    between atoms: C_30  and  C_31 
ROOT
HETATM    1  C   UNL     1     -42.484 -49.220  11.809  1.00  0.00     0.122 A 
HETATM    2  N   UNL     1     -42.538 -50.886  13.283  1.00  0.00    -0.326 N 
HETATM    3  C   UNL     1     -41.700 -50.197  12.433  1.00  0.00     0.140 A 
HETATM    4  N   UNL     1     -43.775 -49.301  12.310  1.00  0.00    -0.346 N 
ATOM      5  HN  UNL     1     -44.570 -48.716  12.053  1.00  0.00     0.167 HD
HETATM    6  C   UNL     1     -41.859 -48.404  10.804  1.00  0.00     0.135 A 
HETATM    7  C   UNL     1     -43.767 -50.287  13.186  1.00  0.00     0.185 A 
HETATM    8  N   UNL     1     -40.535 -48.671  10.577  1.00  0.00    -0.337 N 
ATOM      9  HN  UNL     1     -40.022 -48.128   9.882  1.00  0.00     0.168 HD
HETATM   10  N   UNL     1     -40.403 -50.462  12.211  1.00  0.00    -0.336 N 
ATOM     11  HN  UNL     1     -39.867 -51.183  12.694  1.00  0.00     0.168 HD
HETATM   12  C   UNL     1     -39.906 -49.644  11.263  1.00  0.00     0.183 A 
ENDROOT
BRANCH   6  13
HETATM   13  N   UNL     1     -42.468 -47.409  10.007  1.00  0.00    -0.359 N 
BRANCH  13  14
HETATM   14  C   UNL     1     -43.621 -47.772   9.163  1.00  0.00     0.077 C 
HETATM   15  C   UNL     1     -44.828 -46.858   9.431  1.00  0.00     0.032 C 
HETATM   16  C   UNL     1     -43.269 -47.779   7.670  1.00  0.00     0.032 C 
ENDBRANCH  13  14
BRANCH  13  17
HETATM   17  C   UNL     1     -42.104 -45.997  10.268  1.00  0.00     0.151 C 
BRANCH  17  18
HETATM   18  C   UNL     1     -42.228 -45.594  11.745  1.00  0.00     0.187 C 
BRANCH  18  19
HETATM   19  O   UNL     1     -42.532 -44.202  11.946  1.00  0.00    -0.387 OA
BRANCH  19  20
HETATM   20  C   UNL     1     -41.430 -43.583  12.629  1.00  0.00     0.193 C 
BRANCH  20  21
HETATM   21  C   UNL     1     -40.364 -43.074  11.668  1.00  0.00     0.190 C 
BRANCH  21  22
HETATM   22  O   UNL     1     -41.001 -42.479  10.539  1.00  0.00    -0.399 OA
HETATM   23  H   UNL     1     -40.649 -41.576  10.453  1.00  0.00     0.209 HD
ENDBRANCH  21  22
ENDBRANCH  20  21
ENDBRANCH  19  20
ENDBRANCH  18  19
ENDBRANCH  17  18
ENDBRANCH  13  17
ENDBRANCH   6  13
BRANCH   2  24
HETATM   24  C   UNL     1     -42.186 -52.018  14.155  1.00  0.00     0.143 C 
BRANCH  24  25
HETATM   25  C   UNL     1     -42.178 -53.439  13.483  1.00  0.00     0.001 C 
HETATM   26  C   UNL     1     -43.230 -53.508  12.347  1.00  0.00     0.039 C 
HETATM   27  C   UNL     1     -44.651 -53.615  12.902  1.00  0.00     0.168 C 
HETATM   28  O   UNL     1     -44.786 -54.820  13.646  1.00  0.00    -0.391 OA
HETATM   29  C   UNL     1     -43.972 -54.825  14.812  1.00  0.00     0.168 C 
HETATM   30  C   UNL     1     -42.502 -54.606  14.477  1.00  0.00     0.039 C 
BRANCH  25  31
HETATM   31  C   UNL     1     -40.752 -53.735  12.952  1.00  0.00     0.175 C 
BRANCH  31  32
HETATM   32  O   UNL     1     -40.672 -53.413  11.565  1.00  0.00    -0.400 OA
HETATM   33  H   UNL     1     -39.751 -53.582  11.275  1.00  0.00     0.209 HD
ENDBRANCH  31  32
ENDBRANCH  25  31
ENDBRANCH  24  25
ENDBRANCH   2  24
TORSDOF 12
ENDMDL
MODEL 3
REMARK VINA RESULT:      -6.4      1.760      2.433
REMARK  12 active torsions:
REMARK  status: ('A' for Active; 'I' for Inactive)
REMARK    1  A    between atoms: N_2  and  C_13 
REMARK    2  A    between atoms: C_6  and  N_8 
REMARK    3  A    between atoms: N_8  and  C_17 
REMARK    4  A    between atoms: N_8  and  C_18 
REMARK    5  A    between atoms: C_13  and  C_14 
REMARK    6  A    between atoms: C_14  and  C_19 
REMARK    7  A    between atoms: C_18  and  C_29 
REMARK    8  A    between atoms: C_19  and  O_20 
REMARK    9  A    between atoms: O_21  and  C_30 
REMARK   10  A    between atoms: O_24  and  C_29 
REMARK   11  A    between atoms: O_24  and  C_31 
REMARK   12  A    between atoms: C_30  and  C_31 
ROOT
HETATM    1  C   UNL     1     -41.246 -48.782  12.320  1.00  0.00     0.122 A 
HETATM    2  N   UNL     1     -42.234 -50.774  12.395  1.00  0.00    -0.326 N 
HETATM    3  C   UNL     1     -41.041 -50.149  12.102  1.00  0.00     0.140 A 
HETATM    4  N   UNL     1     -42.543 -48.595  12.775  1.00  0.00    -0.346 N 
ATOM      5  HN  UNL     1     -42.982 -47.710  13.026  1.00  0.00     0.167 HD
HETATM    6  C   UNL     1     -40.164 -47.887  12.010  1.00  0.00     0.135 A 
HETATM    7  C   UNL     1     -43.093 -49.793  12.818  1.00  0.00     0.185 A 
HETATM    8  N   UNL     1     -39.027 -48.488  11.540  1.00  0.00    -0.337 N 
ATOM      9  HN  UNL     1     -38.214 -47.918  11.305  1.00  0.00     0.168 HD
HETATM   10  N   UNL     1     -39.928 -50.740  11.641  1.00  0.00    -0.336 N 
ATOM     11  HN  UNL     1     -39.820 -51.745  11.501  1.00  0.00     0.168 HD
HETATM   12  C   UNL     1     -38.973 -49.825  11.387  1.00  0.00     0.183 A 
ENDROOT
BRANCH   6  13
HETATM   13  N   UNL     1     -40.169 -46.476  12.090  1.00  0.00    -0.359 N 
BRANCH  13  14
HETATM   14  C   UNL     1     -39.545 -45.822  13.255  1.00  0.00     0.077 C 
HETATM   15  C   UNL     1     -38.965 -44.447  12.887  1.00  0.00     0.032 C 
HETATM   16  C   UNL     1     -40.510 -45.702  14.441  1.00  0.00     0.032 C 
ENDBRANCH  13  14
BRANCH  13  17
HETATM   17  C   UNL     1     -40.544 -45.717  10.875  1.00  0.00     0.151 C 
BRANCH  17  18
HETATM   18  C   UNL     1     -41.991 -45.201  10.897  1.00  0.00     0.187 C 
BRANCH  18  19
HETATM   19  O   UNL     1     -42.979 -46.229  10.697  1.00  0.00    -0.387 OA
BRANCH  19  20
HETATM   20  C   UNL     1     -43.503 -46.113   9.365  1.00  0.00     0.193 C 
BRANCH  20  21
HETATM   21  C   UNL     1     -43.478 -47.437   8.614  1.00  0.00     0.190 C 
BRANCH  21  22
HETATM   22  O   UNL     1     -42.366 -48.207   9.064  1.00  0.00    -0.399 OA
HETATM   23  H   UNL     1     -41.850 -47.643   9.666  1.00  0.00     0.209 HD
ENDBRANCH  21  22
ENDBRANCH  20  21
ENDBRANCH  19  20
ENDBRANCH  18  19
ENDBRANCH  17  18
ENDBRANCH  13  17
ENDBRANCH   6  13
BRANCH   2  24
HETATM   24  C   UNL     1     -42.529 -52.212  12.309  1.00  0.00     0.143 C 
BRANCH  24  25
HETATM   25  C   UNL     1     -41.978 -53.109  13.477  1.00  0.00     0.001 C 
HETATM   26  C   UNL     1     -43.037 -54.160  13.899  1.00  0.00     0.039 C 
HETATM   27  C   UNL     1     -44.163 -53.526  14.717  1.00  0.00     0.168 C 
HETATM   28  O   UNL     1     -43.635 -52.984  15.922  1.00  0.00    -0.391 OA
HETATM   29  C   UNL     1     -42.749 -51.899  15.679  1.00  0.00     0.168 C 
HETATM   30  C   UNL     1     -41.599 -52.301  14.764  1.00  0.00     0.039 C 
BRANCH  25  31
HETATM   31  C   UNL     1     -40.663 -53.786  13.013  1.00  0.00     0.175 C 
BRANCH  31  32
HETATM   32  O   UNL     1     -40.522 -53.657  11.599  1.00  0.00    -0.400 OA
HETATM   33  H   UNL     1     -41.183 -53.002  11.294  1.00  0.00     0.209 HD
ENDBRANCH  31  32
ENDBRANCH  25  31
ENDBRANCH  24  25
ENDBRANCH   2  24
TORSDOF 12
ENDMDL
MODEL 4
REMARK VINA RESULT:      -5.9      2.414      3.647
REMARK  12 active torsions:
REMARK  status: ('A' for Active; 'I' for Inactive)
REMARK    1  A    between atoms: N_2  and  C_13 
REMARK    2  A    between atoms: C_6  and  N_8 
REMARK    3  A    between atoms: N_8  and  C_17 
REMARK    4  A    between atoms: N_8  and  C_18 
REMARK    5  A    between atoms: C_13  and  C_14 
REMARK    6  A    between atoms: C_14  and  C_19 
REMARK    7  A    between atoms: C_18  and  C_29 
REMARK    8  A    between atoms: C_19  and  O_20 
REMARK    9  A    between atoms: O_21  and  C_30 
REMARK   10  A    between atoms: O_24  and  C_29 
REMARK   11  A    between atoms: O_24  and  C_31 
REMARK   12  A    between atoms: C_30  and  C_31 
ROOT
HETATM    1  C   UNL     1     -42.282 -49.894  12.167  1.00  0.00     0.122 A 
HETATM    2  N   UNL     1     -42.037 -52.005  12.826  1.00  0.00    -0.326 N 
HETATM    3  C   UNL     1     -41.368 -50.951  12.243  1.00  0.00     0.140 A 
HETATM    4  N   UNL     1     -43.480 -50.302  12.734  1.00  0.00    -0.346 N 
ATOM      5  HN  UNL     1     -44.332 -49.750  12.832  1.00  0.00     0.167 HD
HETATM    6  C   UNL     1     -41.852 -48.684  11.520  1.00  0.00     0.135 A 
HETATM    7  C   UNL     1     -43.296 -51.549  13.123  1.00  0.00     0.185 A 
HETATM    8  N   UNL     1     -40.564 -48.698  11.054  1.00  0.00    -0.337 N 
ATOM      9  HN  UNL     1     -40.186 -47.873  10.589  1.00  0.00     0.168 HD
HETATM   10  N   UNL     1     -40.106 -50.968  11.786  1.00  0.00    -0.336 N 
ATOM     11  HN  UNL     1     -39.471 -51.761  11.867  1.00  0.00     0.168 HD
HETATM   12  C   UNL     1     -39.794 -49.793  11.205  1.00  0.00     0.183 A 
ENDROOT
BRANCH   6  13
HETATM   13  N   UNL     1     -42.620 -47.523  11.275  1.00  0.00    -0.359 N 
BRANCH  13  14
HETATM   14  C   UNL     1     -43.223 -47.329   9.943  1.00  0.00     0.077 C 
HETATM   15  C   UNL     1     -44.717 -47.688   9.942  1.00  0.00     0.032 C 
HETATM   16  C   UNL     1     -43.007 -45.908   9.409  1.00  0.00     0.032 C 
ENDBRANCH  13  14
BRANCH  13  17
HETATM   17  C   UNL     1     -43.018 -46.700  12.440  1.00  0.00     0.151 C 
BRANCH  17  18
HETATM   18  C   UNL     1     -41.827 -46.086  13.193  1.00  0.00     0.187 C 
BRANCH  18  19
HETATM   19  O   UNL     1     -41.349 -44.855  12.621  1.00  0.00    -0.387 OA
BRANCH  19  20
HETATM   20  C   UNL     1     -39.974 -45.024  12.242  1.00  0.00     0.193 C 
BRANCH  20  21
HETATM   21  C   UNL     1     -39.753 -44.810  10.751  1.00  0.00     0.190 C 
BRANCH  21  22
HETATM   22  O   UNL     1     -39.607 -46.079  10.116  1.00  0.00    -0.399 OA
HETATM   23  H   UNL     1     -39.360 -45.911   9.190  1.00  0.00     0.209 HD
ENDBRANCH  21  22
ENDBRANCH  20  21
ENDBRANCH  19  20
ENDBRANCH  18  19
ENDBRANCH  17  18
ENDBRANCH  13  17
ENDBRANCH   6  13
BRANCH   2  24
HETATM   24  C   UNL     1     -41.507 -53.347  13.112  1.00  0.00     0.143 C 
BRANCH  24  25
HETATM   25  C   UNL     1     -40.687 -53.504  14.444  1.00  0.00     0.001 C 
HETATM   26  C   UNL     1     -41.113 -54.793  15.193  1.00  0.00     0.039 C 
HETATM   27  C   UNL     1     -42.472 -54.624  15.875  1.00  0.00     0.168 C 
HETATM   28  O   UNL     1     -42.391 -53.597  16.857  1.00  0.00    -0.391 OA
HETATM   29  C   UNL     1     -42.147 -52.321  16.280  1.00  0.00     0.168 C 
HETATM   30  C   UNL     1     -40.875 -52.312  15.442  1.00  0.00     0.039 C 
BRANCH  25  31
HETATM   31  C   UNL     1     -39.175 -53.521  14.103  1.00  0.00     0.175 C 
BRANCH  31  32
HETATM   32  O   UNL     1     -38.856 -54.698  13.362  1.00  0.00    -0.400 OA
HETATM   33  H   UNL     1     -37.917 -54.914  13.540  1.00  0.00     0.209 HD
ENDBRANCH  31  32
ENDBRANCH  25  31
ENDBRANCH  24  25
ENDBRANCH   2  24
TORSDOF 12
ENDMDL
MODEL 5
REMARK VINA RESULT:      -5.9      2.207      4.169
REMARK  12 active torsions:
REMARK  status: ('A' for Active; 'I' for Inactive)
REMARK    1  A    between atoms: N_2  and  C_13 
REMARK    2  A    between atoms: C_6  and  N_8 
REMARK    3  A    between atoms: N_8  and  C_17 
REMARK    4  A    between atoms: N_8  and  C_18 
REMARK    5  A    between atoms: C_13  and  C_14 
REMARK    6  A    between atoms: C_14  and  C_19 
REMARK    7  A    between atoms: C_18  and  C_29 
REMARK    8  A    between atoms: C_19  and  O_20 
REMARK    9  A    between atoms: O_21  and  C_30 
REMARK   10  A    between atoms: O_24  and  C_29 
REMARK   11  A    between atoms: O_24  and  C_31 
REMARK   12  A    between atoms: C_30  and  C_31 
ROOT
HETATM    1  C   UNL     1     -41.703 -50.662  13.727  1.00  0.00     0.122 A 
HETATM    2  N   UNL     1     -43.532 -51.126  14.906  1.00  0.00    -0.326 N 
HETATM    3  C   UNL     1     -42.357 -51.674  14.438  1.00  0.00     0.140 A 
HETATM    4  N   UNL     1     -42.465 -49.505  13.799  1.00  0.00    -0.346 N 
ATOM      5  HN  UNL     1     -42.245 -48.600  13.385  1.00  0.00     0.167 HD
HETATM    6  C   UNL     1     -40.473 -51.000  13.062  1.00  0.00     0.135 A 
HETATM    7  C   UNL     1     -43.531 -49.813  14.512  1.00  0.00     0.185 A 
HETATM    8  N   UNL     1     -40.065 -52.298  13.217  1.00  0.00    -0.337 N 
ATOM      9  HN  UNL     1     -39.198 -52.611  12.781  1.00  0.00     0.168 HD
HETATM   10  N   UNL     1     -41.960 -52.947  14.590  1.00  0.00    -0.336 N 
ATOM     11  HN  UNL     1     -42.467 -53.653  15.123  1.00  0.00     0.168 HD
HETATM   12  C   UNL     1     -40.800 -53.165  13.941  1.00  0.00     0.183 A 
ENDROOT
BRANCH   6  13
HETATM   13  N   UNL     1     -39.683 -50.163  12.242  1.00  0.00    -0.359 N 
BRANCH  13  14
HETATM   14  C   UNL     1     -38.238 -50.050  12.513  1.00  0.00     0.077 C 
HETATM   15  C   UNL     1     -37.427 -49.940  11.212  1.00  0.00     0.032 C 
HETATM   16  C   UNL     1     -37.912 -48.884  13.455  1.00  0.00     0.032 C 
ENDBRANCH  13  14
BRANCH  13  17
HETATM   17  C   UNL     1     -40.284 -49.663  10.984  1.00  0.00     0.151 C 
BRANCH  17  18
HETATM   18  C   UNL     1     -40.835 -48.233  11.094  1.00  0.00     0.187 C 
BRANCH  18  19
HETATM   19  O   UNL     1     -42.252 -48.135  10.863  1.00  0.00    -0.387 OA
BRANCH  19  20
HETATM   20  C   UNL     1     -42.526 -46.901  10.182  1.00  0.00     0.193 C 
BRANCH  20  21
HETATM   21  C   UNL     1     -43.215 -47.118   8.841  1.00  0.00     0.190 C 
BRANCH  21  22
HETATM   22  O   UNL     1     -42.807 -46.094   7.937  1.00  0.00    -0.399 OA
HETATM   23  H   UNL     1     -43.328 -45.300   8.146  1.00  0.00     0.209 HD
ENDBRANCH  21  22
ENDBRANCH  20  21
ENDBRANCH  19  20
ENDBRANCH  18  19
ENDBRANCH  17  18
ENDBRANCH  13  17
ENDBRANCH   6  13
BRANCH   2  24
HETATM   24  C   UNL     1     -44.571 -51.796  15.702  1.00  0.00     0.143 C 
BRANCH  24  25
HETATM   25  C   UNL     1     -45.893 -52.180  14.942  1.00  0.00     0.001 C 
HETATM   26  C   UNL     1     -46.220 -53.681  15.149  1.00  0.00     0.039 C 
HETATM   27  C   UNL     1     -45.303 -54.577  14.314  1.00  0.00     0.168 C 
HETATM   28  O   UNL     1     -45.503 -54.311  12.931  1.00  0.00    -0.391 OA
HETATM   29  C   UNL     1     -45.098 -52.995  12.574  1.00  0.00     0.168 C 
HETATM   30  C   UNL     1     -45.822 -51.937  13.396  1.00  0.00     0.039 C 
BRANCH  25  31
HETATM   31  C   UNL     1     -47.045 -51.275  15.449  1.00  0.00     0.175 C 
BRANCH  31  32
HETATM   32  O   UNL     1     -47.871 -52.001  16.357  1.00  0.00    -0.400 OA
HETATM   33  H   UNL     1     -48.803 -51.776  16.153  1.00  0.00     0.209 HD
ENDBRANCH  31  32
ENDBRANCH  25  31
ENDBRANCH  24  25
ENDBRANCH   2  24
TORSDOF 12
ENDMDL
MODEL 6
REMARK VINA RESULT:      -5.9      1.913      2.509
REMARK  12 active torsions:
REMARK  status: ('A' for Active; 'I' for Inactive)
REMARK    1  A    between atoms: N_2  and  C_13 
REMARK    2  A    between atoms: C_6  and  N_8 
REMARK    3  A    between atoms: N_8  and  C_17 
REMARK    4  A    between atoms: N_8  and  C_18 
REMARK    5  A    between atoms: C_13  and  C_14 
REMARK    6  A    between atoms: C_14  and  C_19 
REMARK    7  A    between atoms: C_18  and  C_29 
REMARK    8  A    between atoms: C_19  and  O_20 
REMARK    9  A    between atoms: O_21  and  C_30 
REMARK   10  A    between atoms: O_24  and  C_29 
REMARK   11  A    between atoms: O_24  and  C_31 
REMARK   12  A    between atoms: C_30  and  C_31 
ROOT
HETATM    1  C   UNL     1     -42.225 -49.755  12.850  1.00  0.00     0.122 A 
HETATM    2  N   UNL     1     -43.244 -51.113  14.288  1.00  0.00    -0.326 N 
HETATM    3  C   UNL     1     -42.346 -51.092  13.243  1.00  0.00     0.140 A 
HETATM    4  N   UNL     1     -43.019 -48.976  13.679  1.00  0.00    -0.346 N 
ATOM      5  HN  UNL     1     -43.133 -47.963  13.643  1.00  0.00     0.167 HD
HETATM    6  C   UNL     1     -41.394 -49.465  11.713  1.00  0.00     0.135 A 
HETATM    7  C   UNL     1     -43.597 -49.809  14.522  1.00  0.00     0.185 A 
HETATM    8  N   UNL     1     -40.791 -50.552  11.140  1.00  0.00    -0.337 N 
ATOM      9  HN  UNL     1     -40.181 -50.425  10.332  1.00  0.00     0.168 HD
HETATM   10  N   UNL     1     -41.756 -52.160  12.682  1.00  0.00    -0.336 N 
ATOM     11  HN  UNL     1     -41.869 -53.121  13.005  1.00  0.00     0.168 HD
HETATM   12  C   UNL     1     -40.996 -51.789  11.634  1.00  0.00     0.183 A 
ENDROOT
BRANCH   6  13
HETATM   13  N   UNL     1     -41.179 -48.207  11.106  1.00  0.00    -0.359 N 
BRANCH  13  14
HETATM   14  C   UNL     1     -39.966 -47.442  11.450  1.00  0.00     0.077 C 
HETATM   15  C   UNL     1     -39.980 -46.044  10.812  1.00  0.00     0.032 C 
HETATM   16  C   UNL     1     -39.752 -47.343  12.966  1.00  0.00     0.032 C 
ENDBRANCH  13  14
BRANCH  13  17
HETATM   17  C   UNL     1     -42.030 -47.843   9.950  1.00  0.00     0.151 C 
BRANCH  17  18
HETATM   18  C   UNL     1     -43.474 -47.489  10.337  1.00  0.00     0.187 C 
BRANCH  18  19
HETATM   19  O   UNL     1     -44.242 -46.919   9.262  1.00  0.00    -0.387 OA
BRANCH  19  20
HETATM   20  C   UNL     1     -45.297 -47.829   8.915  1.00  0.00     0.193 C 
BRANCH  20  21
HETATM   21  C   UNL     1     -46.678 -47.215   9.100  1.00  0.00     0.190 C 
BRANCH  21  22
HETATM   22  O   UNL     1     -46.740 -45.984   8.383  1.00  0.00    -0.399 OA
HETATM   23  H   UNL     1     -45.913 -45.903   7.878  1.00  0.00     0.209 HD
ENDBRANCH  21  22
ENDBRANCH  20  21
ENDBRANCH  19  20
ENDBRANCH  18  19
ENDBRANCH  17  18
ENDBRANCH  13  17
ENDBRANCH   6  13
BRANCH   2  24
HETATM   24  C   UNL     1     -43.713 -52.290  15.035  1.00  0.00     0.143 C 
BRANCH  24  25
HETATM   25  C   UNL     1     -45.014 -52.987  14.495  1.00  0.00     0.001 C 
HETATM   26  C   UNL     1     -46.056 -51.925  14.058  1.00  0.00     0.039 C 
HETATM   27  C   UNL     1     -46.729 -51.268  15.264  1.00  0.00     0.168 C 
HETATM   28  O   UNL     1     -47.444 -52.248  16.007  1.00  0.00    -0.391 OA
HETATM   29  C   UNL     1     -46.580 -53.213  16.593  1.00  0.00     0.168 C 
HETATM   30  C   UNL     1     -45.716 -53.909  15.549  1.00  0.00     0.039 C 
BRANCH  25  31
HETATM   31  C   UNL     1     -44.632 -53.923  13.319  1.00  0.00     0.175 C 
BRANCH  31  32
HETATM   32  O   UNL     1     -44.815 -53.244  12.078  1.00  0.00    -0.400 OA
HETATM   33  H   UNL     1     -44.229 -52.459  12.081  1.00  0.00     0.209 HD
ENDBRANCH  31  32
ENDBRANCH  25  31
ENDBRANCH  24  25
ENDBRANCH   2  24
TORSDOF 12
ENDMDL
MODEL 7
REMARK VINA RESULT:      -5.8      2.975      7.772
REMARK  12 active torsions:
REMARK  status: ('A' for Active; 'I' for Inactive)
REMARK    1  A    between atoms: N_2  and  C_13 
REMARK    2  A    between atoms: C_6  and  N_8 
REMARK    3  A    between atoms: N_8  and  C_17 
REMARK    4  A    between atoms: N_8  and  C_18 
REMARK    5  A    between atoms: C_13  and  C_14 
REMARK    6  A    between atoms: C_14  and  C_19 
REMARK    7  A    between atoms: C_18  and  C_29 
REMARK    8  A    between atoms: C_19  and  O_20 
REMARK    9  A    between atoms: O_21  and  C_30 
REMARK   10  A    between atoms: O_24  and  C_29 
REMARK   11  A    between atoms: O_24  and  C_31 
REMARK   12  A    between atoms: C_30  and  C_31 
ROOT
HETATM    1  C   UNL     1     -42.850 -51.269  13.153  1.00  0.00     0.122 A 
HETATM    2  N   UNL     1     -42.210 -49.415  12.102  1.00  0.00    -0.326 N 
HETATM    3  C   UNL     1     -42.006 -50.777  12.151  1.00  0.00     0.140 A 
HETATM    4  N   UNL     1     -43.580 -50.212  13.676  1.00  0.00    -0.346 N 
ATOM      5  HN  UNL     1     -44.281 -50.257  14.416  1.00  0.00     0.167 HD
HETATM    6  C   UNL     1     -42.774 -52.671  13.462  1.00  0.00     0.135 A 
HETATM    7  C   UNL     1     -43.185 -49.135  13.025  1.00  0.00     0.185 A 
HETATM    8  N   UNL     1     -41.876 -53.384  12.713  1.00  0.00    -0.337 N 
ATOM      9  HN  UNL     1     -41.770 -54.387  12.870  1.00  0.00     0.168 HD
HETATM   10  N   UNL     1     -41.125 -51.474  11.417  1.00  0.00    -0.336 N 
ATOM     11  HN  UNL     1     -40.531 -51.075  10.690  1.00  0.00     0.168 HD
HETATM   12  C   UNL     1     -41.131 -52.773  11.772  1.00  0.00     0.183 A 
ENDROOT
BRANCH   6  13
HETATM   13  N   UNL     1     -43.478 -53.367  14.470  1.00  0.00    -0.359 N 
BRANCH  13  14
HETATM   14  C   UNL     1     -44.920 -53.618  14.295  1.00  0.00     0.077 C 
HETATM   15  C   UNL     1     -45.185 -55.023  13.731  1.00  0.00     0.032 C 
HETATM   16  C   UNL     1     -45.711 -53.397  15.591  1.00  0.00     0.032 C 
ENDBRANCH  13  14
BRANCH  13  17
HETATM   17  C   UNL     1     -42.687 -54.055  15.516  1.00  0.00     0.151 C 
BRANCH  17  18
HETATM   18  C   UNL     1     -41.681 -53.136  16.228  1.00  0.00     0.187 C 
BRANCH  18  19
HETATM   19  O   UNL     1     -40.411 -53.759  16.495  1.00  0.00    -0.387 OA
BRANCH  19  20
HETATM   20  C   UNL     1     -39.532 -53.510  15.387  1.00  0.00     0.193 C 
BRANCH  20  21
HETATM   21  C   UNL     1     -39.141 -54.789  14.658  1.00  0.00     0.190 C 
BRANCH  21  22
HETATM   22  O   UNL     1     -38.498 -54.446  13.431  1.00  0.00    -0.399 OA
HETATM   23  H   UNL     1     -37.542 -54.561  13.565  1.00  0.00     0.209 HD
ENDBRANCH  21  22
ENDBRANCH  20  21
ENDBRANCH  19  20
ENDBRANCH  18  19
ENDBRANCH  17  18
ENDBRANCH  13  17
ENDBRANCH   6  13
BRANCH   2  24
HETATM   24  C   UNL     1     -41.546 -48.447  11.216  1.00  0.00     0.143 C 
BRANCH  24  25
HETATM   25  C   UNL     1     -40.400 -47.584  11.858  1.00  0.00     0.001 C 
HETATM   26  C   UNL     1     -40.903 -46.890  13.150  1.00  0.00     0.039 C 
HETATM   27  C   UNL     1     -41.820 -45.707  12.832  1.00  0.00     0.168 C 
HETATM   28  O   UNL     1     -41.096 -44.722  12.105  1.00  0.00    -0.391 OA
HETATM   29  C   UNL     1     -40.696 -45.187  10.822  1.00  0.00     0.168 C 
HETATM   30  C   UNL     1     -39.859 -46.456  10.916  1.00  0.00     0.039 C 
BRANCH  25  31
HETATM   31  C   UNL     1     -39.183 -48.500  12.145  1.00  0.00     0.175 C 
BRANCH  31  32
HETATM   32  O   UNL     1     -38.938 -49.351  11.027  1.00  0.00    -0.400 OA
HETATM   33  H   UNL     1     -38.006 -49.649  11.080  1.00  0.00     0.209 HD
ENDBRANCH  31  32
ENDBRANCH  25  31
ENDBRANCH  24  25
ENDBRANCH   2  24
TORSDOF 12
ENDMDL
MODEL 8
REMARK VINA RESULT:      -5.7      3.110      4.590
REMARK  12 active torsions:
REMARK  status: ('A' for Active; 'I' for Inactive)
REMARK    1  A    between atoms: N_2  and  C_13 
REMARK    2  A    between atoms: C_6  and  N_8 
REMARK    3  A    between atoms: N_8  and  C_17 
REMARK    4  A    between atoms: N_8  and  C_18 
REMARK    5  A    between atoms: C_13  and  C_14 
REMARK    6  A    between atoms: C_14  and  C_19 
REMARK    7  A    between atoms: C_18  and  C_29 
REMARK    8  A    between atoms: C_19  and  O_20 
REMARK    9  A    between atoms: O_21  and  C_30 
REMARK   10  A    between atoms: O_24  and  C_29 
REMARK   11  A    between atoms: O_24  and  C_31 
REMARK   12  A    between atoms: C_30  and  C_31 
ROOT
HETATM    1  C   UNL     1     -41.330 -48.852  12.313  1.00  0.00     0.122 A 
HETATM    2  N   UNL     1     -42.278 -50.859  12.466  1.00  0.00    -0.326 N 
HETATM    3  C   UNL     1     -41.106 -50.220  12.122  1.00  0.00     0.140 A 
HETATM    4  N   UNL     1     -42.616 -48.676  12.802  1.00  0.00    -0.346 N 
ATOM      5  HN  UNL     1     -43.064 -47.793  13.044  1.00  0.00     0.167 HD
HETATM    6  C   UNL     1     -40.274 -47.945  11.949  1.00  0.00     0.135 A 
HETATM    7  C   UNL     1     -43.142 -49.882  12.890  1.00  0.00     0.185 A 
HETATM    8  N   UNL     1     -39.140 -48.538  11.460  1.00  0.00    -0.337 N 
ATOM      9  HN  UNL     1     -38.346 -47.960  11.187  1.00  0.00     0.168 HD
HETATM   10  N   UNL     1     -39.996 -50.803  11.643  1.00  0.00    -0.336 N 
ATOM     11  HN  UNL     1     -39.874 -51.808  11.525  1.00  0.00     0.168 HD
HETATM   12  C   UNL     1     -39.066 -49.877  11.338  1.00  0.00     0.183 A 
ENDROOT
BRANCH   6  13
HETATM   13  N   UNL     1     -40.303 -46.533  11.994  1.00  0.00    -0.359 N 
BRANCH  13  14
HETATM   14  C   UNL     1     -40.704 -45.784  10.789  1.00  0.00     0.077 C 
HETATM   15  C   UNL     1     -42.073 -45.110  10.973  1.00  0.00     0.032 C 
HETATM   16  C   UNL     1     -39.646 -44.757  10.364  1.00  0.00     0.032 C 
ENDBRANCH  13  14
BRANCH  13  17
HETATM   17  C   UNL     1     -40.204 -45.883  13.322  1.00  0.00     0.151 C 
BRANCH  17  18
HETATM   18  C   UNL     1     -38.780 -45.877  13.898  1.00  0.00     0.187 C 
BRANCH  18  19
HETATM   19  O   UNL     1     -38.570 -46.845  14.942  1.00  0.00    -0.387 OA
BRANCH  19  20
HETATM   20  C   UNL     1     -37.473 -47.694  14.571  1.00  0.00     0.193 C 
BRANCH  20  21
HETATM   21  C   UNL     1     -37.781 -49.170  14.789  1.00  0.00     0.190 C 
BRANCH  21  22
HETATM   22  O   UNL     1     -36.636 -49.806  15.352  1.00  0.00    -0.399 OA
HETATM   23  H   UNL     1     -36.372 -50.516  14.742  1.00  0.00     0.209 HD
ENDBRANCH  21  22
ENDBRANCH  20  21
ENDBRANCH  19  20
ENDBRANCH  18  19
ENDBRANCH  17  18
ENDBRANCH  13  17
ENDBRANCH   6  13
BRANCH   2  24
HETATM   24  C   UNL     1     -42.549 -52.304  12.425  1.00  0.00     0.143 C 
BRANCH  24  25
HETATM   25  C   UNL     1     -41.924 -53.164  13.583  1.00  0.00     0.001 C 
HETATM   26  C   UNL     1     -42.929 -54.247  14.055  1.00  0.00     0.039 C 
HETATM   27  C   UNL     1     -44.048 -53.644  14.905  1.00  0.00     0.168 C 
HETATM   28  O   UNL     1     -43.498 -53.068  16.083  1.00  0.00    -0.391 OA
HETATM   29  C   UNL     1     -42.661 -51.954  15.796  1.00  0.00     0.168 C 
HETATM   30  C   UNL     1     -41.530 -52.326  14.846  1.00  0.00     0.039 C 
BRANCH  25  31
HETATM   31  C   UNL     1     -40.603 -53.799  13.080  1.00  0.00     0.175 C 
BRANCH  31  32
HETATM   32  O   UNL     1     -40.527 -53.705  11.659  1.00  0.00    -0.400 OA
HETATM   33  H   UNL     1     -41.120 -54.390  11.285  1.00  0.00     0.209 HD
ENDBRANCH  31  32
ENDBRANCH  25  31
ENDBRANCH  24  25
ENDBRANCH   2  24
TORSDOF 12
ENDMDL
MODEL 9
REMARK VINA RESULT:      -5.7      3.481      7.189
REMARK  12 active torsions:
REMARK  status: ('A' for Active; 'I' for Inactive)
REMARK    1  A    between atoms: N_2  and  C_13 
REMARK    2  A    between atoms: C_6  and  N_8 
REMARK    3  A    between atoms: N_8  and  C_17 
REMARK    4  A    between atoms: N_8  and  C_18 
REMARK    5  A    between atoms: C_13  and  C_14 
REMARK    6  A    between atoms: C_14  and  C_19 
REMARK    7  A    between atoms: C_18  and  C_29 
REMARK    8  A    between atoms: C_19  and  O_20 
REMARK    9  A    between atoms: O_21  and  C_30 
REMARK   10  A    between atoms: O_24  and  C_29 
REMARK   11  A    between atoms: O_24  and  C_31 
REMARK   12  A    between atoms: C_30  and  C_31 
ROOT
HETATM    1  C   UNL     1     -43.034 -51.398  12.706  1.00  0.00     0.122 A 
HETATM    2  N   UNL     1     -41.337 -50.242  11.847  1.00  0.00    -0.326 N 
HETATM    3  C   UNL     1     -41.786 -51.524  12.087  1.00  0.00     0.140 A 
HETATM    4  N   UNL     1     -43.347 -50.050  12.804  1.00  0.00    -0.346 N 
ATOM      5  HN  UNL     1     -44.193 -49.645  13.203  1.00  0.00     0.167 HD
HETATM    6  C   UNL     1     -43.692 -52.603  13.135  1.00  0.00     0.135 A 
HETATM    7  C   UNL     1     -42.329 -49.398  12.277  1.00  0.00     0.185 A 
HETATM    8  N   UNL     1     -43.013 -53.763  12.870  1.00  0.00    -0.337 N 
ATOM      9  HN  UNL     1     -43.420 -54.658  13.139  1.00  0.00     0.168 HD
HETATM   10  N   UNL     1     -41.119 -52.659  11.827  1.00  0.00    -0.336 N 
ATOM     11  HN  UNL     1     -40.209 -52.705  11.367  1.00  0.00     0.168 HD
HETATM   12  C   UNL     1     -41.814 -53.729  12.257  1.00  0.00     0.183 A 
ENDROOT
BRANCH   6  13
HETATM   13  N   UNL     1     -44.916 -52.710  13.832  1.00  0.00    -0.359 N 
BRANCH  13  14
HETATM   14  C   UNL     1     -45.932 -51.654  13.665  1.00  0.00     0.077 C 
HETATM   15  C   UNL     1     -46.712 -51.824  12.352  1.00  0.00     0.032 C 
HETATM   16  C   UNL     1     -46.892 -51.577  14.859  1.00  0.00     0.032 C 
ENDBRANCH  13  14
BRANCH  13  17
HETATM   17  C   UNL     1     -45.236 -54.008  14.471  1.00  0.00     0.151 C 
BRANCH  17  18
HETATM   18  C   UNL     1     -44.488 -54.241  15.793  1.00  0.00     0.187 C 
BRANCH  18  19
HETATM   19  O   UNL     1     -43.447 -55.232  15.706  1.00  0.00    -0.387 OA
BRANCH  19  20
HETATM   20  C   UNL     1     -42.388 -54.870  16.605  1.00  0.00     0.193 C 
BRANCH  20  21
HETATM   21  C   UNL     1     -41.108 -54.489  15.873  1.00  0.00     0.190 C 
BRANCH  21  22
HETATM   22  O   UNL     1     -41.164 -53.106  15.529  1.00  0.00    -0.399 OA
HETATM   23  H   UNL     1     -40.828 -53.021  14.620  1.00  0.00     0.209 HD
ENDBRANCH  21  22
ENDBRANCH  20  21
ENDBRANCH  19  20
ENDBRANCH  18  19
ENDBRANCH  17  18
ENDBRANCH  13  17
ENDBRANCH   6  13
BRANCH   2  24
HETATM   24  C   UNL     1     -40.066 -49.847  11.223  1.00  0.00     0.143 C 
BRANCH  24  25
HETATM   25  C   UNL     1     -38.927 -49.373  12.198  1.00  0.00     0.001 C 
HETATM   26  C   UNL     1     -37.539 -49.530  11.526  1.00  0.00     0.039 C 
HETATM   27  C   UNL     1     -37.098 -50.995  11.482  1.00  0.00     0.168 C 
HETATM   28  O   UNL     1     -36.960 -51.494  12.807  1.00  0.00    -0.391 OA
HETATM   29  C   UNL     1     -38.203 -51.541  13.495  1.00  0.00     0.168 C 
HETATM   30  C   UNL     1     -38.877 -50.176  13.542  1.00  0.00     0.039 C 
BRANCH  25  31
HETATM   31  C   UNL     1     -39.195 -47.902  12.606  1.00  0.00     0.175 C 
BRANCH  31  32
HETATM   32  O   UNL     1     -39.573 -47.839  13.980  1.00  0.00    -0.400 OA
HETATM   33  H   UNL     1     -40.019 -46.978  14.125  1.00  0.00     0.209 HD
ENDBRANCH  31  32
ENDBRANCH  25  31
ENDBRANCH  24  25
ENDBRANCH   2  24
TORSDOF 12
ENDMDL
