MODEL 1
REMARK VINA RESULT:      -5.4      0.000      0.000
REMARK  5 active torsions:
REMARK  status: ('A' for Active; 'I' for Inactive)
REMARK    1  A    between atoms: O_2  and  C_3 
REMARK    2  A    between atoms: C_6  and  N_7 
REMARK       I    between atoms: N_7  and  C_8 
REMARK       I    between atoms: C_8  and  N_10 
REMARK    3  A    between atoms: N_10  and  C_11 
REMARK    4  A    between atoms: N_14  and  C_15 
REMARK    5  A    between atoms: C_15  and  C_16 
ROOT
HETATM    1  C   UNL     1     -44.621 -46.523   9.149  1.00  0.00     0.123 C 
HETATM    2  C   UNL     1     -45.825 -47.361   9.064  1.00  0.00    -0.116 C 
HETATM    3  C   UNL     1     -46.827 -48.023   9.021  1.00  0.00     0.012 C 
ENDROOT
BRANCH   1   4
HETATM    4  C   UNL     1     -43.389 -47.353   9.552  1.00  0.00     0.284 C 
BRANCH   4   5
HETATM    5  N   UNL     1     -43.032 -47.243  10.982  1.00  0.00     0.089 N 
HETATM    6  C   UNL     1     -42.046 -46.169  11.212  1.00  0.00     0.274 C 
HETATM    7  C   UNL     1     -40.616 -46.517  10.788  1.00  0.00     0.055 C 
HETATM    8  C   UNL     1     -40.157 -47.852  11.384  1.00  0.00     0.089 C 
HETATM    9  C   UNL     1     -41.193 -48.941  11.122  1.00  0.00     0.055 C 
HETATM   10  C   UNL     1     -42.579 -48.503  11.585  1.00  0.00     0.274 C 
BRANCH   8  11
HETATM   11  N   UNL     1     -39.873 -47.737  12.813  1.00  0.00    -0.338 N 
HETATM   12  C   UNL     1     -38.707 -48.238  13.336  1.00  0.00     0.321 C 
HETATM   13  N   UNL     1     -38.612 -48.018  14.695  1.00  0.00    -0.308 N 
HETATM   14  O   UNL     1     -37.889 -48.831  12.645  1.00  0.00    -0.247 OA
HETATM   15  H   UNL     1     -39.189 -47.289  15.083  1.00  0.00     0.170 HD
HETATM   16  H   UNL     1     -40.375 -47.047  13.348  1.00  0.00     0.164 HD
BRANCH  13  17
HETATM   17  C   UNL     1     -37.598 -48.551  15.525  1.00  0.00     0.051 A 
HETATM   18  C   UNL     1     -36.512 -47.804  15.975  1.00  0.00     0.035 A 
HETATM   19  C   UNL     1     -35.586 -48.377  16.842  1.00  0.00     0.058 A 
HETATM   20  C   UNL     1     -35.770 -49.693  17.223  1.00  0.00     0.141 A 
HETATM   21  N   UNL     1     -36.775 -50.472  16.766  1.00  0.00    -0.345 N 
HETATM   22  C   UNL     1     -37.657 -49.885  15.921  1.00  0.00     0.119 A 
ATOM     23  HN  UNL     1     -36.865 -51.450  17.042  1.00  0.00     0.167 HD
BRANCH  20  24
HETATM   24  O   UNL     1     -34.852 -50.198  18.121  1.00  0.00    -0.341 OA
HETATM   25  C   UNL     1     -34.886 -49.528  19.375  1.00  0.00     0.211 C 
ENDBRANCH  20  24
ENDBRANCH  13  17
ENDBRANCH   8  11
ENDBRANCH   4   5
ENDBRANCH   1   4
TORSDOF 5
ENDMDL
MODEL 2
REMARK VINA RESULT:      -5.4      4.798      8.397
REMARK  5 active torsions:
REMARK  status: ('A' for Active; 'I' for Inactive)
REMARK    1  A    between atoms: O_2  and  C_3 
REMARK    2  A    between atoms: C_6  and  N_7 
REMARK       I    between atoms: N_7  and  C_8 
REMARK       I    between atoms: C_8  and  N_10 
REMARK    3  A    between atoms: N_10  and  C_11 
REMARK    4  A    between atoms: N_14  and  C_15 
REMARK    5  A    between atoms: C_15  and  C_16 
ROOT
HETATM    1  C   UNL     1     -41.981 -55.367  16.806  1.00  0.00     0.123 C 
HETATM    2  C   UNL     1     -40.569 -55.663  16.525  1.00  0.00    -0.116 C 
HETATM    3  C   UNL     1     -39.404 -55.873  16.316  1.00  0.00     0.012 C 
ENDROOT
BRANCH   1   4
HETATM    4  C   UNL     1     -42.792 -55.222  15.506  1.00  0.00     0.284 C 
BRANCH   4   5
HETATM    5  N   UNL     1     -43.303 -53.857  15.265  1.00  0.00     0.089 N 
HETATM    6  C   UNL     1     -44.118 -53.793  14.036  1.00  0.00     0.274 C 
HETATM    7  C   UNL     1     -43.309 -53.819  12.736  1.00  0.00     0.055 C 
HETATM    8  C   UNL     1     -42.196 -52.765  12.739  1.00  0.00     0.089 C 
HETATM    9  C   UNL     1     -41.369 -52.862  14.017  1.00  0.00     0.055 C 
HETATM   10  C   UNL     1     -42.262 -52.821  15.254  1.00  0.00     0.274 C 
BRANCH   8  11
HETATM   11  N   UNL     1     -42.729 -51.415  12.566  1.00  0.00    -0.338 N 
HETATM   12  C   UNL     1     -41.961 -50.427  12.003  1.00  0.00     0.321 C 
HETATM   13  N   UNL     1     -42.642 -49.231  11.907  1.00  0.00    -0.308 N 
HETATM   14  O   UNL     1     -40.800 -50.623  11.666  1.00  0.00    -0.247 OA
HETATM   15  H   UNL     1     -43.648 -49.272  11.946  1.00  0.00     0.170 HD
HETATM   16  H   UNL     1     -43.728 -51.288  12.582  1.00  0.00     0.164 HD
BRANCH  13  17
HETATM   17  C   UNL     1     -42.059 -48.006  11.508  1.00  0.00     0.051 A 
HETATM   18  C   UNL     1     -41.220 -47.258  12.331  1.00  0.00     0.035 A 
HETATM   19  C   UNL     1     -40.630 -46.094  11.849  1.00  0.00     0.058 A 
HETATM   20  C   UNL     1     -40.912 -45.704  10.553  1.00  0.00     0.141 A 
HETATM   21  N   UNL     1     -41.764 -46.365   9.739  1.00  0.00    -0.345 N 
HETATM   22  C   UNL     1     -42.323 -47.493  10.240  1.00  0.00     0.119 A 
ATOM     23  HN  UNL     1     -41.975 -46.033   8.798  1.00  0.00     0.167 HD
BRANCH  20  24
HETATM   24  O   UNL     1     -40.264 -44.570  10.107  1.00  0.00    -0.341 OA
HETATM   25  C   UNL     1     -40.384 -43.478  11.010  1.00  0.00     0.211 C 
ENDBRANCH  20  24
ENDBRANCH  13  17
ENDBRANCH   8  11
ENDBRANCH   4   5
ENDBRANCH   1   4
TORSDOF 5
ENDMDL
MODEL 3
REMARK VINA RESULT:      -5.3      5.207      8.026
REMARK  5 active torsions:
REMARK  status: ('A' for Active; 'I' for Inactive)
REMARK    1  A    between atoms: O_2  and  C_3 
REMARK    2  A    between atoms: C_6  and  N_7 
REMARK       I    between atoms: N_7  and  C_8 
REMARK       I    between atoms: C_8  and  N_10 
REMARK    3  A    between atoms: N_10  and  C_11 
REMARK    4  A    between atoms: N_14  and  C_15 
REMARK    5  A    between atoms: C_15  and  C_16 
ROOT
HETATM    1  C   UNL     1     -46.442 -53.186  16.202  1.00  0.00     0.123 C 
HETATM    2  C   UNL     1     -45.583 -53.497  17.353  1.00  0.00    -0.116 C 
HETATM    3  C   UNL     1     -44.872 -53.713  18.297  1.00  0.00     0.012 C 
ENDROOT
BRANCH   1   4
HETATM    4  C   UNL     1     -46.006 -53.969  14.950  1.00  0.00     0.284 C 
BRANCH   4   5
HETATM    5  N   UNL     1     -45.900 -53.142  13.730  1.00  0.00     0.089 N 
HETATM    6  C   UNL     1     -44.735 -53.531  12.913  1.00  0.00     0.274 C 
HETATM    7  C   UNL     1     -43.387 -53.056  13.462  1.00  0.00     0.055 C 
HETATM    8  C   UNL     1     -43.395 -51.555  13.767  1.00  0.00     0.089 C 
HETATM    9  C   UNL     1     -44.606 -51.187  14.619  1.00  0.00     0.055 C 
HETATM   10  C   UNL     1     -45.898 -51.696  13.985  1.00  0.00     0.274 C 
BRANCH   8  11
HETATM   11  N   UNL     1     -43.357 -50.754  12.544  1.00  0.00    -0.338 N 
HETATM   12  C   UNL     1     -42.605 -49.608  12.483  1.00  0.00     0.321 C 
HETATM   13  N   UNL     1     -42.681 -49.003  11.245  1.00  0.00    -0.308 N 
HETATM   14  O   UNL     1     -41.978 -49.192  13.449  1.00  0.00    -0.247 OA
HETATM   15  H   UNL     1     -42.982 -49.576  10.472  1.00  0.00     0.170 HD
HETATM   16  H   UNL     1     -43.632 -51.188  11.678  1.00  0.00     0.164 HD
BRANCH  13  17
HETATM   17  C   UNL     1     -42.135 -47.736  10.937  1.00  0.00     0.051 A 
HETATM   18  C   UNL     1     -42.912 -46.596  10.752  1.00  0.00     0.035 A 
HETATM   19  C   UNL     1     -42.302 -45.368  10.513  1.00  0.00     0.058 A 
HETATM   20  C   UNL     1     -40.921 -45.323  10.453  1.00  0.00     0.141 A 
HETATM   21  N   UNL     1     -40.129 -46.412  10.568  1.00  0.00    -0.345 N 
HETATM   22  C   UNL     1     -40.756 -47.591  10.797  1.00  0.00     0.119 A 
ATOM     23  HN  UNL     1     -39.114 -46.349  10.488  1.00  0.00     0.167 HD
BRANCH  20  24
HETATM   24  O   UNL     1     -40.364 -44.075  10.264  1.00  0.00    -0.341 OA
HETATM   25  C   UNL     1     -40.386 -43.279  11.442  1.00  0.00     0.211 C 
ENDBRANCH  20  24
ENDBRANCH  13  17
ENDBRANCH   8  11
ENDBRANCH   4   5
ENDBRANCH   1   4
TORSDOF 5
ENDMDL
MODEL 4
REMARK VINA RESULT:      -5.3      1.655      1.957
REMARK  5 active torsions:
REMARK  status: ('A' for Active; 'I' for Inactive)
REMARK    1  A    between atoms: O_2  and  C_3 
REMARK    2  A    between atoms: C_6  and  N_7 
REMARK       I    between atoms: N_7  and  C_8 
REMARK       I    between atoms: C_8  and  N_10 
REMARK    3  A    between atoms: N_10  and  C_11 
REMARK    4  A    between atoms: N_14  and  C_15 
REMARK    5  A    between atoms: C_15  and  C_16 
ROOT
HETATM    1  C   UNL     1     -44.013 -47.454   8.510  1.00  0.00     0.123 C 
HETATM    2  C   UNL     1     -45.441 -47.525   8.850  1.00  0.00    -0.116 C 
HETATM    3  C   UNL     1     -46.617 -47.565   9.093  1.00  0.00     0.012 C 
ENDROOT
BRANCH   1   4
HETATM    4  C   UNL     1     -43.219 -46.689   9.585  1.00  0.00     0.284 C 
BRANCH   4   5
HETATM    5  N   UNL     1     -42.742 -47.537  10.698  1.00  0.00     0.089 N 
HETATM    6  C   UNL     1     -43.149 -46.989  12.006  1.00  0.00     0.274 C 
HETATM    7  C   UNL     1     -42.340 -45.772  12.465  1.00  0.00     0.055 C 
HETATM    8  C   UNL     1     -40.832 -46.036  12.400  1.00  0.00     0.089 C 
HETATM    9  C   UNL     1     -40.443 -46.593  11.033  1.00  0.00     0.055 C 
HETATM   10  C   UNL     1     -41.298 -47.804  10.671  1.00  0.00     0.274 C 
BRANCH   8  11
HETATM   11  N   UNL     1     -40.392 -46.929  13.470  1.00  0.00    -0.338 N 
HETATM   12  C   UNL     1     -39.269 -46.641  14.203  1.00  0.00     0.321 C 
HETATM   13  N   UNL     1     -39.027 -47.589  15.176  1.00  0.00    -0.308 N 
HETATM   14  O   UNL     1     -38.575 -45.660  13.967  1.00  0.00    -0.247 OA
HETATM   15  H   UNL     1     -39.803 -48.170  15.453  1.00  0.00     0.170 HD
HETATM   16  H   UNL     1     -41.058 -47.578  13.857  1.00  0.00     0.164 HD
BRANCH  13  17
HETATM   17  C   UNL     1     -37.865 -47.634  15.981  1.00  0.00     0.051 A 
HETATM   18  C   UNL     1     -36.730 -48.365  15.639  1.00  0.00     0.035 A 
HETATM   19  C   UNL     1     -35.599 -48.312  16.448  1.00  0.00     0.058 A 
HETATM   20  C   UNL     1     -35.644 -47.533  17.589  1.00  0.00     0.141 A 
HETATM   21  N   UNL     1     -36.741 -46.853  17.991  1.00  0.00    -0.345 N 
HETATM   22  C   UNL     1     -37.826 -46.929  17.182  1.00  0.00     0.119 A 
ATOM     23  HN  UNL     1     -36.752 -46.312  18.855  1.00  0.00     0.167 HD
BRANCH  20  24
HETATM   24  O   UNL     1     -34.481 -47.475  18.330  1.00  0.00    -0.341 OA
HETATM   25  C   UNL     1     -34.547 -48.252  19.518  1.00  0.00     0.211 C 
ENDBRANCH  20  24
ENDBRANCH  13  17
ENDBRANCH   8  11
ENDBRANCH   4   5
ENDBRANCH   1   4
TORSDOF 5
ENDMDL
MODEL 5
REMARK VINA RESULT:      -5.3      5.240      7.341
REMARK  5 active torsions:
REMARK  status: ('A' for Active; 'I' for Inactive)
REMARK    1  A    between atoms: O_2  and  C_3 
REMARK    2  A    between atoms: C_6  and  N_7 
REMARK       I    between atoms: N_7  and  C_8 
REMARK       I    between atoms: C_8  and  N_10 
REMARK    3  A    between atoms: N_10  and  C_11 
REMARK    4  A    between atoms: N_14  and  C_15 
REMARK    5  A    between atoms: C_15  and  C_16 
ROOT
HETATM    1  C   UNL     1     -40.905 -41.111  12.210  1.00  0.00     0.123 C 
HETATM    2  C   UNL     1     -39.846 -40.499  13.025  1.00  0.00    -0.116 C 
HETATM    3  C   UNL     1     -38.982 -39.968  13.668  1.00  0.00     0.012 C 
ENDROOT
BRANCH   1   4
HETATM    4  C   UNL     1     -40.463 -42.475  11.650  1.00  0.00     0.284 C 
BRANCH   4   5
HETATM    5  N   UNL     1     -40.639 -43.599  12.594  1.00  0.00     0.089 N 
HETATM    6  C   UNL     1     -39.584 -44.616  12.426  1.00  0.00     0.274 C 
HETATM    7  C   UNL     1     -39.751 -45.507  11.192  1.00  0.00     0.055 C 
HETATM    8  C   UNL     1     -41.152 -46.121  11.120  1.00  0.00     0.089 C 
HETATM    9  C   UNL     1     -42.220 -45.044  11.289  1.00  0.00     0.055 C 
HETATM   10  C   UNL     1     -41.971 -44.217  12.547  1.00  0.00     0.274 C 
BRANCH   8  11
HETATM   11  N   UNL     1     -41.328 -47.185  12.107  1.00  0.00    -0.338 N 
HETATM   12  C   UNL     1     -41.920 -48.373  11.756  1.00  0.00     0.321 C 
HETATM   13  N   UNL     1     -41.978 -49.256  12.814  1.00  0.00    -0.308 N 
HETATM   14  O   UNL     1     -42.357 -48.571  10.630  1.00  0.00    -0.247 OA
HETATM   15  H   UNL     1     -41.345 -49.094  13.582  1.00  0.00     0.170 HD
HETATM   16  H   UNL     1     -40.762 -47.165  12.940  1.00  0.00     0.164 HD
BRANCH  13  17
HETATM   17  C   UNL     1     -42.663 -50.493  12.790  1.00  0.00     0.051 A 
HETATM   18  C   UNL     1     -43.916 -50.681  13.368  1.00  0.00     0.035 A 
HETATM   19  C   UNL     1     -44.560 -51.909  13.250  1.00  0.00     0.058 A 
HETATM   20  C   UNL     1     -43.918 -52.922  12.563  1.00  0.00     0.141 A 
HETATM   21  N   UNL     1     -42.680 -52.804  12.036  1.00  0.00    -0.345 N 
HETATM   22  C   UNL     1     -42.080 -51.596  12.172  1.00  0.00     0.119 A 
ATOM     23  HN  UNL     1     -42.221 -53.582  11.561  1.00  0.00     0.167 HD
BRANCH  20  24
HETATM   24  O   UNL     1     -44.619 -54.104  12.432  1.00  0.00    -0.341 OA
HETATM   25  C   UNL     1     -45.328 -54.456  13.613  1.00  0.00     0.211 C 
ENDBRANCH  20  24
ENDBRANCH  13  17
ENDBRANCH   8  11
ENDBRANCH   4   5
ENDBRANCH   1   4
TORSDOF 5
ENDMDL
MODEL 6
REMARK VINA RESULT:      -5.3      4.936      6.726
REMARK  5 active torsions:
REMARK  status: ('A' for Active; 'I' for Inactive)
REMARK    1  A    between atoms: O_2  and  C_3 
REMARK    2  A    between atoms: C_6  and  N_7 
REMARK       I    between atoms: N_7  and  C_8 
REMARK       I    between atoms: C_8  and  N_10 
REMARK    3  A    between atoms: N_10  and  C_11 
REMARK    4  A    between atoms: N_14  and  C_15 
REMARK    5  A    between atoms: C_15  and  C_16 
ROOT
HETATM    1  C   UNL     1     -39.850 -44.395  11.864  1.00  0.00     0.123 C 
HETATM    2  C   UNL     1     -40.144 -43.013  12.267  1.00  0.00    -0.116 C 
HETATM    3  C   UNL     1     -40.378 -41.893  12.633  1.00  0.00     0.012 C 
ENDROOT
BRANCH   1   4
HETATM    4  C   UNL     1     -41.034 -45.022  11.106  1.00  0.00     0.284 C 
BRANCH   4   5
HETATM    5  N   UNL     1     -40.897 -46.475  10.872  1.00  0.00     0.089 N 
HETATM    6  C   UNL     1     -42.086 -47.028  10.197  1.00  0.00     0.274 C 
HETATM    7  C   UNL     1     -43.310 -47.197  11.102  1.00  0.00     0.055 C 
HETATM    8  C   UNL     1     -42.969 -47.969  12.381  1.00  0.00     0.089 C 
HETATM    9  C   UNL     1     -41.740 -47.368  13.059  1.00  0.00     0.055 C 
HETATM   10  C   UNL     1     -40.576 -47.248  12.079  1.00  0.00     0.274 C 
BRANCH   8  11
HETATM   11  N   UNL     1     -42.771 -49.393  12.117  1.00  0.00    -0.338 N 
HETATM   12  C   UNL     1     -43.130 -50.333  13.050  1.00  0.00     0.321 C 
HETATM   13  N   UNL     1     -42.885 -51.618  12.612  1.00  0.00    -0.308 N 
HETATM   14  O   UNL     1     -43.583 -50.020  14.143  1.00  0.00    -0.247 OA
HETATM   15  H   UNL     1     -42.788 -51.753  11.618  1.00  0.00     0.170 HD
HETATM   16  H   UNL     1     -42.657 -49.692  11.162  1.00  0.00     0.164 HD
BRANCH  13  17
HETATM   17  C   UNL     1     -43.014 -52.777  13.413  1.00  0.00     0.051 A 
HETATM   18  C   UNL     1     -44.008 -53.732  13.216  1.00  0.00     0.035 A 
HETATM   19  C   UNL     1     -44.035 -54.880  14.003  1.00  0.00     0.058 A 
HETATM   20  C   UNL     1     -43.067 -55.030  14.978  1.00  0.00     0.141 A 
HETATM   21  N   UNL     1     -42.120 -54.103  15.244  1.00  0.00    -0.345 N 
HETATM   22  C   UNL     1     -42.124 -52.997  14.462  1.00  0.00     0.119 A 
ATOM     23  HN  UNL     1     -41.439 -54.230  15.992  1.00  0.00     0.167 HD
BRANCH  20  24
HETATM   24  O   UNL     1     -43.109 -56.207  15.697  1.00  0.00    -0.341 OA
HETATM   25  C   UNL     1     -41.997 -56.357  16.570  1.00  0.00     0.211 C 
ENDBRANCH  20  24
ENDBRANCH  13  17
ENDBRANCH   8  11
ENDBRANCH   4   5
ENDBRANCH   1   4
TORSDOF 5
ENDMDL
MODEL 7
REMARK VINA RESULT:      -5.3      4.998      8.200
REMARK  5 active torsions:
REMARK  status: ('A' for Active; 'I' for Inactive)
REMARK    1  A    between atoms: O_2  and  C_3 
REMARK    2  A    between atoms: C_6  and  N_7 
REMARK       I    between atoms: N_7  and  C_8 
REMARK       I    between atoms: C_8  and  N_10 
REMARK    3  A    between atoms: N_10  and  C_11 
REMARK    4  A    between atoms: N_14  and  C_15 
REMARK    5  A    between atoms: C_15  and  C_16 
ROOT
HETATM    1  C   UNL     1     -42.851 -55.055  16.662  1.00  0.00     0.123 C 
HETATM    2  C   UNL     1     -43.661 -54.507  17.759  1.00  0.00    -0.116 C 
HETATM    3  C   UNL     1     -44.321 -54.094  18.674  1.00  0.00     0.012 C 
ENDROOT
BRANCH   1   4
HETATM    4  C   UNL     1     -43.578 -54.929  15.311  1.00  0.00     0.284 C 
BRANCH   4   5
HETATM    5  N   UNL     1     -42.770 -54.290  14.251  1.00  0.00     0.089 N 
HETATM    6  C   UNL     1     -42.181 -53.019  14.713  1.00  0.00     0.274 C 
HETATM    7  C   UNL     1     -43.170 -51.851  14.789  1.00  0.00     0.055 C 
HETATM    8  C   UNL     1     -43.947 -51.679  13.480  1.00  0.00     0.089 C 
HETATM    9  C   UNL     1     -44.549 -53.009  13.035  1.00  0.00     0.055 C 
HETATM   10  C   UNL     1     -43.486 -54.103  12.983  1.00  0.00     0.274 C 
BRANCH   8  11
HETATM   11  N   UNL     1     -43.111 -51.108  12.425  1.00  0.00    -0.338 N 
HETATM   12  C   UNL     1     -42.711 -49.797  12.484  1.00  0.00     0.321 C 
HETATM   13  N   UNL     1     -41.915 -49.449  11.412  1.00  0.00    -0.308 N 
HETATM   14  O   UNL     1     -43.067 -49.051  13.387  1.00  0.00    -0.247 OA
HETATM   15  H   UNL     1     -41.468 -50.201  10.910  1.00  0.00     0.170 HD
HETATM   16  H   UNL     1     -42.595 -51.736  11.830  1.00  0.00     0.164 HD
BRANCH  13  17
HETATM   17  C   UNL     1     -41.480 -48.134  11.129  1.00  0.00     0.051 A 
HETATM   18  C   UNL     1     -40.332 -47.575  11.684  1.00  0.00     0.035 A 
HETATM   19  C   UNL     1     -39.930 -46.296  11.311  1.00  0.00     0.058 A 
HETATM   20  C   UNL     1     -40.704 -45.606  10.396  1.00  0.00     0.141 A 
HETATM   21  N   UNL     1     -41.855 -46.084   9.876  1.00  0.00    -0.345 N 
HETATM   22  C   UNL     1     -42.220 -47.331  10.263  1.00  0.00     0.119 A 
ATOM     23  HN  UNL     1     -42.420 -45.537   9.226  1.00  0.00     0.167 HD
BRANCH  20  24
HETATM   24  O   UNL     1     -40.235 -44.363  10.022  1.00  0.00    -0.341 OA
HETATM   25  C   UNL     1     -40.380 -43.390  11.048  1.00  0.00     0.211 C 
ENDBRANCH  20  24
ENDBRANCH  13  17
ENDBRANCH   8  11
ENDBRANCH   4   5
ENDBRANCH   1   4
TORSDOF 5
ENDMDL
MODEL 8
REMARK VINA RESULT:      -5.1     16.577     19.359
REMARK  5 active torsions:
REMARK  status: ('A' for Active; 'I' for Inactive)
REMARK    1  A    between atoms: O_2  and  C_3 
REMARK    2  A    between atoms: C_6  and  N_7 
REMARK       I    between atoms: N_7  and  C_8 
REMARK       I    between atoms: C_8  and  N_10 
REMARK    3  A    between atoms: N_10  and  C_11 
REMARK    4  A    between atoms: N_14  and  C_15 
REMARK    5  A    between atoms: C_15  and  C_16 
ROOT
HETATM    1  C   UNL     1     -52.279 -56.794  -4.412  1.00  0.00     0.123 C 
HETATM    2  C   UNL     1     -53.183 -57.645  -3.625  1.00  0.00    -0.116 C 
HETATM    3  C   UNL     1     -53.952 -58.325  -3.000  1.00  0.00     0.012 C 
ENDROOT
BRANCH   1   4
HETATM    4  C   UNL     1     -51.395 -55.923  -3.501  1.00  0.00     0.284 C 
BRANCH   4   5
HETATM    5  N   UNL     1     -51.758 -54.491  -3.502  1.00  0.00     0.089 N 
HETATM    6  C   UNL     1     -50.564 -53.631  -3.383  1.00  0.00     0.274 C 
HETATM    7  C   UNL     1     -49.963 -53.571  -1.976  1.00  0.00     0.055 C 
HETATM    8  C   UNL     1     -51.020 -53.232  -0.920  1.00  0.00     0.089 C 
HETATM    9  C   UNL     1     -52.236 -54.142  -1.066  1.00  0.00     0.055 C 
HETATM   10  C   UNL     1     -52.765 -54.127  -2.497  1.00  0.00     0.274 C 
BRANCH   8  11
HETATM   11  N   UNL     1     -51.414 -51.825  -0.982  1.00  0.00    -0.338 N 
HETATM   12  C   UNL     1     -50.823 -50.897  -0.161  1.00  0.00     0.321 C 
HETATM   13  N   UNL     1     -51.312 -49.626  -0.380  1.00  0.00    -0.308 N 
HETATM   14  O   UNL     1     -49.985 -51.212   0.674  1.00  0.00    -0.247 OA
HETATM   15  H   UNL     1     -51.769 -49.455  -1.262  1.00  0.00     0.170 HD
HETATM   16  H   UNL     1     -51.887 -51.495  -1.808  1.00  0.00     0.164 HD
BRANCH  13  17
HETATM   17  C   UNL     1     -51.000 -48.499   0.415  1.00  0.00     0.051 A 
HETATM   18  C   UNL     1     -49.835 -47.752   0.255  1.00  0.00     0.035 A 
HETATM   19  C   UNL     1     -49.624 -46.617   1.031  1.00  0.00     0.058 A 
HETATM   20  C   UNL     1     -50.587 -46.269   1.960  1.00  0.00     0.141 A 
HETATM   21  N   UNL     1     -51.704 -46.994   2.191  1.00  0.00    -0.345 N 
HETATM   22  C   UNL     1     -51.877 -48.096   1.420  1.00  0.00     0.119 A 
ATOM     23  HN  UNL     1     -52.380 -46.727   2.906  1.00  0.00     0.167 HD
BRANCH  20  24
HETATM   24  O   UNL     1     -50.354 -45.108   2.669  1.00  0.00    -0.341 OA
HETATM   25  C   UNL     1     -51.506 -44.281   2.763  1.00  0.00     0.211 C 
ENDBRANCH  20  24
ENDBRANCH  13  17
ENDBRANCH   8  11
ENDBRANCH   4   5
ENDBRANCH   1   4
TORSDOF 5
ENDMDL
MODEL 9
REMARK VINA RESULT:      -5.1     14.971     19.084
REMARK  5 active torsions:
REMARK  status: ('A' for Active; 'I' for Inactive)
REMARK    1  A    between atoms: O_2  and  C_3 
REMARK    2  A    between atoms: C_6  and  N_7 
REMARK       I    between atoms: N_7  and  C_8 
REMARK       I    between atoms: C_8  and  N_10 
REMARK    3  A    between atoms: N_10  and  C_11 
REMARK    4  A    between atoms: N_14  and  C_15 
REMARK    5  A    between atoms: C_15  and  C_16 
ROOT
HETATM    1  C   UNL     1     -25.786 -64.250  14.845  1.00  0.00     0.123 C 
HETATM    2  C   UNL     1     -25.026 -65.496  14.672  1.00  0.00    -0.116 C 
HETATM    3  C   UNL     1     -24.429 -66.524  14.501  1.00  0.00     0.012 C 
ENDROOT
BRANCH   1   4
HETATM    4  C   UNL     1     -26.339 -64.125  16.276  1.00  0.00     0.284 C 
BRANCH   4   5
HETATM    5  N   UNL     1     -27.772 -64.465  16.399  1.00  0.00     0.089 N 
HETATM    6  C   UNL     1     -28.604 -63.626  15.516  1.00  0.00     0.274 C 
HETATM    7  C   UNL     1     -28.808 -62.191  16.011  1.00  0.00     0.055 C 
HETATM    8  C   UNL     1     -29.299 -62.155  17.461  1.00  0.00     0.089 C 
HETATM    9  C   UNL     1     -28.414 -63.026  18.349  1.00  0.00     0.055 C 
HETATM   10  C   UNL     1     -28.279 -64.434  17.777  1.00  0.00     0.274 C 
BRANCH   8  11
HETATM   11  N   UNL     1     -30.700 -62.558  17.569  1.00  0.00    -0.338 N 
HETATM   12  C   UNL     1     -31.609 -61.761  18.217  1.00  0.00     0.321 C 
HETATM   13  N   UNL     1     -32.879 -62.299  18.197  1.00  0.00    -0.308 N 
HETATM   14  O   UNL     1     -31.281 -60.714  18.760  1.00  0.00    -0.247 OA
HETATM   15  H   UNL     1     -33.071 -62.994  17.492  1.00  0.00     0.170 HD
HETATM   16  H   UNL     1     -31.049 -63.253  16.928  1.00  0.00     0.164 HD
BRANCH  13  17
HETATM   17  C   UNL     1     -33.983 -61.777  18.909  1.00  0.00     0.051 A 
HETATM   18  C   UNL     1     -34.308 -62.168  20.205  1.00  0.00     0.035 A 
HETATM   19  C   UNL     1     -35.372 -61.565  20.868  1.00  0.00     0.058 A 
HETATM   20  C   UNL     1     -36.092 -60.589  20.203  1.00  0.00     0.141 A 
HETATM   21  N   UNL     1     -35.850 -60.218  18.926  1.00  0.00    -0.345 N 
HETATM   22  C   UNL     1     -34.809 -60.828  18.308  1.00  0.00     0.119 A 
ATOM     23  HN  UNL     1     -36.419 -59.517  18.453  1.00  0.00     0.167 HD
BRANCH  20  24
HETATM   24  O   UNL     1     -37.104 -59.987  20.921  1.00  0.00    -0.341 OA
HETATM   25  C   UNL     1     -38.355 -60.644  20.763  1.00  0.00     0.211 C 
ENDBRANCH  20  24
ENDBRANCH  13  17
ENDBRANCH   8  11
ENDBRANCH   4   5
ENDBRANCH   1   4
TORSDOF 5
ENDMDL
