MODEL 1
REMARK VINA RESULT:      -6.0      0.000      0.000
REMARK  6 active torsions:
REMARK  status: ('A' for Active; 'I' for Inactive)
REMARK    1  A    between atoms: N_2  and  C_4 
REMARK    2  A    between atoms: C_7  and  N_8 
REMARK       I    between atoms: N_8  and  C_9 
REMARK       I    between atoms: C_9  and  N_11 
REMARK    3  A    between atoms: N_11  and  C_12 
REMARK    4  A    between atoms: C_12  and  C_13 
REMARK    5  A    between atoms: C_13  and  C_14 
REMARK    6  A    between atoms: C_14  and  O_15 
ROOT
HETATM    1  N   UNL     1     -42.808 -49.593  11.720  1.00  0.00    -0.308 N 
HETATM    2  C   UNL     1     -42.485 -50.469  12.746  1.00  0.00     0.321 C 
HETATM    3  O   UNL     1     -41.733 -50.219  13.675  1.00  0.00    -0.247 OA
HETATM    4  N   UNL     1     -43.119 -51.689  12.634  1.00  0.00    -0.333 N 
HETATM    5  H   UNL     1     -43.689 -49.742  11.258  1.00  0.00     0.170 HD
HETATM    6  H   UNL     1     -43.361 -51.962  11.693  1.00  0.00     0.165 HD
ENDROOT
BRANCH   1   7
HETATM    7  C   UNL     1     -42.160 -48.346  11.533  1.00  0.00     0.051 A 
HETATM    8  C   UNL     1     -42.671 -47.155  12.018  1.00  0.00     0.035 A 
HETATM    9  C   UNL     1     -42.003 -45.949  11.807  1.00  0.00     0.050 A 
HETATM   10  C   UNL     1     -40.796 -45.923  11.111  1.00  0.00     0.102 A 
HETATM   11  N   UNL     1     -40.257 -47.078  10.662  1.00  0.00    -0.350 N 
HETATM   12  C   UNL     1     -40.940 -48.246  10.869  1.00  0.00     0.119 A 
ATOM     13  HN  UNL     1     -39.360 -47.080  10.178  1.00  0.00     0.166 HD
BRANCH  10  14
HETATM   14  N   UNL     1     -40.127 -44.697  10.934  1.00  0.00    -0.376 N 
HETATM   15  C   UNL     1     -39.286 -44.622   9.748  1.00  0.00     0.150 C 
HETATM   16  C   UNL     1     -40.884 -43.492  11.263  1.00  0.00     0.150 C 
ENDBRANCH  10  14
ENDBRANCH   1   7
BRANCH   4  17
HETATM   17  C   UNL     1     -42.948 -52.768  13.658  1.00  0.00     0.040 C 
HETATM   18  C   UNL     1     -43.670 -54.089  13.259  1.00  0.00     0.057 C 
HETATM   19  C   UNL     1     -45.177 -54.080  13.476  1.00  0.00     0.170 C 
HETATM   20  O   UNL     1     -45.514 -53.622  14.781  1.00  0.00    -0.391 OA
HETATM   21  C   UNL     1     -45.051 -52.299  15.013  1.00  0.00     0.170 C 
HETATM   22  C   UNL     1     -43.529 -52.274  15.002  1.00  0.00     0.057 C 
BRANCH  17  23
HETATM   23  C   UNL     1     -41.432 -53.105  13.848  1.00  0.00     0.057 C 
BRANCH  23  24
HETATM   24  C   UNL     1     -40.837 -54.037  12.798  1.00  0.00     0.166 C 
BRANCH  24  25
HETATM   25  O   UNL     1     -40.625 -53.331  11.579  1.00  0.00    -0.401 OA
HETATM   26  H   UNL     1     -40.811 -52.391  11.743  1.00  0.00     0.209 HD
ENDBRANCH  24  25
ENDBRANCH  23  24
ENDBRANCH  17  23
ENDBRANCH   4  17
TORSDOF 6
ENDMDL
MODEL 2
REMARK VINA RESULT:      -5.7      3.124      7.428
REMARK  6 active torsions:
REMARK  status: ('A' for Active; 'I' for Inactive)
REMARK    1  A    between atoms: N_2  and  C_4 
REMARK    2  A    between atoms: C_7  and  N_8 
REMARK       I    between atoms: N_8  and  C_9 
REMARK       I    between atoms: C_9  and  N_11 
REMARK    3  A    between atoms: N_11  and  C_12 
REMARK    4  A    between atoms: C_12  and  C_13 
REMARK    5  A    between atoms: C_13  and  C_14 
REMARK    6  A    between atoms: C_14  and  O_15 
ROOT
HETATM    1  N   UNL     1     -40.653 -50.198  10.968  1.00  0.00    -0.308 N 
HETATM    2  C   UNL     1     -41.486 -49.108  11.175  1.00  0.00     0.321 C 
HETATM    3  O   UNL     1     -42.067 -48.854  12.219  1.00  0.00    -0.247 OA
HETATM    4  N   UNL     1     -41.599 -48.296  10.065  1.00  0.00    -0.333 N 
HETATM    5  H   UNL     1     -39.952 -50.102  10.253  1.00  0.00     0.170 HD
HETATM    6  H   UNL     1     -41.458 -48.758   9.180  1.00  0.00     0.165 HD
ENDROOT
BRANCH   1   7
HETATM    7  C   UNL     1     -40.511 -51.253  11.903  1.00  0.00     0.051 A 
HETATM    8  C   UNL     1     -39.518 -51.272  12.867  1.00  0.00     0.035 A 
HETATM    9  C   UNL     1     -39.411 -52.334  13.766  1.00  0.00     0.050 A 
HETATM   10  C   UNL     1     -40.314 -53.393  13.717  1.00  0.00     0.102 A 
HETATM   11  N   UNL     1     -41.316 -53.378  12.810  1.00  0.00    -0.350 N 
HETATM   12  C   UNL     1     -41.390 -52.333  11.930  1.00  0.00     0.119 A 
ATOM     13  HN  UNL     1     -42.003 -54.131  12.781  1.00  0.00     0.166 HD
BRANCH  10  14
HETATM   14  N   UNL     1     -40.202 -54.441  14.652  1.00  0.00    -0.376 N 
HETATM   15  C   UNL     1     -38.943 -54.478  15.383  1.00  0.00     0.150 C 
HETATM   16  C   UNL     1     -41.403 -54.756  15.420  1.00  0.00     0.150 C 
ENDBRANCH  10  14
ENDBRANCH   1   7
BRANCH   4  17
HETATM   17  C   UNL     1     -42.414 -47.039  10.082  1.00  0.00     0.040 C 
HETATM   18  C   UNL     1     -43.759 -47.210  10.847  1.00  0.00     0.057 C 
HETATM   19  C   UNL     1     -44.845 -47.939  10.066  1.00  0.00     0.170 C 
HETATM   20  O   UNL     1     -45.001 -47.398   8.758  1.00  0.00    -0.391 OA
HETATM   21  C   UNL     1     -43.804 -47.496   8.000  1.00  0.00     0.170 C 
HETATM   22  C   UNL     1     -42.721 -46.627   8.624  1.00  0.00     0.057 C 
BRANCH  17  23
HETATM   23  C   UNL     1     -41.622 -45.886  10.783  1.00  0.00     0.057 C 
BRANCH  23  24
HETATM   24  C   UNL     1     -40.119 -45.881  10.528  1.00  0.00     0.166 C 
BRANCH  24  25
HETATM   25  O   UNL     1     -39.800 -44.957   9.493  1.00  0.00    -0.401 OA
HETATM   26  H   UNL     1     -39.539 -45.467   8.707  1.00  0.00     0.209 HD
ENDBRANCH  24  25
ENDBRANCH  23  24
ENDBRANCH  17  23
ENDBRANCH   4  17
TORSDOF 6
ENDMDL
MODEL 3
REMARK VINA RESULT:      -5.7      2.388      2.815
REMARK  6 active torsions:
REMARK  status: ('A' for Active; 'I' for Inactive)
REMARK    1  A    between atoms: N_2  and  C_4 
REMARK    2  A    between atoms: C_7  and  N_8 
REMARK       I    between atoms: N_8  and  C_9 
REMARK       I    between atoms: C_9  and  N_11 
REMARK    3  A    between atoms: N_11  and  C_12 
REMARK    4  A    between atoms: C_12  and  C_13 
REMARK    5  A    between atoms: C_13  and  C_14 
REMARK    6  A    between atoms: C_14  and  O_15 
ROOT
HETATM    1  N   UNL     1     -41.658 -50.304  13.267  1.00  0.00    -0.308 N 
HETATM    2  C   UNL     1     -41.761 -51.686  13.216  1.00  0.00     0.321 C 
HETATM    3  O   UNL     1     -42.029 -52.335  12.216  1.00  0.00    -0.247 OA
HETATM    4  N   UNL     1     -41.515 -52.292  14.430  1.00  0.00    -0.333 N 
HETATM    5  H   UNL     1     -41.076 -49.920  13.993  1.00  0.00     0.170 HD
HETATM    6  H   UNL     1     -41.715 -51.726  15.241  1.00  0.00     0.165 HD
ENDROOT
BRANCH   1   7
HETATM    7  C   UNL     1     -42.025 -49.459  12.190  1.00  0.00     0.051 A 
HETATM    8  C   UNL     1     -43.187 -48.705  12.191  1.00  0.00     0.035 A 
HETATM    9  C   UNL     1     -43.513 -47.889  11.107  1.00  0.00     0.050 A 
HETATM   10  C   UNL     1     -42.664 -47.808  10.005  1.00  0.00     0.102 A 
HETATM   11  N   UNL     1     -41.506 -48.504   9.999  1.00  0.00    -0.350 N 
HETATM   12  C   UNL     1     -41.216 -49.308  11.067  1.00  0.00     0.119 A 
ATOM     13  HN  UNL     1     -40.860 -48.431   9.213  1.00  0.00     0.166 HD
BRANCH  10  14
HETATM   14  N   UNL     1     -43.003 -46.957   8.935  1.00  0.00    -0.376 N 
HETATM   15  C   UNL     1     -43.446 -47.637   7.727  1.00  0.00     0.150 C 
HETATM   16  C   UNL     1     -43.715 -45.731   9.282  1.00  0.00     0.150 C 
ENDBRANCH  10  14
ENDBRANCH   1   7
BRANCH   4  17
HETATM   17  C   UNL     1     -41.528 -53.781  14.591  1.00  0.00     0.040 C 
HETATM   18  C   UNL     1     -42.837 -54.428  14.050  1.00  0.00     0.057 C 
HETATM   19  C   UNL     1     -44.042 -54.287  14.972  1.00  0.00     0.170 C 
HETATM   20  O   UNL     1     -43.728 -54.673  16.305  1.00  0.00    -0.391 OA
HETATM   21  C   UNL     1     -42.687 -53.878  16.855  1.00  0.00     0.170 C 
HETATM   22  C   UNL     1     -41.391 -54.120  16.093  1.00  0.00     0.057 C 
BRANCH  17  23
HETATM   23  C   UNL     1     -40.334 -54.424  13.811  1.00  0.00     0.057 C 
BRANCH  23  24
HETATM   24  C   UNL     1     -38.975 -54.307  14.492  1.00  0.00     0.166 C 
BRANCH  24  25
HETATM   25  O   UNL     1     -38.474 -55.601  14.813  1.00  0.00    -0.401 OA
HETATM   26  H   UNL     1     -39.031 -56.257  14.362  1.00  0.00     0.209 HD
ENDBRANCH  24  25
ENDBRANCH  23  24
ENDBRANCH  17  23
ENDBRANCH   4  17
TORSDOF 6
ENDMDL
MODEL 4
REMARK VINA RESULT:      -5.7      1.677      2.762
REMARK  6 active torsions:
REMARK  status: ('A' for Active; 'I' for Inactive)
REMARK    1  A    between atoms: N_2  and  C_4 
REMARK    2  A    between atoms: C_7  and  N_8 
REMARK       I    between atoms: N_8  and  C_9 
REMARK       I    between atoms: C_9  and  N_11 
REMARK    3  A    between atoms: N_11  and  C_12 
REMARK    4  A    between atoms: C_12  and  C_13 
REMARK    5  A    between atoms: C_13  and  C_14 
REMARK    6  A    between atoms: C_14  and  O_15 
ROOT
HETATM    1  N   UNL     1     -42.085 -49.927  11.495  1.00  0.00    -0.308 N 
HETATM    2  C   UNL     1     -42.837 -50.226  12.621  1.00  0.00     0.321 C 
HETATM    3  O   UNL     1     -43.263 -49.407  13.421  1.00  0.00    -0.247 OA
HETATM    4  N   UNL     1     -43.086 -51.576  12.764  1.00  0.00    -0.333 N 
HETATM    5  H   UNL     1     -42.125 -50.587  10.736  1.00  0.00     0.170 HD
HETATM    6  H   UNL     1     -42.397 -52.184  12.348  1.00  0.00     0.165 HD
ENDROOT
BRANCH   1   7
HETATM    7  C   UNL     1     -41.569 -48.635  11.228  1.00  0.00     0.051 A 
HETATM    8  C   UNL     1     -40.438 -48.136  11.851  1.00  0.00     0.035 A 
HETATM    9  C   UNL     1     -39.966 -46.855  11.563  1.00  0.00     0.050 A 
HETATM   10  C   UNL     1     -40.621 -46.056  10.627  1.00  0.00     0.102 A 
HETATM   11  N   UNL     1     -41.704 -46.536   9.977  1.00  0.00    -0.350 N 
HETATM   12  C   UNL     1     -42.156 -47.790  10.289  1.00  0.00     0.119 A 
ATOM     13  HN  UNL     1     -42.176 -45.975   9.268  1.00  0.00     0.166 HD
BRANCH  10  14
HETATM   14  N   UNL     1     -40.110 -44.777  10.334  1.00  0.00    -0.376 N 
HETATM   15  C   UNL     1     -40.078 -43.855  11.461  1.00  0.00     0.150 C 
HETATM   16  C   UNL     1     -38.966 -44.728   9.429  1.00  0.00     0.150 C 
ENDBRANCH  10  14
ENDBRANCH   1   7
BRANCH   4  17
HETATM   17  C   UNL     1     -43.917 -52.115  13.886  1.00  0.00     0.040 C 
HETATM   18  C   UNL     1     -43.375 -51.698  15.285  1.00  0.00     0.057 C 
HETATM   19  C   UNL     1     -42.164 -52.492  15.759  1.00  0.00     0.170 C 
HETATM   20  O   UNL     1     -42.375 -53.893  15.628  1.00  0.00    -0.391 OA
HETATM   21  C   UNL     1     -42.618 -54.268  14.280  1.00  0.00     0.170 C 
HETATM   22  C   UNL     1     -43.928 -53.658  13.800  1.00  0.00     0.057 C 
BRANCH  17  23
HETATM   23  C   UNL     1     -45.386 -51.587  13.779  1.00  0.00     0.057 C 
BRANCH  23  24
HETATM   24  C   UNL     1     -46.338 -52.471  12.980  1.00  0.00     0.166 C 
BRANCH  24  25
HETATM   25  O   UNL     1     -46.077 -52.339  11.587  1.00  0.00    -0.401 OA
HETATM   26  H   UNL     1     -46.396 -51.465  11.305  1.00  0.00     0.209 HD
ENDBRANCH  24  25
ENDBRANCH  23  24
ENDBRANCH  17  23
ENDBRANCH   4  17
TORSDOF 6
ENDMDL
MODEL 5
REMARK VINA RESULT:      -5.1      1.801      2.089
REMARK  6 active torsions:
REMARK  status: ('A' for Active; 'I' for Inactive)
REMARK    1  A    between atoms: N_2  and  C_4 
REMARK    2  A    between atoms: C_7  and  N_8 
REMARK       I    between atoms: N_8  and  C_9 
REMARK       I    between atoms: C_9  and  N_11 
REMARK    3  A    between atoms: N_11  and  C_12 
REMARK    4  A    between atoms: C_12  and  C_13 
REMARK    5  A    between atoms: C_13  and  C_14 
REMARK    6  A    between atoms: C_14  and  O_15 
ROOT
HETATM    1  N   UNL     1     -41.413 -50.010  14.109  1.00  0.00    -0.308 N 
HETATM    2  C   UNL     1     -41.648 -51.159  13.369  1.00  0.00     0.321 C 
HETATM    3  O   UNL     1     -41.445 -51.279  12.170  1.00  0.00    -0.247 OA
HETATM    4  N   UNL     1     -42.135 -52.202  14.129  1.00  0.00    -0.333 N 
HETATM    5  H   UNL     1     -41.242 -50.132  15.093  1.00  0.00     0.170 HD
HETATM    6  H   UNL     1     -42.649 -51.928  14.953  1.00  0.00     0.165 HD
ENDROOT
BRANCH   1   7
HETATM    7  C   UNL     1     -41.069 -48.767  13.522  1.00  0.00     0.051 A 
HETATM    8  C   UNL     1     -39.757 -48.364  13.336  1.00  0.00     0.035 A 
HETATM    9  C   UNL     1     -39.461 -47.129  12.758  1.00  0.00     0.050 A 
HETATM   10  C   UNL     1     -40.486 -46.281  12.344  1.00  0.00     0.102 A 
HETATM   11  N   UNL     1     -41.773 -46.669  12.480  1.00  0.00    -0.350 N 
HETATM   12  C   UNL     1     -42.037 -47.878  13.063  1.00  0.00     0.119 A 
ATOM     13  HN  UNL     1     -42.533 -46.072  12.154  1.00  0.00     0.166 HD
BRANCH  10  14
HETATM   14  N   UNL     1     -40.162 -45.051  11.740  1.00  0.00    -0.376 N 
HETATM   15  C   UNL     1     -39.424 -44.126  12.588  1.00  0.00     0.150 C 
HETATM   16  C   UNL     1     -39.755 -45.104  10.339  1.00  0.00     0.150 C 
ENDBRANCH  10  14
ENDBRANCH   1   7
BRANCH   4  17
HETATM   17  C   UNL     1     -42.415 -53.550  13.540  1.00  0.00     0.040 C 
HETATM   18  C   UNL     1     -43.449 -53.491  12.377  1.00  0.00     0.057 C 
HETATM   19  C   UNL     1     -44.899 -53.351  12.823  1.00  0.00     0.170 C 
HETATM   20  O   UNL     1     -45.230 -54.303  13.828  1.00  0.00    -0.391 OA
HETATM   21  C   UNL     1     -44.421 -54.154  14.986  1.00  0.00     0.170 C 
HETATM   22  C   UNL     1     -42.970 -54.472  14.649  1.00  0.00     0.057 C 
BRANCH  17  23
HETATM   23  C   UNL     1     -41.102 -54.177  12.964  1.00  0.00     0.057 C 
BRANCH  23  24
HETATM   24  C   UNL     1     -39.989 -54.402  13.983  1.00  0.00     0.166 C 
BRANCH  24  25
HETATM   25  O   UNL     1     -38.780 -54.753  13.318  1.00  0.00    -0.401 OA
HETATM   26  H   UNL     1     -38.802 -54.357  12.430  1.00  0.00     0.209 HD
ENDBRANCH  24  25
ENDBRANCH  23  24
ENDBRANCH  17  23
ENDBRANCH   4  17
TORSDOF 6
ENDMDL
MODEL 6
REMARK VINA RESULT:      -5.1      3.795      6.475
REMARK  6 active torsions:
REMARK  status: ('A' for Active; 'I' for Inactive)
REMARK    1  A    between atoms: N_2  and  C_4 
REMARK    2  A    between atoms: C_7  and  N_8 
REMARK       I    between atoms: N_8  and  C_9 
REMARK       I    between atoms: C_9  and  N_11 
REMARK    3  A    between atoms: N_11  and  C_12 
REMARK    4  A    between atoms: C_12  and  C_13 
REMARK    5  A    between atoms: C_13  and  C_14 
REMARK    6  A    between atoms: C_14  and  O_15 
ROOT
HETATM    1  N   UNL     1     -42.680 -43.862  12.264  1.00  0.00    -0.308 N 
HETATM    2  C   UNL     1     -42.557 -44.925  11.382  1.00  0.00     0.321 C 
HETATM    3  O   UNL     1     -42.106 -44.852  10.250  1.00  0.00    -0.247 OA
HETATM    4  N   UNL     1     -42.991 -46.122  11.914  1.00  0.00    -0.333 N 
HETATM    5  H   UNL     1     -42.686 -44.086  13.245  1.00  0.00     0.170 HD
HETATM    6  H   UNL     1     -43.696 -46.042  12.630  1.00  0.00     0.165 HD
ENDROOT
BRANCH   1   7
HETATM    7  C   UNL     1     -42.453 -42.514  11.890  1.00  0.00     0.051 A 
HETATM    8  C   UNL     1     -43.480 -41.601  11.718  1.00  0.00     0.035 A 
HETATM    9  C   UNL     1     -43.213 -40.284  11.344  1.00  0.00     0.050 A 
HETATM   10  C   UNL     1     -41.901 -39.858  11.148  1.00  0.00     0.102 A 
HETATM   11  N   UNL     1     -40.880 -40.721  11.348  1.00  0.00    -0.350 N 
HETATM   12  C   UNL     1     -41.169 -42.012  11.700  1.00  0.00     0.119 A 
ATOM     13  HN  UNL     1     -39.913 -40.417  11.238  1.00  0.00     0.166 HD
BRANCH  10  14
HETATM   14  N   UNL     1     -41.655 -38.517  10.796  1.00  0.00    -0.376 N 
HETATM   15  C   UNL     1     -42.718 -37.586  11.146  1.00  0.00     0.150 C 
HETATM   16  C   UNL     1     -40.290 -38.037  10.987  1.00  0.00     0.150 C 
ENDBRANCH  10  14
ENDBRANCH   1   7
BRANCH   4  17
HETATM   17  C   UNL     1     -42.906 -47.407  11.149  1.00  0.00     0.040 C 
HETATM   18  C   UNL     1     -43.243 -48.648  12.027  1.00  0.00     0.057 C 
HETATM   19  C   UNL     1     -42.120 -49.092  12.957  1.00  0.00     0.170 C 
HETATM   20  O   UNL     1     -40.883 -49.208  12.263  1.00  0.00    -0.391 OA
HETATM   21  C   UNL     1     -40.483 -47.973  11.684  1.00  0.00     0.170 C 
HETATM   22  C   UNL     1     -41.470 -47.565  10.600  1.00  0.00     0.057 C 
BRANCH  17  23
HETATM   23  C   UNL     1     -43.914 -47.396   9.952  1.00  0.00     0.057 C 
BRANCH  23  24
HETATM   24  C   UNL     1     -43.287 -47.577   8.574  1.00  0.00     0.166 C 
BRANCH  24  25
HETATM   25  O   UNL     1     -43.007 -46.309   7.991  1.00  0.00    -0.401 OA
HETATM   26  H   UNL     1     -43.794 -46.029   7.494  1.00  0.00     0.209 HD
ENDBRANCH  24  25
ENDBRANCH  23  24
ENDBRANCH  17  23
ENDBRANCH   4  17
TORSDOF 6
ENDMDL
MODEL 7
REMARK VINA RESULT:      -5.0      2.952      5.136
REMARK  6 active torsions:
REMARK  status: ('A' for Active; 'I' for Inactive)
REMARK    1  A    between atoms: N_2  and  C_4 
REMARK    2  A    between atoms: C_7  and  N_8 
REMARK       I    between atoms: N_8  and  C_9 
REMARK       I    between atoms: C_9  and  N_11 
REMARK    3  A    between atoms: N_11  and  C_12 
REMARK    4  A    between atoms: C_12  and  C_13 
REMARK    5  A    between atoms: C_13  and  C_14 
REMARK    6  A    between atoms: C_14  and  O_15 
ROOT
HETATM    1  N   UNL     1     -40.629 -46.121  10.540  1.00  0.00    -0.308 N 
HETATM    2  C   UNL     1     -40.691 -47.112  11.509  1.00  0.00     0.321 C 
HETATM    3  O   UNL     1     -41.291 -47.023  12.569  1.00  0.00    -0.247 OA
HETATM    4  N   UNL     1     -40.004 -48.255  11.157  1.00  0.00    -0.333 N 
HETATM    5  H   UNL     1     -40.460 -46.421   9.595  1.00  0.00     0.170 HD
HETATM    6  H   UNL     1     -39.234 -48.114  10.521  1.00  0.00     0.165 HD
ENDROOT
BRANCH   1   7
HETATM    7  C   UNL     1     -41.117 -44.806  10.744  1.00  0.00     0.051 A 
HETATM    8  C   UNL     1     -42.466 -44.517  10.857  1.00  0.00     0.035 A 
HETATM    9  C   UNL     1     -42.905 -43.207  11.052  1.00  0.00     0.050 A 
HETATM   10  C   UNL     1     -41.988 -42.163  11.151  1.00  0.00     0.102 A 
HETATM   11  N   UNL     1     -40.664 -42.426  11.083  1.00  0.00    -0.350 N 
HETATM   12  C   UNL     1     -40.260 -43.717  10.876  1.00  0.00     0.119 A 
ATOM     13  HN  UNL     1     -39.979 -41.677  11.184  1.00  0.00     0.166 HD
BRANCH  10  14
HETATM   14  N   UNL     1     -42.454 -40.853  11.375  1.00  0.00    -0.376 N 
HETATM   15  C   UNL     1     -43.888 -40.742  11.599  1.00  0.00     0.150 C 
HETATM   16  C   UNL     1     -41.605 -39.994  12.195  1.00  0.00     0.150 C 
ENDBRANCH  10  14
ENDBRANCH   1   7
BRANCH   4  17
HETATM   17  C   UNL     1     -39.977 -49.467  12.037  1.00  0.00     0.040 C 
HETATM   18  C   UNL     1     -39.842 -49.106  13.546  1.00  0.00     0.057 C 
HETATM   19  C   UNL     1     -38.435 -48.721  13.983  1.00  0.00     0.170 C 
HETATM   20  O   UNL     1     -37.472 -49.670  13.539  1.00  0.00    -0.391 OA
HETATM   21  C   UNL     1     -37.453 -49.782  12.122  1.00  0.00     0.170 C 
HETATM   22  C   UNL     1     -38.777 -50.351  11.630  1.00  0.00     0.057 C 
BRANCH  17  23
HETATM   23  C   UNL     1     -41.298 -50.290  11.871  1.00  0.00     0.057 C 
BRANCH  23  24
HETATM   24  C   UNL     1     -41.185 -51.773  12.206  1.00  0.00     0.166 C 
BRANCH  24  25
HETATM   25  O   UNL     1     -41.313 -52.554  11.022  1.00  0.00    -0.401 OA
HETATM   26  H   UNL     1     -40.443 -52.582  10.588  1.00  0.00     0.209 HD
ENDBRANCH  24  25
ENDBRANCH  23  24
ENDBRANCH  17  23
ENDBRANCH   4  17
TORSDOF 6
ENDMDL
MODEL 8
REMARK VINA RESULT:      -5.0      2.386      3.492
REMARK  6 active torsions:
REMARK  status: ('A' for Active; 'I' for Inactive)
REMARK    1  A    between atoms: N_2  and  C_4 
REMARK    2  A    between atoms: C_7  and  N_8 
REMARK       I    between atoms: N_8  and  C_9 
REMARK       I    between atoms: C_9  and  N_11 
REMARK    3  A    between atoms: N_11  and  C_12 
REMARK    4  A    between atoms: C_12  and  C_13 
REMARK    5  A    between atoms: C_13  and  C_14 
REMARK    6  A    between atoms: C_14  and  O_15 
ROOT
HETATM    1  N   UNL     1     -43.161 -50.539  14.176  1.00  0.00    -0.308 N 
HETATM    2  C   UNL     1     -44.427 -51.104  14.144  1.00  0.00     0.321 C 
HETATM    3  O   UNL     1     -45.251 -50.936  13.258  1.00  0.00    -0.247 OA
HETATM    4  N   UNL     1     -44.686 -51.914  15.231  1.00  0.00    -0.333 N 
HETATM    5  H   UNL     1     -42.461 -51.028  14.708  1.00  0.00     0.170 HD
HETATM    6  H   UNL     1     -44.177 -51.681  16.070  1.00  0.00     0.165 HD
ENDROOT
BRANCH   1   7
HETATM    7  C   UNL     1     -42.730 -49.550  13.258  1.00  0.00     0.051 A 
HETATM    8  C   UNL     1     -42.903 -48.194  13.481  1.00  0.00     0.035 A 
HETATM    9  C   UNL     1     -42.468 -47.253  12.548  1.00  0.00     0.050 A 
HETATM   10  C   UNL     1     -41.837 -47.661  11.375  1.00  0.00     0.102 A 
HETATM   11  N   UNL     1     -41.622 -48.977  11.154  1.00  0.00    -0.350 N 
HETATM   12  C   UNL     1     -42.071 -49.881  12.077  1.00  0.00     0.119 A 
ATOM     13  HN  UNL     1     -41.134 -49.290  10.314  1.00  0.00     0.166 HD
BRANCH  10  14
HETATM   14  N   UNL     1     -41.383 -46.691  10.461  1.00  0.00    -0.376 N 
HETATM   15  C   UNL     1     -42.430 -45.874   9.864  1.00  0.00     0.150 C 
HETATM   16  C   UNL     1     -40.147 -45.998  10.811  1.00  0.00     0.150 C 
ENDBRANCH  10  14
ENDBRANCH   1   7
BRANCH   4  17
HETATM   17  C   UNL     1     -45.977 -52.659  15.375  1.00  0.00     0.040 C 
HETATM   18  C   UNL     1     -47.194 -51.711  15.586  1.00  0.00     0.057 C 
HETATM   19  C   UNL     1     -47.325 -51.152  16.997  1.00  0.00     0.170 C 
HETATM   20  O   UNL     1     -47.230 -52.179  17.977  1.00  0.00    -0.391 OA
HETATM   21  C   UNL     1     -45.984 -52.859  17.912  1.00  0.00     0.170 C 
HETATM   22  C   UNL     1     -45.871 -53.607  16.591  1.00  0.00     0.057 C 
BRANCH  17  23
HETATM   23  C   UNL     1     -46.263 -53.506  14.090  1.00  0.00     0.057 C 
BRANCH  23  24
HETATM   24  C   UNL     1     -45.332 -54.694  13.874  1.00  0.00     0.166 C 
BRANCH  24  25
HETATM   25  O   UNL     1     -46.079 -55.906  13.850  1.00  0.00    -0.401 OA
HETATM   26  H   UNL     1     -46.816 -55.813  14.477  1.00  0.00     0.209 HD
ENDBRANCH  24  25
ENDBRANCH  23  24
ENDBRANCH  17  23
ENDBRANCH   4  17
TORSDOF 6
ENDMDL
MODEL 9
REMARK VINA RESULT:      -4.9      3.623      4.891
REMARK  6 active torsions:
REMARK  status: ('A' for Active; 'I' for Inactive)
REMARK    1  A    between atoms: N_2  and  C_4 
REMARK    2  A    between atoms: C_7  and  N_8 
REMARK       I    between atoms: N_8  and  C_9 
REMARK       I    between atoms: C_9  and  N_11 
REMARK    3  A    between atoms: N_11  and  C_12 
REMARK    4  A    between atoms: C_12  and  C_13 
REMARK    5  A    between atoms: C_13  and  C_14 
REMARK    6  A    between atoms: C_14  and  O_15 
ROOT
HETATM    1  N   UNL     1     -40.865 -48.620  13.451  1.00  0.00    -0.308 N 
HETATM    2  C   UNL     1     -39.904 -49.619  13.457  1.00  0.00     0.321 C 
HETATM    3  O   UNL     1     -39.426 -50.142  12.462  1.00  0.00    -0.247 OA
HETATM    4  N   UNL     1     -39.507 -49.980  14.728  1.00  0.00    -0.333 N 
HETATM    5  H   UNL     1     -40.895 -48.015  14.254  1.00  0.00     0.170 HD
HETATM    6  H   UNL     1     -40.196 -49.834  15.450  1.00  0.00     0.165 HD
ENDROOT
BRANCH   1   7
HETATM    7  C   UNL     1     -41.541 -48.201  12.277  1.00  0.00     0.051 A 
HETATM    8  C   UNL     1     -42.912 -48.314  12.122  1.00  0.00     0.035 A 
HETATM    9  C   UNL     1     -43.537 -47.894  10.947  1.00  0.00     0.050 A 
HETATM   10  C   UNL     1     -42.790 -47.339   9.910  1.00  0.00     0.102 A 
HETATM   11  N   UNL     1     -41.456 -47.184  10.054  1.00  0.00    -0.350 N 
HETATM   12  C   UNL     1     -40.864 -47.617  11.210  1.00  0.00     0.119 A 
ATOM     13  HN  UNL     1     -40.900 -46.752   9.316  1.00  0.00     0.166 HD
BRANCH  10  14
HETATM   14  N   UNL     1     -43.447 -46.899   8.745  1.00  0.00    -0.376 N 
HETATM   15  C   UNL     1     -43.402 -47.829   7.625  1.00  0.00     0.150 C 
HETATM   16  C   UNL     1     -44.708 -46.189   8.940  1.00  0.00     0.150 C 
ENDBRANCH  10  14
ENDBRANCH   1   7
BRANCH   4  17
HETATM   17  C   UNL     1     -38.445 -51.009  14.965  1.00  0.00     0.040 C 
HETATM   18  C   UNL     1     -38.575 -51.689  16.360  1.00  0.00     0.057 C 
HETATM   19  C   UNL     1     -38.065 -50.851  17.525  1.00  0.00     0.170 C 
HETATM   20  O   UNL     1     -36.765 -50.332  17.266  1.00  0.00    -0.391 OA
HETATM   21  C   UNL     1     -36.747 -49.501  16.114  1.00  0.00     0.170 C 
HETATM   22  C   UNL     1     -37.062 -50.326  14.874  1.00  0.00     0.057 C 
BRANCH  17  23
HETATM   23  C   UNL     1     -38.530 -52.139  13.886  1.00  0.00     0.057 C 
BRANCH  23  24
HETATM   24  C   UNL     1     -39.149 -53.448  14.363  1.00  0.00     0.166 C 
BRANCH  24  25
HETATM   25  O   UNL     1     -38.724 -54.523  13.533  1.00  0.00    -0.401 OA
HETATM   26  H   UNL     1     -38.306 -54.142  12.742  1.00  0.00     0.209 HD
ENDBRANCH  24  25
ENDBRANCH  23  24
ENDBRANCH  17  23
ENDBRANCH   4  17
TORSDOF 6
ENDMDL
