MODEL 1
REMARK VINA RESULT:      -6.2      0.000      0.000
REMARK  5 active torsions:
REMARK  status: ('A' for Active; 'I' for Inactive)
REMARK    1  A    between atoms: O_2  and  C_3 
REMARK    2  A    between atoms: C_3  and  C_4 
REMARK    3  A    between atoms: C_4  and  N_5 
REMARK       I    between atoms: N_5  and  C_6 
REMARK       I    between atoms: C_6  and  N_8 
REMARK    4  A    between atoms: N_8  and  C_9 
REMARK    5  A    between atoms: C_12  and  C_17 
ROOT
HETATM    1  N   UNL     1     -43.470 -51.785  12.749  1.00  0.00    -0.340 N 
HETATM    2  C   UNL     1     -42.987 -50.506  12.874  1.00  0.00     0.321 C 
HETATM    3  O   UNL     1     -43.175 -49.855  13.900  1.00  0.00    -0.247 OA
HETATM    4  N   UNL     1     -42.289 -50.060  11.782  1.00  0.00    -0.294 N 
HETATM    5  H   UNL     1     -43.217 -52.362  11.957  1.00  0.00     0.164 HD
HETATM    6  H   UNL     1     -41.762 -50.748  11.269  1.00  0.00     0.172 HD
ENDROOT
BRANCH   4   7
HETATM    7  C   UNL     1     -41.705 -48.779  11.764  1.00  0.00     0.123 A 
HETATM    8  C   UNL     1     -40.335 -48.593  11.718  1.00  0.00     0.052 A 
HETATM    9  C   UNL     1     -39.825 -47.304  11.593  1.00  0.00     0.031 A 
HETATM   10  C   UNL     1     -40.699 -46.226  11.505  1.00  0.00     0.033 A 
HETATM   11  N   UNL     1     -42.030 -46.439  11.628  1.00  0.00    -0.303 N 
HETATM   12  N   UNL     1     -42.535 -47.718  11.781  1.00  0.00    -0.285 N 
ATOM     13  HN  UNL     1     -42.670 -45.645  11.608  1.00  0.00     0.186 HD
ATOM     14  HN  UNL     1     -43.538 -47.858  11.906  1.00  0.00     0.188 HD
BRANCH  10  15
HETATM   15  C   UNL     1     -40.188 -44.802  11.285  1.00  0.00    -0.007 C 
HETATM   16  C   UNL     1     -41.360 -43.797  11.258  1.00  0.00     0.021 C 
HETATM   17  C   UNL     1     -39.230 -44.362  12.412  1.00  0.00     0.021 C 
HETATM   18  C   UNL     1     -39.421 -44.728   9.953  1.00  0.00     0.021 C 
ENDBRANCH  10  15
ENDBRANCH   4   7
BRANCH   1  19
HETATM   19  C   UNL     1     -44.024 -52.417  13.934  1.00  0.00     0.162 C 
BRANCH  19  20
HETATM   20  C   UNL     1     -45.471 -52.849  13.687  1.00  0.00     0.076 C 
HETATM   21  C   UNL     1     -46.350 -52.733  14.972  1.00  0.00     0.040 C 
HETATM   22  C   UNL     1     -46.824 -51.353  14.491  1.00  0.00     0.006 C 
HETATM   23  C   UNL     1     -46.395 -51.753  13.069  1.00  0.00     0.040 C 
BRANCH  20  24
HETATM   24  O   UNL     1     -45.536 -54.122  12.981  1.00  0.00    -0.383 OA
HETATM   25  C   UNL     1     -45.541 -55.306  13.771  1.00  0.00     0.202 C 
ENDBRANCH  20  24
ENDBRANCH  19  20
ENDBRANCH   1  19
TORSDOF 5
ENDMDL
MODEL 2
REMARK VINA RESULT:      -6.1      2.459      2.998
REMARK  5 active torsions:
REMARK  status: ('A' for Active; 'I' for Inactive)
REMARK    1  A    between atoms: O_2  and  C_3 
REMARK    2  A    between atoms: C_3  and  C_4 
REMARK    3  A    between atoms: C_4  and  N_5 
REMARK       I    between atoms: N_5  and  C_6 
REMARK       I    between atoms: C_6  and  N_8 
REMARK    4  A    between atoms: N_8  and  C_9 
REMARK    5  A    between atoms: C_12  and  C_17 
ROOT
HETATM    1  N   UNL     1     -41.628 -52.779  11.925  1.00  0.00    -0.340 N 
HETATM    2  C   UNL     1     -41.673 -51.410  12.028  1.00  0.00     0.321 C 
HETATM    3  O   UNL     1     -42.536 -50.854  12.705  1.00  0.00    -0.247 OA
HETATM    4  N   UNL     1     -40.682 -50.762  11.339  1.00  0.00    -0.294 N 
HETATM    5  H   UNL     1     -40.853 -53.241  11.467  1.00  0.00     0.164 HD
HETATM    6  H   UNL     1     -39.793 -51.232  11.273  1.00  0.00     0.172 HD
ENDROOT
BRANCH   4   7
HETATM    7  C   UNL     1     -40.572 -49.358  11.368  1.00  0.00     0.123 A 
HETATM    8  C   UNL     1     -39.762 -48.700  12.275  1.00  0.00     0.052 A 
HETATM    9  C   UNL     1     -39.615 -47.319  12.182  1.00  0.00     0.031 A 
HETATM   10  C   UNL     1     -40.272 -46.626  11.172  1.00  0.00     0.033 A 
HETATM   11  N   UNL     1     -41.114 -47.293  10.349  1.00  0.00    -0.303 N 
HETATM   12  N   UNL     1     -41.282 -48.662  10.460  1.00  0.00    -0.285 N 
ATOM     13  HN  UNL     1     -41.632 -46.779   9.636  1.00  0.00     0.186 HD
ATOM     14  HN  UNL     1     -41.946 -49.144   9.854  1.00  0.00     0.188 HD
BRANCH  10  15
HETATM   15  C   UNL     1     -40.075 -45.122  10.979  1.00  0.00    -0.007 C 
HETATM   16  C   UNL     1     -41.435 -44.394  10.919  1.00  0.00     0.021 C 
HETATM   17  C   UNL     1     -39.272 -44.501  12.143  1.00  0.00     0.021 C 
HETATM   18  C   UNL     1     -39.300 -44.865   9.676  1.00  0.00     0.021 C 
ENDBRANCH  10  15
ENDBRANCH   4   7
BRANCH   1  19
HETATM   19  C   UNL     1     -42.495 -53.551  12.797  1.00  0.00     0.162 C 
BRANCH  19  20
HETATM   20  C   UNL     1     -41.714 -54.076  14.005  1.00  0.00     0.076 C 
HETATM   21  C   UNL     1     -41.751 -53.083  15.209  1.00  0.00     0.040 C 
HETATM   22  C   UNL     1     -42.926 -53.881  15.796  1.00  0.00     0.006 C 
HETATM   23  C   UNL     1     -42.496 -55.069  14.920  1.00  0.00     0.040 C 
BRANCH  20  24
HETATM   24  O   UNL     1     -40.397 -54.563  13.618  1.00  0.00    -0.383 OA
HETATM   25  C   UNL     1     -39.290 -54.152  14.413  1.00  0.00     0.202 C 
ENDBRANCH  20  24
ENDBRANCH  19  20
ENDBRANCH   1  19
TORSDOF 5
ENDMDL
MODEL 3
REMARK VINA RESULT:      -6.0      2.458      8.065
REMARK  5 active torsions:
REMARK  status: ('A' for Active; 'I' for Inactive)
REMARK    1  A    between atoms: O_2  and  C_3 
REMARK    2  A    between atoms: C_3  and  C_4 
REMARK    3  A    between atoms: C_4  and  N_5 
REMARK       I    between atoms: N_5  and  C_6 
REMARK       I    between atoms: C_6  and  N_8 
REMARK    4  A    between atoms: N_8  and  C_9 
REMARK    5  A    between atoms: C_12  and  C_17 
ROOT
HETATM    1  N   UNL     1     -39.817 -48.934  11.174  1.00  0.00    -0.340 N 
HETATM    2  C   UNL     1     -40.496 -49.790  12.005  1.00  0.00     0.321 C 
HETATM    3  O   UNL     1     -40.682 -49.509  13.188  1.00  0.00    -0.247 OA
HETATM    4  N   UNL     1     -40.939 -50.933  11.394  1.00  0.00    -0.294 N 
HETATM    5  H   UNL     1     -39.764 -49.106  10.179  1.00  0.00     0.164 HD
HETATM    6  H   UNL     1     -41.207 -50.854  10.425  1.00  0.00     0.172 HD
ENDROOT
BRANCH   4   7
HETATM    7  C   UNL     1     -41.678 -51.899  12.102  1.00  0.00     0.123 A 
HETATM    8  C   UNL     1     -41.149 -53.131  12.442  1.00  0.00     0.052 A 
HETATM    9  C   UNL     1     -41.895 -53.998  13.235  1.00  0.00     0.031 A 
HETATM   10  C   UNL     1     -43.151 -53.609  13.684  1.00  0.00     0.033 A 
HETATM   11  N   UNL     1     -43.667 -52.428  13.271  1.00  0.00    -0.303 N 
HETATM   12  N   UNL     1     -42.937 -51.578  12.459  1.00  0.00    -0.285 N 
ATOM     13  HN  UNL     1     -44.607 -52.160  13.563  1.00  0.00     0.186 HD
ATOM     14  HN  UNL     1     -43.353 -50.706  12.129  1.00  0.00     0.188 HD
BRANCH  10  15
HETATM   15  C   UNL     1     -43.971 -54.493  14.624  1.00  0.00    -0.007 C 
HETATM   16  C   UNL     1     -45.074 -55.244  13.848  1.00  0.00     0.021 C 
HETATM   17  C   UNL     1     -43.090 -55.556  15.316  1.00  0.00     0.021 C 
HETATM   18  C   UNL     1     -44.617 -53.625  15.718  1.00  0.00     0.021 C 
ENDBRANCH  10  15
ENDBRANCH   4   7
BRANCH   1  19
HETATM   19  C   UNL     1     -39.508 -47.606  11.677  1.00  0.00     0.162 C 
BRANCH  19  20
HETATM   20  C   UNL     1     -40.474 -46.572  11.093  1.00  0.00     0.076 C 
HETATM   21  C   UNL     1     -40.989 -45.568  12.174  1.00  0.00     0.040 C 
HETATM   22  C   UNL     1     -39.891 -44.584  11.742  1.00  0.00     0.006 C 
HETATM   23  C   UNL     1     -39.798 -45.343  10.409  1.00  0.00     0.040 C 
BRANCH  20  24
HETATM   24  O   UNL     1     -41.497 -47.201  10.268  1.00  0.00    -0.383 OA
HETATM   25  C   UNL     1     -42.855 -46.897  10.567  1.00  0.00     0.202 C 
ENDBRANCH  20  24
ENDBRANCH  19  20
ENDBRANCH   1  19
TORSDOF 5
ENDMDL
MODEL 4
REMARK VINA RESULT:      -6.0      3.046      8.202
REMARK  5 active torsions:
REMARK  status: ('A' for Active; 'I' for Inactive)
REMARK    1  A    between atoms: O_2  and  C_3 
REMARK    2  A    between atoms: C_3  and  C_4 
REMARK    3  A    between atoms: C_4  and  N_5 
REMARK       I    between atoms: N_5  and  C_6 
REMARK       I    between atoms: C_6  and  N_8 
REMARK    4  A    between atoms: N_8  and  C_9 
REMARK    5  A    between atoms: C_12  and  C_17 
ROOT
HETATM    1  N   UNL     1     -40.469 -46.075  10.203  1.00  0.00    -0.340 N 
HETATM    2  C   UNL     1     -40.512 -47.176  11.023  1.00  0.00     0.321 C 
HETATM    3  O   UNL     1     -39.861 -47.216  12.065  1.00  0.00    -0.247 OA
HETATM    4  N   UNL     1     -41.338 -48.175  10.579  1.00  0.00    -0.294 N 
HETATM    5  H   UNL     1     -41.090 -45.992   9.410  1.00  0.00     0.164 HD
HETATM    6  H   UNL     1     -42.164 -47.890  10.076  1.00  0.00     0.172 HD
ENDROOT
BRANCH   4   7
HETATM    7  C   UNL     1     -41.516 -49.358  11.322  1.00  0.00     0.123 A 
HETATM    8  C   UNL     1     -42.460 -49.464  12.327  1.00  0.00     0.052 A 
HETATM    9  C   UNL     1     -42.658 -50.693  12.949  1.00  0.00     0.031 A 
HETATM   10  C   UNL     1     -41.916 -51.795  12.543  1.00  0.00     0.033 A 
HETATM   11  N   UNL     1     -40.950 -51.638  11.608  1.00  0.00    -0.303 N 
HETATM   12  N   UNL     1     -40.734 -50.409  11.010  1.00  0.00    -0.285 N 
ATOM     13  HN  UNL     1     -40.375 -52.436  11.341  1.00  0.00     0.186 HD
ATOM     14  HN  UNL     1     -39.980 -50.299  10.331  1.00  0.00     0.188 HD
BRANCH  10  15
HETATM   15  C   UNL     1     -42.157 -53.182  13.140  1.00  0.00    -0.007 C 
HETATM   16  C   UNL     1     -42.222 -53.113  14.681  1.00  0.00     0.021 C 
HETATM   17  C   UNL     1     -43.491 -53.787  12.650  1.00  0.00     0.021 C 
HETATM   18  C   UNL     1     -41.022 -54.131  12.718  1.00  0.00     0.021 C 
ENDBRANCH  10  15
ENDBRANCH   4   7
BRANCH   1  19
HETATM   19  C   UNL     1     -39.799 -44.886  10.703  1.00  0.00     0.162 C 
BRANCH  19  20
HETATM   20  C   UNL     1     -40.812 -43.918  11.318  1.00  0.00     0.076 C 
HETATM   21  C   UNL     1     -40.939 -44.100  12.864  1.00  0.00     0.040 C 
HETATM   22  C   UNL     1     -39.933 -42.953  13.054  1.00  0.00     0.006 C 
HETATM   23  C   UNL     1     -40.262 -42.490  11.626  1.00  0.00     0.040 C 
BRANCH  20  24
HETATM   24  O   UNL     1     -42.063 -43.906  10.572  1.00  0.00    -0.383 OA
HETATM   25  C   UNL     1     -43.060 -42.979  10.984  1.00  0.00     0.202 C 
ENDBRANCH  20  24
ENDBRANCH  19  20
ENDBRANCH   1  19
TORSDOF 5
ENDMDL
MODEL 5
REMARK VINA RESULT:      -5.8      1.885      2.405
REMARK  5 active torsions:
REMARK  status: ('A' for Active; 'I' for Inactive)
REMARK    1  A    between atoms: O_2  and  C_3 
REMARK    2  A    between atoms: C_3  and  C_4 
REMARK    3  A    between atoms: C_4  and  N_5 
REMARK       I    between atoms: N_5  and  C_6 
REMARK       I    between atoms: C_6  and  N_8 
REMARK    4  A    between atoms: N_8  and  C_9 
REMARK    5  A    between atoms: C_12  and  C_17 
ROOT
HETATM    1  N   UNL     1     -43.200 -51.500  12.911  1.00  0.00    -0.340 N 
HETATM    2  C   UNL     1     -42.571 -50.281  12.850  1.00  0.00     0.321 C 
HETATM    3  O   UNL     1     -41.871 -49.883  13.779  1.00  0.00    -0.247 OA
HETATM    4  N   UNL     1     -42.786 -49.596  11.683  1.00  0.00    -0.294 N 
HETATM    5  H   UNL     1     -43.679 -51.880  12.105  1.00  0.00     0.164 HD
HETATM    6  H   UNL     1     -42.896 -50.148  10.847  1.00  0.00     0.172 HD
ENDROOT
BRANCH   4   7
HETATM    7  C   UNL     1     -42.186 -48.344  11.452  1.00  0.00     0.123 A 
HETATM    8  C   UNL     1     -42.862 -47.154  11.650  1.00  0.00     0.052 A 
HETATM    9  C   UNL     1     -42.180 -45.949  11.508  1.00  0.00     0.031 A 
HETATM   10  C   UNL     1     -40.829 -45.961  11.181  1.00  0.00     0.033 A 
HETATM   11  N   UNL     1     -40.218 -47.141  10.923  1.00  0.00    -0.303 N 
HETATM   12  N   UNL     1     -40.905 -48.337  11.037  1.00  0.00    -0.285 N 
ATOM     13  HN  UNL     1     -39.238 -47.148  10.640  1.00  0.00     0.186 HD
ATOM     14  HN  UNL     1     -40.440 -49.215  10.806  1.00  0.00     0.188 HD
BRANCH  10  15
HETATM   15  C   UNL     1     -40.019 -44.667  11.095  1.00  0.00    -0.007 C 
HETATM   16  C   UNL     1     -40.948 -43.434  11.125  1.00  0.00     0.021 C 
HETATM   17  C   UNL     1     -39.037 -44.532  12.279  1.00  0.00     0.021 C 
HETATM   18  C   UNL     1     -39.198 -44.656   9.793  1.00  0.00     0.021 C 
ENDBRANCH  10  15
ENDBRANCH   4   7
BRANCH   1  19
HETATM   19  C   UNL     1     -42.850 -52.388  14.007  1.00  0.00     0.162 C 
BRANCH  19  20
HETATM   20  C   UNL     1     -42.879 -53.848  13.548  1.00  0.00     0.076 C 
HETATM   21  C   UNL     1     -43.363 -54.812  14.677  1.00  0.00     0.040 C 
HETATM   22  C   UNL     1     -44.782 -54.743  14.090  1.00  0.00     0.006 C 
HETATM   23  C   UNL     1     -44.160 -54.272  12.765  1.00  0.00     0.040 C 
BRANCH  20  24
HETATM   24  O   UNL     1     -41.642 -54.221  12.877  1.00  0.00    -0.383 OA
HETATM   25  C   UNL     1     -40.435 -53.643  13.362  1.00  0.00     0.202 C 
ENDBRANCH  20  24
ENDBRANCH  19  20
ENDBRANCH   1  19
TORSDOF 5
ENDMDL
MODEL 6
REMARK VINA RESULT:      -5.8      3.509      8.076
REMARK  5 active torsions:
REMARK  status: ('A' for Active; 'I' for Inactive)
REMARK    1  A    between atoms: O_2  and  C_3 
REMARK    2  A    between atoms: C_3  and  C_4 
REMARK    3  A    between atoms: C_4  and  N_5 
REMARK       I    between atoms: N_5  and  C_6 
REMARK       I    between atoms: C_6  and  N_8 
REMARK    4  A    between atoms: N_8  and  C_9 
REMARK    5  A    between atoms: C_12  and  C_17 
ROOT
HETATM    1  N   UNL     1     -39.914 -46.466  10.614  1.00  0.00    -0.340 N 
HETATM    2  C   UNL     1     -40.225 -47.610  11.306  1.00  0.00     0.321 C 
HETATM    3  O   UNL     1     -41.261 -47.691  11.965  1.00  0.00    -0.247 OA
HETATM    4  N   UNL     1     -39.304 -48.615  11.174  1.00  0.00    -0.294 N 
HETATM    5  H   UNL     1     -39.126 -46.439   9.981  1.00  0.00     0.164 HD
HETATM    6  H   UNL     1     -38.824 -48.677  10.290  1.00  0.00     0.172 HD
ENDROOT
BRANCH   4   7
HETATM    7  C   UNL     1     -39.491 -49.863  11.798  1.00  0.00     0.123 A 
HETATM    8  C   UNL     1     -38.738 -50.266  12.885  1.00  0.00     0.052 A 
HETATM    9  C   UNL     1     -39.045 -51.465  13.522  1.00  0.00     0.031 A 
HETATM   10  C   UNL     1     -40.110 -52.231  13.065  1.00  0.00     0.033 A 
HETATM   11  N   UNL     1     -40.778 -51.843  11.953  1.00  0.00    -0.303 N 
HETATM   12  N   UNL     1     -40.454 -50.665  11.303  1.00  0.00    -0.285 N 
ATOM     13  HN  UNL     1     -41.531 -52.427  11.590  1.00  0.00     0.186 HD
ATOM     14  HN  UNL     1     -40.944 -50.404  10.448  1.00  0.00     0.188 HD
BRANCH  10  15
HETATM   15  C   UNL     1     -40.536 -53.512  13.782  1.00  0.00    -0.007 C 
HETATM   16  C   UNL     1     -41.017 -53.204  15.216  1.00  0.00     0.021 C 
HETATM   17  C   UNL     1     -41.699 -54.213  13.048  1.00  0.00     0.021 C 
HETATM   18  C   UNL     1     -39.351 -54.492  13.839  1.00  0.00     0.021 C 
ENDBRANCH  10  15
ENDBRANCH   4   7
BRANCH   1  19
HETATM   19  C   UNL     1     -40.935 -45.437  10.515  1.00  0.00     0.162 C 
BRANCH  19  20
HETATM   20  C   UNL     1     -40.723 -44.363  11.585  1.00  0.00     0.076 C 
HETATM   21  C   UNL     1     -41.141 -42.943  11.087  1.00  0.00     0.040 C 
HETATM   22  C   UNL     1     -42.510 -43.142  11.756  1.00  0.00     0.006 C 
HETATM   23  C   UNL     1     -41.871 -44.232  12.632  1.00  0.00     0.040 C 
BRANCH  20  24
HETATM   24  O   UNL     1     -39.400 -44.464  12.188  1.00  0.00    -0.383 OA
HETATM   25  C   UNL     1     -39.333 -44.512  13.608  1.00  0.00     0.202 C 
ENDBRANCH  20  24
ENDBRANCH  19  20
ENDBRANCH   1  19
TORSDOF 5
ENDMDL
MODEL 7
REMARK VINA RESULT:      -5.6      2.090      2.826
REMARK  5 active torsions:
REMARK  status: ('A' for Active; 'I' for Inactive)
REMARK    1  A    between atoms: O_2  and  C_3 
REMARK    2  A    between atoms: C_3  and  C_4 
REMARK    3  A    between atoms: C_4  and  N_5 
REMARK       I    between atoms: N_5  and  C_6 
REMARK       I    between atoms: C_6  and  N_8 
REMARK    4  A    between atoms: N_8  and  C_9 
REMARK    5  A    between atoms: C_12  and  C_17 
ROOT
HETATM    1  N   UNL     1     -41.136 -52.711  12.278  1.00  0.00    -0.340 N 
HETATM    2  C   UNL     1     -41.028 -51.343  12.330  1.00  0.00     0.321 C 
HETATM    3  O   UNL     1     -41.037 -50.747  13.406  1.00  0.00    -0.247 OA
HETATM    4  N   UNL     1     -40.897 -50.743  11.106  1.00  0.00    -0.294 N 
HETATM    5  H   UNL     1     -41.011 -53.211  11.408  1.00  0.00     0.164 HD
HETATM    6  H   UNL     1     -40.399 -51.261  10.398  1.00  0.00     0.172 HD
ENDROOT
BRANCH   4   7
HETATM    7  C   UNL     1     -40.746 -49.349  10.990  1.00  0.00     0.123 A 
HETATM    8  C   UNL     1     -41.783 -48.524  10.595  1.00  0.00     0.052 A 
HETATM    9  C   UNL     1     -41.599 -47.144  10.604  1.00  0.00     0.031 A 
HETATM   10  C   UNL     1     -40.383 -46.617  11.021  1.00  0.00     0.033 A 
HETATM   11  N   UNL     1     -39.366 -47.456  11.329  1.00  0.00    -0.303 N 
HETATM   12  N   UNL     1     -39.541 -48.828  11.293  1.00  0.00    -0.285 N 
ATOM     13  HN  UNL     1     -38.459 -47.071  11.592  1.00  0.00     0.186 HD
ATOM     14  HN  UNL     1     -38.755 -49.447  11.495  1.00  0.00     0.188 HD
BRANCH  10  15
HETATM   15  C   UNL     1     -40.162 -45.108  11.126  1.00  0.00    -0.007 C 
HETATM   16  C   UNL     1     -39.333 -44.761  12.382  1.00  0.00     0.021 C 
HETATM   17  C   UNL     1     -39.396 -44.559   9.903  1.00  0.00     0.021 C 
HETATM   18  C   UNL     1     -41.521 -44.390  11.197  1.00  0.00     0.021 C 
ENDBRANCH  10  15
ENDBRANCH   4   7
BRANCH   1  19
HETATM   19  C   UNL     1     -41.053 -53.444  13.530  1.00  0.00     0.162 C 
BRANCH  19  20
HETATM   20  C   UNL     1     -42.445 -53.630  14.138  1.00  0.00     0.076 C 
HETATM   21  C   UNL     1     -42.586 -54.994  14.886  1.00  0.00     0.040 C 
HETATM   22  C   UNL     1     -42.258 -54.274  16.203  1.00  0.00     0.006 C 
HETATM   23  C   UNL     1     -42.660 -52.953  15.527  1.00  0.00     0.040 C 
BRANCH  20  24
HETATM   24  O   UNL     1     -43.494 -53.319  13.176  1.00  0.00    -0.383 OA
HETATM   25  C   UNL     1     -44.578 -54.234  13.072  1.00  0.00     0.202 C 
ENDBRANCH  20  24
ENDBRANCH  19  20
ENDBRANCH   1  19
TORSDOF 5
ENDMDL
MODEL 8
REMARK VINA RESULT:      -5.6      1.247      2.245
REMARK  5 active torsions:
REMARK  status: ('A' for Active; 'I' for Inactive)
REMARK    1  A    between atoms: O_2  and  C_3 
REMARK    2  A    between atoms: C_3  and  C_4 
REMARK    3  A    between atoms: C_4  and  N_5 
REMARK       I    between atoms: N_5  and  C_6 
REMARK       I    between atoms: C_6  and  N_8 
REMARK    4  A    between atoms: N_8  and  C_9 
REMARK    5  A    between atoms: C_12  and  C_17 
ROOT
HETATM    1  N   UNL     1     -42.881 -52.083  12.880  1.00  0.00    -0.340 N 
HETATM    2  C   UNL     1     -42.565 -50.747  12.828  1.00  0.00     0.321 C 
HETATM    3  O   UNL     1     -42.679 -50.029  13.820  1.00  0.00    -0.247 OA
HETATM    4  N   UNL     1     -42.112 -50.325  11.606  1.00  0.00    -0.294 N 
HETATM    5  H   UNL     1     -42.677 -52.697  12.103  1.00  0.00     0.164 HD
HETATM    6  H   UNL     1     -41.580 -50.989  11.065  1.00  0.00     0.172 HD
ENDROOT
BRANCH   4   7
HETATM    7  C   UNL     1     -41.718 -48.990  11.396  1.00  0.00     0.123 A 
HETATM    8  C   UNL     1     -42.622 -47.943  11.404  1.00  0.00     0.052 A 
HETATM    9  C   UNL     1     -42.154 -46.636  11.298  1.00  0.00     0.031 A 
HETATM   10  C   UNL     1     -40.788 -46.403  11.198  1.00  0.00     0.033 A 
HETATM   11  N   UNL     1     -39.939 -47.454  11.118  1.00  0.00    -0.303 N 
HETATM   12  N   UNL     1     -40.407 -48.754  11.195  1.00  0.00    -0.285 N 
ATOM     13  HN  UNL     1     -38.940 -47.285  11.000  1.00  0.00     0.186 HD
ATOM     14  HN  UNL     1     -39.758 -49.535  11.100  1.00  0.00     0.188 HD
BRANCH  10  15
HETATM   15  C   UNL     1     -40.223 -44.983  11.162  1.00  0.00    -0.007 C 
HETATM   16  C   UNL     1     -39.370 -44.764   9.893  1.00  0.00     0.021 C 
HETATM   17  C   UNL     1     -41.346 -43.924  11.148  1.00  0.00     0.021 C 
HETATM   18  C   UNL     1     -39.355 -44.740  12.409  1.00  0.00     0.021 C 
ENDBRANCH  10  15
ENDBRANCH   4   7
BRANCH   1  19
HETATM   19  C   UNL     1     -43.154 -52.662  14.185  1.00  0.00     0.162 C 
BRANCH  19  20
HETATM   20  C   UNL     1     -44.652 -52.926  14.353  1.00  0.00     0.076 C 
HETATM   21  C   UNL     1     -45.279 -53.598  13.090  1.00  0.00     0.040 C 
HETATM   22  C   UNL     1     -45.101 -54.967  13.765  1.00  0.00     0.006 C 
HETATM   23  C   UNL     1     -45.013 -54.238  15.116  1.00  0.00     0.040 C 
BRANCH  20  24
HETATM   24  O   UNL     1     -45.347 -51.752  14.863  1.00  0.00    -0.383 OA
HETATM   25  C   UNL     1     -46.576 -51.398  14.238  1.00  0.00     0.202 C 
ENDBRANCH  20  24
ENDBRANCH  19  20
ENDBRANCH   1  19
TORSDOF 5
ENDMDL
MODEL 9
REMARK VINA RESULT:      -5.4      3.360      7.769
REMARK  5 active torsions:
REMARK  status: ('A' for Active; 'I' for Inactive)
REMARK    1  A    between atoms: O_2  and  C_3 
REMARK    2  A    between atoms: C_3  and  C_4 
REMARK    3  A    between atoms: C_4  and  N_5 
REMARK       I    between atoms: N_5  and  C_6 
REMARK       I    between atoms: C_6  and  N_8 
REMARK    4  A    between atoms: N_8  and  C_9 
REMARK    5  A    between atoms: C_12  and  C_17 
ROOT
HETATM    1  N   UNL     1     -41.163 -49.064  10.586  1.00  0.00    -0.340 N 
HETATM    2  C   UNL     1     -41.058 -49.883  11.683  1.00  0.00     0.321 C 
HETATM    3  O   UNL     1     -40.612 -49.461  12.748  1.00  0.00    -0.247 OA
HETATM    4  N   UNL     1     -41.502 -51.163  11.474  1.00  0.00    -0.294 N 
HETATM    5  H   UNL     1     -41.636 -49.376   9.747  1.00  0.00     0.164 HD
HETATM    6  H   UNL     1     -42.272 -51.276  10.833  1.00  0.00     0.172 HD
ENDROOT
BRANCH   4   7
HETATM    7  C   UNL     1     -41.489 -52.117  12.509  1.00  0.00     0.123 A 
HETATM    8  C   UNL     1     -40.829 -53.326  12.389  1.00  0.00     0.052 A 
HETATM    9  C   UNL     1     -40.764 -54.179  13.488  1.00  0.00     0.031 A 
HETATM   10  C   UNL     1     -41.352 -53.798  14.688  1.00  0.00     0.033 A 
HETATM   11  N   UNL     1     -42.053 -52.642  14.746  1.00  0.00    -0.303 N 
HETATM   12  N   UNL     1     -42.141 -51.807  13.646  1.00  0.00    -0.285 N 
ATOM     13  HN  UNL     1     -42.522 -52.382  15.614  1.00  0.00     0.186 HD
ATOM     14  HN  UNL     1     -42.701 -50.956  13.696  1.00  0.00     0.188 HD
BRANCH  10  15
HETATM   15  C   UNL     1     -41.236 -54.664  15.942  1.00  0.00    -0.007 C 
HETATM   16  C   UNL     1     -41.401 -53.808  17.217  1.00  0.00     0.021 C 
HETATM   17  C   UNL     1     -42.324 -55.759  15.980  1.00  0.00     0.021 C 
HETATM   18  C   UNL     1     -39.863 -55.358  15.967  1.00  0.00     0.021 C 
ENDBRANCH  10  15
ENDBRANCH   4   7
BRANCH   1  19
HETATM   19  C   UNL     1     -40.928 -47.644  10.778  1.00  0.00     0.162 C 
BRANCH  19  20
HETATM   20  C   UNL     1     -42.236 -46.859  10.643  1.00  0.00     0.076 C 
HETATM   21  C   UNL     1     -42.972 -46.699  12.011  1.00  0.00     0.040 C 
HETATM   22  C   UNL     1     -42.319 -45.317  12.169  1.00  0.00     0.006 C 
HETATM   23  C   UNL     1     -42.082 -45.306  10.650  1.00  0.00     0.040 C 
BRANCH  20  24
HETATM   24  O   UNL     1     -43.044 -47.354   9.536  1.00  0.00    -0.383 OA
HETATM   25  C   UNL     1     -43.757 -46.392   8.768  1.00  0.00     0.202 C 
ENDBRANCH  20  24
ENDBRANCH  19  20
ENDBRANCH   1  19
TORSDOF 5
ENDMDL
