MODEL 1
REMARK VINA RESULT:      -6.0      0.000      0.000
REMARK  4 active torsions:
REMARK  status: ('A' for Active; 'I' for Inactive)
REMARK    1  A    between atoms: C_2  and  C_3 
REMARK    2  A    between atoms: C_2  and  N_10 
REMARK    3  A    between atoms: C_3  and  N_4 
REMARK       I    between atoms: N_10  and  C_11 
REMARK    4  A    between atoms: C_11  and  C_13 
ROOT
HETATM    1  N   UNL     1     -42.728 -49.031  11.237  1.00  0.00    -0.353 N 
HETATM    2  C   UNL     1     -42.232 -48.037  10.423  1.00  0.00     0.240 C 
HETATM    3  O   UNL     1     -41.137 -47.512  10.616  1.00  0.00    -0.271 OA
HETATM    4  H   UNL     1     -43.611 -49.457  10.969  1.00  0.00     0.163 HD
ENDROOT
BRANCH   1   5
HETATM    5  C   UNL     1     -41.974 -49.582  12.374  1.00  0.00     0.100 C 
HETATM    6  C   UNL     1     -42.953 -49.851  13.516  1.00  0.00     0.034 C 
BRANCH   5   7
HETATM    7  C   UNL     1     -41.156 -50.823  11.965  1.00  0.00     0.172 C 
BRANCH   7   8
HETATM    8  N   UNL     1     -39.718 -50.622  11.986  1.00  0.00    -0.302 N 
HETATM    9  C   UNL     1     -38.833 -51.068  12.927  1.00  0.00     0.111 A 
HETATM   10  C   UNL     1     -37.597 -50.596  12.546  1.00  0.00     0.037 A 
HETATM   11  C   UNL     1     -37.844 -49.862  11.372  1.00  0.00     0.108 A 
HETATM   12  N   UNL     1     -39.136 -49.864  11.033  1.00  0.00    -0.310 N 
ATOM     13  HN  UNL     1     -39.580 -49.400  10.240  1.00  0.00     0.186 HD
ENDBRANCH   7   8
ENDBRANCH   5   7
ENDBRANCH   1   5
BRANCH   2  14
HETATM   14  C   UNL     1     -43.219 -47.499   9.371  1.00  0.00     0.177 C 
HETATM   15  C   UNL     1     -43.361 -45.984   9.442  1.00  0.00     0.044 C 
HETATM   16  C   UNL     1     -44.758 -45.705   8.896  1.00  0.00     0.105 C 
HETATM   17  C   UNL     1     -45.480 -47.017   9.080  1.00  0.00     0.218 C 
HETATM   18  O   UNL     1     -46.646 -47.242   8.821  1.00  0.00    -0.274 OA
HETATM   19  N   UNL     1     -44.579 -47.955   9.543  1.00  0.00    -0.348 N 
HETATM   20  H   UNL     1     -44.860 -48.928   9.489  1.00  0.00     0.163 HD
ENDBRANCH   2  14
TORSDOF 4
ENDMDL
MODEL 2
REMARK VINA RESULT:      -5.5      3.149      5.030
REMARK  4 active torsions:
REMARK  status: ('A' for Active; 'I' for Inactive)
REMARK    1  A    between atoms: C_2  and  C_3 
REMARK    2  A    between atoms: C_2  and  N_10 
REMARK    3  A    between atoms: C_3  and  N_4 
REMARK       I    between atoms: N_10  and  C_11 
REMARK    4  A    between atoms: C_11  and  C_13 
ROOT
HETATM    1  N   UNL     1     -42.127 -49.850  11.795  1.00  0.00    -0.353 N 
HETATM    2  C   UNL     1     -41.804 -51.162  12.057  1.00  0.00     0.240 C 
HETATM    3  O   UNL     1     -40.837 -51.718  11.540  1.00  0.00    -0.271 OA
HETATM    4  H   UNL     1     -42.902 -49.446  12.314  1.00  0.00     0.163 HD
ENDROOT
BRANCH   1   5
HETATM    5  C   UNL     1     -41.319 -48.989  10.915  1.00  0.00     0.100 C 
HETATM    6  C   UNL     1     -42.257 -48.017  10.200  1.00  0.00     0.034 C 
BRANCH   5   7
HETATM    7  C   UNL     1     -40.187 -48.287  11.691  1.00  0.00     0.172 C 
BRANCH   7   8
HETATM    8  N   UNL     1     -39.049 -49.140  11.984  1.00  0.00    -0.302 N 
HETATM    9  C   UNL     1     -38.458 -49.343  13.200  1.00  0.00     0.111 A 
HETATM   10  C   UNL     1     -37.397 -50.191  12.974  1.00  0.00     0.037 A 
HETATM   11  C   UNL     1     -37.422 -50.429  11.588  1.00  0.00     0.108 A 
HETATM   12  N   UNL     1     -38.418 -49.780  10.978  1.00  0.00    -0.310 N 
ATOM     13  HN  UNL     1     -38.649 -49.772   9.984  1.00  0.00     0.186 HD
ENDBRANCH   7   8
ENDBRANCH   5   7
ENDBRANCH   1   5
BRANCH   2  14
HETATM   14  C   UNL     1     -42.840 -51.936  12.892  1.00  0.00     0.177 C 
HETATM   15  C   UNL     1     -42.180 -52.894  13.875  1.00  0.00     0.044 C 
HETATM   16  C   UNL     1     -43.216 -53.995  14.090  1.00  0.00     0.105 C 
HETATM   17  C   UNL     1     -44.092 -53.902  12.865  1.00  0.00     0.218 C 
HETATM   18  O   UNL     1     -45.029 -54.625  12.590  1.00  0.00    -0.274 OA
HETATM   19  N   UNL     1     -43.693 -52.810  12.120  1.00  0.00    -0.348 N 
HETATM   20  H   UNL     1     -44.331 -52.486  11.401  1.00  0.00     0.163 HD
ENDBRANCH   2  14
TORSDOF 4
ENDMDL
MODEL 3
REMARK VINA RESULT:      -5.5      2.651      3.709
REMARK  4 active torsions:
REMARK  status: ('A' for Active; 'I' for Inactive)
REMARK    1  A    between atoms: C_2  and  C_3 
REMARK    2  A    between atoms: C_2  and  N_10 
REMARK    3  A    between atoms: C_3  and  N_4 
REMARK       I    between atoms: N_10  and  C_11 
REMARK    4  A    between atoms: C_11  and  C_13 
ROOT
HETATM    1  N   UNL     1     -41.681 -50.021  11.624  1.00  0.00    -0.353 N 
HETATM    2  C   UNL     1     -41.089 -48.812  11.333  1.00  0.00     0.240 C 
HETATM    3  O   UNL     1     -40.007 -48.476  11.812  1.00  0.00    -0.271 OA
HETATM    4  H   UNL     1     -42.542 -50.249  11.134  1.00  0.00     0.163 HD
ENDROOT
BRANCH   1   5
HETATM    5  C   UNL     1     -41.051 -51.031  12.490  1.00  0.00     0.100 C 
HETATM    6  C   UNL     1     -41.557 -50.823  13.916  1.00  0.00     0.034 C 
BRANCH   5   7
HETATM    7  C   UNL     1     -41.285 -52.459  11.959  1.00  0.00     0.172 C 
BRANCH   7   8
HETATM    8  N   UNL     1     -42.429 -53.133  12.547  1.00  0.00    -0.302 N 
HETATM    9  C   UNL     1     -42.423 -54.017  13.589  1.00  0.00     0.111 A 
HETATM   10  C   UNL     1     -43.729 -54.420  13.757  1.00  0.00     0.037 A 
HETATM   11  C   UNL     1     -44.443 -53.736  12.757  1.00  0.00     0.108 A 
HETATM   12  N   UNL     1     -43.654 -52.960  12.008  1.00  0.00    -0.310 N 
ATOM     13  HN  UNL     1     -43.916 -52.375  11.215  1.00  0.00     0.186 HD
ENDBRANCH   7   8
ENDBRANCH   5   7
ENDBRANCH   1   5
BRANCH   2  14
HETATM   14  C   UNL     1     -41.958 -47.836  10.520  1.00  0.00     0.177 C 
HETATM   15  C   UNL     1     -43.391 -47.785  11.034  1.00  0.00     0.044 C 
HETATM   16  C   UNL     1     -44.219 -47.379   9.817  1.00  0.00     0.105 C 
HETATM   17  C   UNL     1     -43.344 -47.764   8.649  1.00  0.00     0.218 C 
HETATM   18  O   UNL     1     -43.626 -47.661   7.471  1.00  0.00    -0.274 OA
HETATM   19  N   UNL     1     -42.129 -48.203   9.134  1.00  0.00    -0.348 N 
HETATM   20  H   UNL     1     -41.366 -48.271   8.469  1.00  0.00     0.163 HD
ENDBRANCH   2  14
TORSDOF 4
ENDMDL
MODEL 4
REMARK VINA RESULT:      -5.5      2.812      5.879
REMARK  4 active torsions:
REMARK  status: ('A' for Active; 'I' for Inactive)
REMARK    1  A    between atoms: C_2  and  C_3 
REMARK    2  A    between atoms: C_2  and  N_10 
REMARK    3  A    between atoms: C_3  and  N_4 
REMARK       I    between atoms: N_10  and  C_11 
REMARK    4  A    between atoms: C_11  and  C_13 
ROOT
HETATM    1  N   UNL     1     -42.644 -48.503  10.512  1.00  0.00    -0.353 N 
HETATM    2  C   UNL     1     -41.543 -48.900  11.236  1.00  0.00     0.240 C 
HETATM    3  O   UNL     1     -40.448 -48.351  11.126  1.00  0.00    -0.271 OA
HETATM    4  H   UNL     1     -43.527 -48.966  10.711  1.00  0.00     0.163 HD
ENDROOT
BRANCH   1   5
HETATM    5  C   UNL     1     -42.619 -47.361   9.583  1.00  0.00     0.100 C 
HETATM    6  C   UNL     1     -43.602 -47.644   8.447  1.00  0.00     0.034 C 
BRANCH   5   7
HETATM    7  C   UNL     1     -42.893 -46.030  10.312  1.00  0.00     0.172 C 
BRANCH   7   8
HETATM    8  N   UNL     1     -41.704 -45.236  10.567  1.00  0.00    -0.302 N 
HETATM    9  C   UNL     1     -41.627 -44.059  11.257  1.00  0.00     0.111 A 
HETATM   10  C   UNL     1     -40.310 -43.664  11.196  1.00  0.00     0.037 A 
HETATM   11  C   UNL     1     -39.675 -44.661  10.434  1.00  0.00     0.108 A 
HETATM   12  N   UNL     1     -40.523 -45.615  10.037  1.00  0.00    -0.310 N 
ATOM     13  HN  UNL     1     -40.323 -46.437   9.466  1.00  0.00     0.186 HD
ENDBRANCH   7   8
ENDBRANCH   5   7
ENDBRANCH   1   5
BRANCH   2  14
HETATM   14  C   UNL     1     -41.727 -50.193  12.050  1.00  0.00     0.177 C 
HETATM   15  C   UNL     1     -41.081 -50.099  13.426  1.00  0.00     0.044 C 
HETATM   16  C   UNL     1     -40.749 -51.544  13.792  1.00  0.00     0.105 C 
HETATM   17  C   UNL     1     -40.702 -52.246  12.457  1.00  0.00     0.218 C 
HETATM   18  O   UNL     1     -40.425 -53.414  12.265  1.00  0.00    -0.274 OA
HETATM   19  N   UNL     1     -41.088 -51.355  11.476  1.00  0.00    -0.348 N 
HETATM   20  H   UNL     1     -41.330 -51.743  10.571  1.00  0.00     0.163 HD
ENDBRANCH   2  14
TORSDOF 4
ENDMDL
MODEL 5
REMARK VINA RESULT:      -5.2      2.082      3.304
REMARK  4 active torsions:
REMARK  status: ('A' for Active; 'I' for Inactive)
REMARK    1  A    between atoms: C_2  and  C_3 
REMARK    2  A    between atoms: C_2  and  N_10 
REMARK    3  A    between atoms: C_3  and  N_4 
REMARK       I    between atoms: N_10  and  C_11 
REMARK    4  A    between atoms: C_11  and  C_13 
ROOT
HETATM    1  N   UNL     1     -39.732 -49.305  11.382  1.00  0.00    -0.353 N 
HETATM    2  C   UNL     1     -41.107 -49.367  11.411  1.00  0.00     0.240 C 
HETATM    3  O   UNL     1     -41.714 -50.380  11.754  1.00  0.00    -0.271 OA
HETATM    4  H   UNL     1     -39.309 -48.410  11.151  1.00  0.00     0.163 HD
ENDROOT
BRANCH   1   5
HETATM    5  C   UNL     1     -38.873 -50.424  11.804  1.00  0.00     0.100 C 
HETATM    6  C   UNL     1     -37.425 -50.071  11.468  1.00  0.00     0.034 C 
BRANCH   5   7
HETATM    7  C   UNL     1     -39.088 -50.775  13.290  1.00  0.00     0.172 C 
BRANCH   7   8
HETATM    8  N   UNL     1     -39.479 -52.153  13.525  1.00  0.00    -0.302 N 
HETATM    9  C   UNL     1     -38.898 -53.044  14.384  1.00  0.00     0.111 A 
HETATM   10  C   UNL     1     -39.583 -54.228  14.229  1.00  0.00     0.037 A 
HETATM   11  C   UNL     1     -40.546 -53.955  13.242  1.00  0.00     0.108 A 
HETATM   12  N   UNL     1     -40.479 -52.696  12.800  1.00  0.00    -0.310 N 
ATOM     13  HN  UNL     1     -41.051 -52.249  12.082  1.00  0.00     0.186 HD
ENDBRANCH   7   8
ENDBRANCH   5   7
ENDBRANCH   1   5
BRANCH   2  14
HETATM   14  C   UNL     1     -41.830 -48.150  10.806  1.00  0.00     0.177 C 
HETATM   15  C   UNL     1     -43.239 -47.987  11.363  1.00  0.00     0.044 C 
HETATM   16  C   UNL     1     -44.004 -47.260  10.260  1.00  0.00     0.105 C 
HETATM   17  C   UNL     1     -43.199 -47.553   9.017  1.00  0.00     0.218 C 
HETATM   18  O   UNL     1     -43.467 -47.206   7.884  1.00  0.00    -0.274 OA
HETATM   19  N   UNL     1     -42.057 -48.239   9.383  1.00  0.00    -0.348 N 
HETATM   20  H   UNL     1     -41.315 -48.296   8.694  1.00  0.00     0.163 HD
ENDBRANCH   2  14
TORSDOF 4
ENDMDL
MODEL 6
REMARK VINA RESULT:      -5.1      3.459      5.729
REMARK  4 active torsions:
REMARK  status: ('A' for Active; 'I' for Inactive)
REMARK    1  A    between atoms: C_2  and  C_3 
REMARK    2  A    between atoms: C_2  and  N_10 
REMARK    3  A    between atoms: C_3  and  N_4 
REMARK       I    between atoms: N_10  and  C_11 
REMARK    4  A    between atoms: C_11  and  C_13 
ROOT
HETATM    1  N   UNL     1     -42.751 -52.377  13.035  1.00  0.00    -0.353 N 
HETATM    2  C   UNL     1     -41.807 -51.830  12.195  1.00  0.00     0.240 C 
HETATM    3  O   UNL     1     -41.030 -52.521  11.539  1.00  0.00    -0.271 OA
HETATM    4  H   UNL     1     -43.398 -51.738  13.490  1.00  0.00     0.163 HD
ENDROOT
BRANCH   1   5
HETATM    5  C   UNL     1     -42.943 -53.829  13.184  1.00  0.00     0.100 C 
HETATM    6  C   UNL     1     -42.289 -54.268  14.493  1.00  0.00     0.034 C 
BRANCH   5   7
HETATM    7  C   UNL     1     -44.430 -54.218  13.082  1.00  0.00     0.172 C 
BRANCH   7   8
HETATM    8  N   UNL     1     -45.348 -53.098  13.189  1.00  0.00    -0.302 N 
HETATM    9  C   UNL     1     -45.879 -52.568  14.331  1.00  0.00     0.111 A 
HETATM   10  C   UNL     1     -46.722 -51.557  13.928  1.00  0.00     0.037 A 
HETATM   11  C   UNL     1     -46.644 -51.567  12.524  1.00  0.00     0.108 A 
HETATM   12  N   UNL     1     -45.818 -52.513  12.067  1.00  0.00    -0.310 N 
ATOM     13  HN  UNL     1     -45.595 -52.739  11.098  1.00  0.00     0.186 HD
ENDBRANCH   7   8
ENDBRANCH   5   7
ENDBRANCH   1   5
BRANCH   2  14
HETATM   14  C   UNL     1     -41.667 -50.299  12.276  1.00  0.00     0.177 C 
HETATM   15  C   UNL     1     -42.921 -49.640  12.836  1.00  0.00     0.044 C 
HETATM   16  C   UNL     1     -42.912 -48.234  12.241  1.00  0.00     0.105 C 
HETATM   17  C   UNL     1     -42.037 -48.372  11.020  1.00  0.00     0.218 C 
HETATM   18  O   UNL     1     -41.785 -47.501  10.209  1.00  0.00    -0.274 OA
HETATM   19  N   UNL     1     -41.508 -49.648  10.997  1.00  0.00    -0.348 N 
HETATM   20  H   UNL     1     -40.725 -49.810  10.373  1.00  0.00     0.163 HD
ENDBRANCH   2  14
TORSDOF 4
ENDMDL
MODEL 7
REMARK VINA RESULT:      -5.1      2.424      3.446
REMARK  4 active torsions:
REMARK  status: ('A' for Active; 'I' for Inactive)
REMARK    1  A    between atoms: C_2  and  C_3 
REMARK    2  A    between atoms: C_2  and  N_10 
REMARK    3  A    between atoms: C_3  and  N_4 
REMARK       I    between atoms: N_10  and  C_11 
REMARK    4  A    between atoms: C_11  and  C_13 
ROOT
HETATM    1  N   UNL     1     -39.421 -48.356  11.397  1.00  0.00    -0.353 N 
HETATM    2  C   UNL     1     -40.711 -48.038  11.034  1.00  0.00     0.240 C 
HETATM    3  O   UNL     1     -41.542 -48.896  10.740  1.00  0.00    -0.271 OA
HETATM    4  H   UNL     1     -38.816 -47.592  11.689  1.00  0.00     0.163 HD
ENDROOT
BRANCH   1   5
HETATM    5  C   UNL     1     -38.941 -49.743  11.511  1.00  0.00     0.100 C 
HETATM    6  C   UNL     1     -37.440 -49.757  11.230  1.00  0.00     0.034 C 
BRANCH   5   7
HETATM    7  C   UNL     1     -39.315 -50.362  12.873  1.00  0.00     0.172 C 
BRANCH   7   8
HETATM    8  N   UNL     1     -40.302 -51.423  12.794  1.00  0.00    -0.302 N 
HETATM    9  C   UNL     1     -40.671 -52.288  13.786  1.00  0.00     0.111 A 
HETATM   10  C   UNL     1     -41.601 -53.137  13.229  1.00  0.00     0.037 A 
HETATM   11  C   UNL     1     -41.712 -52.714  11.893  1.00  0.00     0.108 A 
HETATM   12  N   UNL     1     -40.914 -51.679  11.618  1.00  0.00    -0.310 N 
ATOM     13  HN  UNL     1     -40.795 -51.194  10.728  1.00  0.00     0.186 HD
ENDBRANCH   7   8
ENDBRANCH   5   7
ENDBRANCH   1   5
BRANCH   2  14
HETATM   14  C   UNL     1     -40.985 -46.537  10.840  1.00  0.00     0.177 C 
HETATM   15  C   UNL     1     -41.431 -45.865  12.133  1.00  0.00     0.044 C 
HETATM   16  C   UNL     1     -42.273 -44.677  11.675  1.00  0.00     0.105 C 
HETATM   17  C   UNL     1     -42.698 -45.060  10.279  1.00  0.00     0.218 C 
HETATM   18  O   UNL     1     -43.427 -44.421   9.545  1.00  0.00    -0.274 OA
HETATM   19  N   UNL     1     -42.072 -46.242   9.936  1.00  0.00    -0.348 N 
HETATM   20  H   UNL     1     -42.075 -46.496   8.954  1.00  0.00     0.163 HD
ENDBRANCH   2  14
TORSDOF 4
ENDMDL
MODEL 8
REMARK VINA RESULT:      -5.1      2.165      2.693
REMARK  4 active torsions:
REMARK  status: ('A' for Active; 'I' for Inactive)
REMARK    1  A    between atoms: C_2  and  C_3 
REMARK    2  A    between atoms: C_2  and  N_10 
REMARK    3  A    between atoms: C_3  and  N_4 
REMARK       I    between atoms: N_10  and  C_11 
REMARK    4  A    between atoms: C_11  and  C_13 
ROOT
HETATM    1  N   UNL     1     -42.452 -49.918  11.771  1.00  0.00    -0.353 N 
HETATM    2  C   UNL     1     -41.331 -49.153  11.535  1.00  0.00     0.240 C 
HETATM    3  O   UNL     1     -40.310 -49.256  12.212  1.00  0.00    -0.271 OA
HETATM    4  H   UNL     1     -43.230 -49.819  11.125  1.00  0.00     0.163 HD
ENDROOT
BRANCH   1   5
HETATM    5  C   UNL     1     -42.507 -50.952  12.817  1.00  0.00     0.100 C 
HETATM    6  C   UNL     1     -43.912 -50.953  13.418  1.00  0.00     0.034 C 
BRANCH   5   7
HETATM    7  C   UNL     1     -42.072 -52.329  12.277  1.00  0.00     0.172 C 
BRANCH   7   8
HETATM    8  N   UNL     1     -40.933 -52.906  12.968  1.00  0.00    -0.302 N 
HETATM    9  C   UNL     1     -40.701 -54.229  13.221  1.00  0.00     0.111 A 
HETATM   10  C   UNL     1     -39.526 -54.283  13.936  1.00  0.00     0.037 A 
HETATM   11  C   UNL     1     -39.135 -52.939  14.077  1.00  0.00     0.108 A 
HETATM   12  N   UNL     1     -39.995 -52.096  13.501  1.00  0.00    -0.310 N 
ATOM     13  HN  UNL     1     -39.953 -51.076  13.471  1.00  0.00     0.186 HD
ENDBRANCH   7   8
ENDBRANCH   5   7
ENDBRANCH   1   5
BRANCH   2  14
HETATM   14  C   UNL     1     -41.510 -48.035  10.493  1.00  0.00     0.177 C 
HETATM   15  C   UNL     1     -41.667 -46.667  11.144  1.00  0.00     0.044 C 
HETATM   16  C   UNL     1     -42.474 -45.854  10.135  1.00  0.00     0.105 C 
HETATM   17  C   UNL     1     -43.166 -46.907   9.303  1.00  0.00     0.218 C 
HETATM   18  O   UNL     1     -43.955 -46.711   8.400  1.00  0.00    -0.274 OA
HETATM   19  N   UNL     1     -42.709 -48.149   9.696  1.00  0.00    -0.348 N 
HETATM   20  H   UNL     1     -42.904 -48.928   9.076  1.00  0.00     0.163 HD
ENDBRANCH   2  14
TORSDOF 4
ENDMDL
MODEL 9
REMARK VINA RESULT:      -5.0      3.506      5.724
REMARK  4 active torsions:
REMARK  status: ('A' for Active; 'I' for Inactive)
REMARK    1  A    between atoms: C_2  and  C_3 
REMARK    2  A    between atoms: C_2  and  N_10 
REMARK    3  A    between atoms: C_3  and  N_4 
REMARK       I    between atoms: N_10  and  C_11 
REMARK    4  A    between atoms: C_11  and  C_13 
ROOT
HETATM    1  N   UNL     1     -42.777 -49.401  12.246  1.00  0.00    -0.353 N 
HETATM    2  C   UNL     1     -42.077 -50.583  12.327  1.00  0.00     0.240 C 
HETATM    3  O   UNL     1     -41.023 -50.767  11.720  1.00  0.00    -0.271 OA
HETATM    4  H   UNL     1     -43.603 -49.306  12.830  1.00  0.00     0.163 HD
ENDROOT
BRANCH   1   5
HETATM    5  C   UNL     1     -42.303 -48.243  11.470  1.00  0.00     0.100 C 
HETATM    6  C   UNL     1     -43.502 -47.618  10.758  1.00  0.00     0.034 C 
BRANCH   5   7
HETATM    7  C   UNL     1     -41.529 -47.245  12.353  1.00  0.00     0.172 C 
BRANCH   7   8
HETATM    8  N   UNL     1     -40.879 -46.177  11.617  1.00  0.00    -0.302 N 
HETATM    9  C   UNL     1     -41.026 -44.831  11.806  1.00  0.00     0.111 A 
HETATM   10  C   UNL     1     -40.249 -44.222  10.846  1.00  0.00     0.037 A 
HETATM   11  C   UNL     1     -39.687 -45.284  10.117  1.00  0.00     0.108 A 
HETATM   12  N   UNL     1     -40.077 -46.477  10.573  1.00  0.00    -0.310 N 
ATOM     13  HN  UNL     1     -39.828 -47.400  10.217  1.00  0.00     0.186 HD
ENDBRANCH   7   8
ENDBRANCH   5   7
ENDBRANCH   1   5
BRANCH   2  14
HETATM   14  C   UNL     1     -42.796 -51.720  13.074  1.00  0.00     0.177 C 
HETATM   15  C   UNL     1     -41.840 -52.838  13.469  1.00  0.00     0.044 C 
HETATM   16  C   UNL     1     -42.719 -54.084  13.544  1.00  0.00     0.105 C 
HETATM   17  C   UNL     1     -43.910 -53.730  12.687  1.00  0.00     0.218 C 
HETATM   18  O   UNL     1     -44.851 -54.453  12.424  1.00  0.00    -0.274 OA
HETATM   19  N   UNL     1     -43.791 -52.413  12.289  1.00  0.00    -0.348 N 
HETATM   20  H   UNL     1     -44.621 -51.970  11.910  1.00  0.00     0.163 HD
ENDBRANCH   2  14
TORSDOF 4
ENDMDL
