MODEL 1
REMARK VINA RESULT:      -6.0      0.000      0.000
REMARK  7 active torsions:
REMARK  status: ('A' for Active; 'I' for Inactive)
REMARK    1  A    between atoms: O_2  and  C_3 
REMARK    2  A    between atoms: C_3  and  C_4 
REMARK    3  A    between atoms: C_4  and  N_5 
REMARK    4  A    between atoms: C_7  and  C_12 
REMARK       I    between atoms: C_12  and  N_14 
REMARK    5  A    between atoms: N_14  and  C_15 
REMARK    6  A    between atoms: N_18  and  C_19 
REMARK    7  A    between atoms: C_19  and  C_20 
ROOT
HETATM    1  C   UNL     1     -41.277 -51.930  12.239  1.00  0.00     0.253 C 
HETATM    2  O   UNL     1     -40.138 -52.365  12.091  1.00  0.00    -0.268 OA
HETATM    3  N   UNL     1     -41.662 -50.680  11.812  1.00  0.00    -0.352 N 
HETATM    4  H   UNL     1     -42.614 -50.375  11.943  1.00  0.00     0.163 HD
ENDROOT
BRANCH   1   5
HETATM    5  C   UNL     1     -42.346 -52.782  12.868  1.00  0.00     0.047 A 
HETATM    6  C   UNL     1     -43.657 -52.500  12.767  1.00  0.00     0.111 A 
HETATM    7  N   UNL     1     -44.628 -53.283  13.387  1.00  0.00    -0.322 N 
HETATM    8  C   UNL     1     -44.291 -54.346  14.229  1.00  0.00     0.247 A 
HETATM    9  C   UNL     1     -42.843 -54.662  14.326  1.00  0.00     0.075 A 
HETATM   10  O   UNL     1     -45.086 -55.009  14.890  1.00  0.00    -0.268 OA
HETATM   11  C   UNL     1     -41.944 -53.918  13.673  1.00  0.00     0.024 A 
BRANCH   7  12
HETATM   12  C   UNL     1     -46.051 -52.969  13.203  1.00  0.00     0.158 C 
BRANCH  12  13
HETATM   13  C   UNL     1     -46.412 -51.495  13.436  1.00  0.00     0.187 C 
BRANCH  13  14
HETATM   14  O   UNL     1     -46.391 -51.182  14.829  1.00  0.00    -0.394 OA
HETATM   15  C   UNL     1     -47.170 -52.097  15.588  1.00  0.00     0.201 C 
ENDBRANCH  13  14
ENDBRANCH  12  13
ENDBRANCH   7  12
ENDBRANCH   1   5
BRANCH   3  16
HETATM   16  C   UNL     1     -40.705 -49.733  11.238  1.00  0.00     0.088 C 
HETATM   17  C   UNL     1     -39.696 -49.255  12.289  1.00  0.00     0.055 C 
HETATM   18  C   UNL     1     -40.320 -48.244  13.258  1.00  0.00     0.274 C 
HETATM   19  N   UNL     1     -40.972 -47.097  12.598  1.00  0.00     0.088 N 
HETATM   20  C   UNL     1     -41.977 -47.574  11.640  1.00  0.00     0.274 C 
HETATM   21  C   UNL     1     -41.425 -48.545  10.594  1.00  0.00     0.055 C 
BRANCH  19  22
HETATM   22  C   UNL     1     -39.971 -46.180  12.018  1.00  0.00     0.276 C 
BRANCH  22  23
HETATM   23  C   UNL     1     -40.505 -45.112  11.036  1.00  0.00     0.006 C 
HETATM   24  C   UNL     1     -40.894 -43.811  11.737  1.00  0.00     0.011 C 
HETATM   25  C   UNL     1     -39.443 -44.836   9.966  1.00  0.00     0.011 C 
ENDBRANCH  22  23
ENDBRANCH  19  22
ENDBRANCH   3  16
TORSDOF 7
ENDMDL
MODEL 2
REMARK VINA RESULT:      -5.9      3.354      7.593
REMARK  7 active torsions:
REMARK  status: ('A' for Active; 'I' for Inactive)
REMARK    1  A    between atoms: O_2  and  C_3 
REMARK    2  A    between atoms: C_3  and  C_4 
REMARK    3  A    between atoms: C_4  and  N_5 
REMARK    4  A    between atoms: C_7  and  C_12 
REMARK       I    between atoms: C_12  and  N_14 
REMARK    5  A    between atoms: N_14  and  C_15 
REMARK    6  A    between atoms: N_18  and  C_19 
REMARK    7  A    between atoms: C_19  and  C_20 
ROOT
HETATM    1  C   UNL     1     -40.733 -48.823  11.469  1.00  0.00     0.253 C 
HETATM    2  O   UNL     1     -39.510 -48.722  11.517  1.00  0.00    -0.268 OA
HETATM    3  N   UNL     1     -41.411 -49.931  11.919  1.00  0.00    -0.352 N 
HETATM    4  H   UNL     1     -42.418 -49.958  11.872  1.00  0.00     0.163 HD
ENDROOT
BRANCH   1   5
HETATM    5  C   UNL     1     -41.574 -47.689  10.945  1.00  0.00     0.047 A 
HETATM    6  C   UNL     1     -42.586 -47.872  10.079  1.00  0.00     0.111 A 
HETATM    7  N   UNL     1     -43.329 -46.804   9.580  1.00  0.00    -0.322 N 
HETATM    8  C   UNL     1     -43.003 -45.478   9.874  1.00  0.00     0.247 A 
HETATM    9  C   UNL     1     -41.895 -45.282  10.843  1.00  0.00     0.075 A 
HETATM   10  O   UNL     1     -43.544 -44.488   9.388  1.00  0.00    -0.268 OA
HETATM   11  C   UNL     1     -41.238 -46.336  11.341  1.00  0.00     0.024 A 
BRANCH   7  12
HETATM   12  C   UNL     1     -44.461 -47.057   8.678  1.00  0.00     0.158 C 
BRANCH  12  13
HETATM   13  C   UNL     1     -45.768 -47.436   9.388  1.00  0.00     0.187 C 
BRANCH  13  14
HETATM   14  O   UNL     1     -46.787 -47.753   8.439  1.00  0.00    -0.394 OA
HETATM   15  C   UNL     1     -46.581 -49.030   7.850  1.00  0.00     0.201 C 
ENDBRANCH  13  14
ENDBRANCH  12  13
ENDBRANCH   7  12
ENDBRANCH   1   5
BRANCH   3  16
HETATM   16  C   UNL     1     -40.709 -51.123  12.398  1.00  0.00     0.088 C 
HETATM   17  C   UNL     1     -41.306 -52.401  11.797  1.00  0.00     0.055 C 
HETATM   18  C   UNL     1     -42.646 -52.763  12.448  1.00  0.00     0.274 C 
HETATM   19  N   UNL     1     -42.597 -52.851  13.921  1.00  0.00     0.088 N 
HETATM   20  C   UNL     1     -42.079 -51.596  14.480  1.00  0.00     0.274 C 
HETATM   21  C   UNL     1     -40.712 -51.188  13.927  1.00  0.00     0.055 C 
BRANCH  19  22
HETATM   22  C   UNL     1     -41.864 -54.055  14.357  1.00  0.00     0.276 C 
BRANCH  22  23
HETATM   23  C   UNL     1     -42.678 -55.106  15.146  1.00  0.00     0.006 C 
HETATM   24  C   UNL     1     -42.088 -55.388  16.528  1.00  0.00     0.011 C 
HETATM   25  C   UNL     1     -44.127 -54.625  15.280  1.00  0.00     0.011 C 
ENDBRANCH  22  23
ENDBRANCH  19  22
ENDBRANCH   3  16
TORSDOF 7
ENDMDL
MODEL 3
REMARK VINA RESULT:      -5.6      1.515      2.297
REMARK  7 active torsions:
REMARK  status: ('A' for Active; 'I' for Inactive)
REMARK    1  A    between atoms: O_2  and  C_3 
REMARK    2  A    between atoms: C_3  and  C_4 
REMARK    3  A    between atoms: C_4  and  N_5 
REMARK    4  A    between atoms: C_7  and  C_12 
REMARK       I    between atoms: C_12  and  N_14 
REMARK    5  A    between atoms: N_14  and  C_15 
REMARK    6  A    between atoms: N_18  and  C_19 
REMARK    7  A    between atoms: C_19  and  C_20 
ROOT
HETATM    1  C   UNL     1     -41.229 -52.218  12.267  1.00  0.00     0.253 C 
HETATM    2  O   UNL     1     -40.127 -52.707  12.036  1.00  0.00    -0.268 OA
HETATM    3  N   UNL     1     -41.558 -50.924  11.937  1.00  0.00    -0.352 N 
HETATM    4  H   UNL     1     -42.483 -50.574  12.134  1.00  0.00     0.163 HD
ENDROOT
BRANCH   1   5
HETATM    5  C   UNL     1     -42.318 -53.047  12.895  1.00  0.00     0.047 A 
HETATM    6  C   UNL     1     -42.100 -53.872  13.933  1.00  0.00     0.111 A 
HETATM    7  N   UNL     1     -43.116 -54.657  14.476  1.00  0.00    -0.322 N 
HETATM    8  C   UNL     1     -44.393 -54.703  13.911  1.00  0.00     0.247 A 
HETATM    9  C   UNL     1     -44.633 -53.778  12.774  1.00  0.00     0.075 A 
HETATM   10  O   UNL     1     -45.302 -55.447  14.269  1.00  0.00    -0.268 OA
HETATM   11  C   UNL     1     -43.645 -53.002  12.314  1.00  0.00     0.024 A 
BRANCH   7  12
HETATM   12  C   UNL     1     -42.843 -55.503  15.645  1.00  0.00     0.158 C 
BRANCH  12  13
HETATM   13  C   UNL     1     -43.025 -54.799  16.997  1.00  0.00     0.187 C 
BRANCH  13  14
HETATM   14  O   UNL     1     -44.361 -54.959  17.475  1.00  0.00    -0.394 OA
HETATM   15  C   UNL     1     -45.070 -53.726  17.485  1.00  0.00     0.201 C 
ENDBRANCH  13  14
ENDBRANCH  12  13
ENDBRANCH   7  12
ENDBRANCH   1   5
BRANCH   3  16
HETATM   16  C   UNL     1     -40.573 -49.998  11.375  1.00  0.00     0.088 C 
HETATM   17  C   UNL     1     -39.588 -49.515  12.447  1.00  0.00     0.055 C 
HETATM   18  C   UNL     1     -40.227 -48.481  13.382  1.00  0.00     0.274 C 
HETATM   19  N   UNL     1     -40.846 -47.337  12.685  1.00  0.00     0.088 N 
HETATM   20  C   UNL     1     -41.829 -47.818  11.706  1.00  0.00     0.274 C 
HETATM   21  C   UNL     1     -41.259 -48.812  10.692  1.00  0.00     0.055 C 
BRANCH  19  22
HETATM   22  C   UNL     1     -39.817 -46.442  12.120  1.00  0.00     0.276 C 
BRANCH  22  23
HETATM   23  C   UNL     1     -40.114 -44.926  12.186  1.00  0.00     0.006 C 
HETATM   24  C   UNL     1     -39.068 -44.158  12.996  1.00  0.00     0.011 C 
HETATM   25  C   UNL     1     -40.193 -44.365  10.762  1.00  0.00     0.011 C 
ENDBRANCH  22  23
ENDBRANCH  19  22
ENDBRANCH   3  16
TORSDOF 7
ENDMDL
MODEL 4
REMARK VINA RESULT:      -5.4      1.618      2.140
REMARK  7 active torsions:
REMARK  status: ('A' for Active; 'I' for Inactive)
REMARK    1  A    between atoms: O_2  and  C_3 
REMARK    2  A    between atoms: C_3  and  C_4 
REMARK    3  A    between atoms: C_4  and  N_5 
REMARK    4  A    between atoms: C_7  and  C_12 
REMARK       I    between atoms: C_12  and  N_14 
REMARK    5  A    between atoms: N_14  and  C_15 
REMARK    6  A    between atoms: N_18  and  C_19 
REMARK    7  A    between atoms: C_19  and  C_20 
ROOT
HETATM    1  C   UNL     1     -39.626 -52.196  13.705  1.00  0.00     0.253 C 
HETATM    2  O   UNL     1     -38.470 -52.531  13.461  1.00  0.00    -0.268 OA
HETATM    3  N   UNL     1     -40.086 -50.912  13.530  1.00  0.00    -0.352 N 
HETATM    4  H   UNL     1     -41.049 -50.690  13.730  1.00  0.00     0.163 HD
ENDROOT
BRANCH   1   5
HETATM    5  C   UNL     1     -40.635 -53.210  14.174  1.00  0.00     0.047 A 
HETATM    6  C   UNL     1     -41.852 -53.339  13.618  1.00  0.00     0.111 A 
HETATM    7  N   UNL     1     -42.784 -54.261  14.092  1.00  0.00    -0.322 N 
HETATM    8  C   UNL     1     -42.543 -55.034  15.230  1.00  0.00     0.247 A 
HETATM    9  C   UNL     1     -41.191 -54.899  15.831  1.00  0.00     0.075 A 
HETATM   10  O   UNL     1     -43.354 -55.784  15.764  1.00  0.00    -0.268 OA
HETATM   11  C   UNL     1     -40.305 -54.040  15.316  1.00  0.00     0.024 A 
BRANCH   7  12
HETATM   12  C   UNL     1     -44.082 -54.403  13.418  1.00  0.00     0.158 C 
BRANCH  12  13
HETATM   13  C   UNL     1     -44.365 -53.337  12.351  1.00  0.00     0.187 C 
BRANCH  13  14
HETATM   14  O   UNL     1     -45.751 -52.991  12.336  1.00  0.00    -0.394 OA
HETATM   15  C   UNL     1     -46.221 -52.634  13.629  1.00  0.00     0.201 C 
ENDBRANCH  13  14
ENDBRANCH  12  13
ENDBRANCH   7  12
ENDBRANCH   1   5
BRANCH   3  16
HETATM   16  C   UNL     1     -39.193 -49.820  13.135  1.00  0.00     0.088 C 
HETATM   17  C   UNL     1     -39.478 -48.547  13.941  1.00  0.00     0.055 C 
HETATM   18  C   UNL     1     -40.759 -47.851  13.468  1.00  0.00     0.274 C 
HETATM   19  N   UNL     1     -40.796 -47.572  12.019  1.00  0.00     0.088 N 
HETATM   20  C   UNL     1     -40.581 -48.814  11.265  1.00  0.00     0.274 C 
HETATM   21  C   UNL     1     -39.289 -49.547  11.632  1.00  0.00     0.055 C 
BRANCH  19  22
HETATM   22  C   UNL     1     -39.868 -46.481  11.665  1.00  0.00     0.276 C 
BRANCH  22  23
HETATM   23  C   UNL     1     -40.167 -45.097  12.285  1.00  0.00     0.006 C 
HETATM   24  C   UNL     1     -39.016 -44.579  13.147  1.00  0.00     0.011 C 
HETATM   25  C   UNL     1     -40.476 -44.099  11.164  1.00  0.00     0.011 C 
ENDBRANCH  22  23
ENDBRANCH  19  22
ENDBRANCH   3  16
TORSDOF 7
ENDMDL
MODEL 5
REMARK VINA RESULT:      -5.3      3.049      7.903
REMARK  7 active torsions:
REMARK  status: ('A' for Active; 'I' for Inactive)
REMARK    1  A    between atoms: O_2  and  C_3 
REMARK    2  A    between atoms: C_3  and  C_4 
REMARK    3  A    between atoms: C_4  and  N_5 
REMARK    4  A    between atoms: C_7  and  C_12 
REMARK       I    between atoms: C_12  and  N_14 
REMARK    5  A    between atoms: N_14  and  C_15 
REMARK    6  A    between atoms: N_18  and  C_19 
REMARK    7  A    between atoms: C_19  and  C_20 
ROOT
HETATM    1  C   UNL     1     -40.853 -48.246  13.701  1.00  0.00     0.253 C 
HETATM    2  O   UNL     1     -40.688 -48.130  14.912  1.00  0.00    -0.268 OA
HETATM    3  N   UNL     1     -41.058 -49.459  13.086  1.00  0.00    -0.352 N 
HETATM    4  H   UNL     1     -41.204 -49.500  12.089  1.00  0.00     0.163 HD
ENDROOT
BRANCH   1   5
HETATM    5  C   UNL     1     -40.887 -47.031  12.813  1.00  0.00     0.047 A 
HETATM    6  C   UNL     1     -41.773 -46.884  11.812  1.00  0.00     0.111 A 
HETATM    7  N   UNL     1     -41.764 -45.767  10.979  1.00  0.00    -0.322 N 
HETATM    8  C   UNL     1     -40.775 -44.784  11.075  1.00  0.00     0.247 A 
HETATM    9  C   UNL     1     -39.809 -44.943  12.191  1.00  0.00     0.075 A 
HETATM   10  O   UNL     1     -40.642 -43.832  10.311  1.00  0.00    -0.268 OA
HETATM   11  C   UNL     1     -39.882 -46.004  13.003  1.00  0.00     0.024 A 
BRANCH   7  12
HETATM   12  C   UNL     1     -42.785 -45.624   9.933  1.00  0.00     0.158 C 
BRANCH  12  13
HETATM   13  C   UNL     1     -43.720 -46.832   9.788  1.00  0.00     0.187 C 
BRANCH  13  14
HETATM   14  O   UNL     1     -44.217 -46.931   8.453  1.00  0.00    -0.394 OA
HETATM   15  C   UNL     1     -43.503 -47.897   7.693  1.00  0.00     0.201 C 
ENDBRANCH  13  14
ENDBRANCH  12  13
ENDBRANCH   7  12
ENDBRANCH   1   5
BRANCH   3  16
HETATM   16  C   UNL     1     -40.990 -50.720  13.827  1.00  0.00     0.088 C 
HETATM   17  C   UNL     1     -40.422 -51.848  12.957  1.00  0.00     0.055 C 
HETATM   18  C   UNL     1     -41.449 -52.348  11.934  1.00  0.00     0.274 C 
HETATM   19  N   UNL     1     -42.744 -52.742  12.521  1.00  0.00     0.088 N 
HETATM   20  C   UNL     1     -43.300 -51.628  13.300  1.00  0.00     0.274 C 
HETATM   21  C   UNL     1     -42.362 -51.103  14.389  1.00  0.00     0.055 C 
BRANCH  19  22
HETATM   22  C   UNL     1     -42.624 -54.006  13.273  1.00  0.00     0.276 C 
BRANCH  22  23
HETATM   23  C   UNL     1     -43.698 -54.268  14.353  1.00  0.00     0.006 C 
HETATM   24  C   UNL     1     -44.924 -54.994  13.799  1.00  0.00     0.011 C 
HETATM   25  C   UNL     1     -43.077 -55.079  15.495  1.00  0.00     0.011 C 
ENDBRANCH  22  23
ENDBRANCH  19  22
ENDBRANCH   3  16
TORSDOF 7
ENDMDL
MODEL 6
REMARK VINA RESULT:      -5.2      1.738      3.684
REMARK  7 active torsions:
REMARK  status: ('A' for Active; 'I' for Inactive)
REMARK    1  A    between atoms: O_2  and  C_3 
REMARK    2  A    between atoms: C_3  and  C_4 
REMARK    3  A    between atoms: C_4  and  N_5 
REMARK    4  A    between atoms: C_7  and  C_12 
REMARK       I    between atoms: C_12  and  N_14 
REMARK    5  A    between atoms: N_14  and  C_15 
REMARK    6  A    between atoms: N_18  and  C_19 
REMARK    7  A    between atoms: C_19  and  C_20 
ROOT
HETATM    1  C   UNL     1     -43.408 -49.723  14.492  1.00  0.00     0.253 C 
HETATM    2  O   UNL     1     -43.704 -49.180  15.552  1.00  0.00    -0.268 OA
HETATM    3  N   UNL     1     -42.583 -49.142  13.557  1.00  0.00    -0.352 N 
HETATM    4  H   UNL     1     -42.358 -49.636  12.708  1.00  0.00     0.163 HD
ENDROOT
BRANCH   1   5
HETATM    5  C   UNL     1     -43.907 -51.108  14.175  1.00  0.00     0.047 A 
HETATM    6  C   UNL     1     -43.167 -52.213  14.374  1.00  0.00     0.111 A 
HETATM    7  N   UNL     1     -43.636 -53.482  14.040  1.00  0.00    -0.322 N 
HETATM    8  C   UNL     1     -44.859 -53.670  13.392  1.00  0.00     0.247 A 
HETATM    9  C   UNL     1     -45.679 -52.448  13.189  1.00  0.00     0.075 A 
HETATM   10  O   UNL     1     -45.285 -54.742  12.974  1.00  0.00    -0.268 OA
HETATM   11  C   UNL     1     -45.216 -51.252  13.570  1.00  0.00     0.024 A 
BRANCH   7  12
HETATM   12  C   UNL     1     -42.813 -54.666  14.326  1.00  0.00     0.158 C 
BRANCH  12  13
HETATM   13  C   UNL     1     -41.390 -54.350  14.807  1.00  0.00     0.187 C 
BRANCH  13  14
HETATM   14  O   UNL     1     -40.454 -54.470  13.735  1.00  0.00    -0.394 OA
HETATM   15  C   UNL     1     -39.155 -54.037  14.116  1.00  0.00     0.201 C 
ENDBRANCH  13  14
ENDBRANCH  12  13
ENDBRANCH   7  12
ENDBRANCH   1   5
BRANCH   3  16
HETATM   16  C   UNL     1     -42.079 -47.776  13.717  1.00  0.00     0.088 C 
HETATM   17  C   UNL     1     -42.516 -46.881  12.551  1.00  0.00     0.055 C 
HETATM   18  C   UNL     1     -41.713 -47.173  11.278  1.00  0.00     0.274 C 
HETATM   19  N   UNL     1     -40.249 -47.117  11.462  1.00  0.00     0.088 N 
HETATM   20  C   UNL     1     -39.845 -48.026  12.541  1.00  0.00     0.274 C 
HETATM   21  C   UNL     1     -40.556 -47.766  13.871  1.00  0.00     0.055 C 
BRANCH  19  22
HETATM   22  C   UNL     1     -39.789 -45.726  11.638  1.00  0.00     0.276 C 
BRANCH  22  23
HETATM   23  C   UNL     1     -40.175 -44.728  10.522  1.00  0.00     0.006 C 
HETATM   24  C   UNL     1     -40.467 -43.328  11.061  1.00  0.00     0.011 C 
HETATM   25  C   UNL     1     -39.047 -44.670   9.487  1.00  0.00     0.011 C 
ENDBRANCH  22  23
ENDBRANCH  19  22
ENDBRANCH   3  16
TORSDOF 7
ENDMDL
MODEL 7
REMARK VINA RESULT:      -5.2      2.789      4.305
REMARK  7 active torsions:
REMARK  status: ('A' for Active; 'I' for Inactive)
REMARK    1  A    between atoms: O_2  and  C_3 
REMARK    2  A    between atoms: C_3  and  C_4 
REMARK    3  A    between atoms: C_4  and  N_5 
REMARK    4  A    between atoms: C_7  and  C_12 
REMARK       I    between atoms: C_12  and  N_14 
REMARK    5  A    between atoms: N_14  and  C_15 
REMARK    6  A    between atoms: N_18  and  C_19 
REMARK    7  A    between atoms: C_19  and  C_20 
ROOT
HETATM    1  C   UNL     1     -39.498 -52.225  13.773  1.00  0.00     0.253 C 
HETATM    2  O   UNL     1     -38.397 -52.591  13.370  1.00  0.00    -0.268 OA
HETATM    3  N   UNL     1     -39.965 -50.941  13.614  1.00  0.00    -0.352 N 
HETATM    4  H   UNL     1     -40.883 -50.694  13.949  1.00  0.00     0.163 HD
ENDROOT
BRANCH   1   5
HETATM    5  C   UNL     1     -40.435 -53.201  14.434  1.00  0.00     0.047 A 
HETATM    6  C   UNL     1     -40.167 -53.783  15.616  1.00  0.00     0.111 A 
HETATM    7  N   UNL     1     -41.032 -54.710  16.193  1.00  0.00    -0.322 N 
HETATM    8  C   UNL     1     -42.177 -55.161  15.531  1.00  0.00     0.247 A 
HETATM    9  C   UNL     1     -42.477 -54.504  14.233  1.00  0.00     0.075 A 
HETATM   10  O   UNL     1     -42.925 -56.050  15.929  1.00  0.00    -0.268 OA
HETATM   11  C   UNL     1     -41.648 -53.579  13.736  1.00  0.00     0.024 A 
BRANCH   7  12
HETATM   12  C   UNL     1     -40.724 -55.279  17.512  1.00  0.00     0.158 C 
BRANCH  12  13
HETATM   13  C   UNL     1     -39.384 -56.025  17.585  1.00  0.00     0.187 C 
BRANCH  13  14
HETATM   14  O   UNL     1     -39.446 -57.251  16.856  1.00  0.00    -0.394 OA
HETATM   15  C   UNL     1     -39.495 -58.378  17.720  1.00  0.00     0.201 C 
ENDBRANCH  13  14
ENDBRANCH  12  13
ENDBRANCH   7  12
ENDBRANCH   1   5
BRANCH   3  16
HETATM   16  C   UNL     1     -39.131 -49.883  13.040  1.00  0.00     0.088 C 
HETATM   17  C   UNL     1     -39.392 -48.535  13.723  1.00  0.00     0.055 C 
HETATM   18  C   UNL     1     -40.721 -47.918  13.272  1.00  0.00     0.274 C 
HETATM   19  N   UNL     1     -40.867 -47.801  11.808  1.00  0.00     0.088 N 
HETATM   20  C   UNL     1     -40.673 -49.113  11.178  1.00  0.00     0.274 C 
HETATM   21  C   UNL     1     -39.340 -49.777  11.527  1.00  0.00     0.055 C 
BRANCH  19  22
HETATM   22  C   UNL     1     -39.995 -46.738  11.272  1.00  0.00     0.276 C 
BRANCH  22  23
HETATM   23  C   UNL     1     -40.702 -45.574  10.540  1.00  0.00     0.006 C 
HETATM   24  C   UNL     1     -42.223 -45.720  10.537  1.00  0.00     0.011 C 
HETATM   25  C   UNL     1     -40.301 -44.248  11.198  1.00  0.00     0.011 C 
ENDBRANCH  22  23
ENDBRANCH  19  22
ENDBRANCH   3  16
TORSDOF 7
ENDMDL
MODEL 8
REMARK VINA RESULT:      -5.2      5.350      8.555
REMARK  7 active torsions:
REMARK  status: ('A' for Active; 'I' for Inactive)
REMARK    1  A    between atoms: O_2  and  C_3 
REMARK    2  A    between atoms: C_3  and  C_4 
REMARK    3  A    between atoms: C_4  and  N_5 
REMARK    4  A    between atoms: C_7  and  C_12 
REMARK       I    between atoms: C_12  and  N_14 
REMARK    5  A    between atoms: N_14  and  C_15 
REMARK    6  A    between atoms: N_18  and  C_19 
REMARK    7  A    between atoms: C_19  and  C_20 
ROOT
HETATM    1  C   UNL     1     -39.683 -54.199  16.379  1.00  0.00     0.253 C 
HETATM    2  O   UNL     1     -38.914 -53.248  16.280  1.00  0.00    -0.268 OA
HETATM    3  N   UNL     1     -40.953 -54.193  15.850  1.00  0.00    -0.352 N 
HETATM    4  H   UNL     1     -41.542 -55.006  15.945  1.00  0.00     0.163 HD
ENDROOT
BRANCH   1   5
HETATM    5  C   UNL     1     -39.248 -55.470  17.059  1.00  0.00     0.047 A 
HETATM    6  C   UNL     1     -37.980 -55.691  17.449  1.00  0.00     0.111 A 
HETATM    7  N   UNL     1     -37.592 -56.890  18.045  1.00  0.00    -0.322 N 
HETATM    8  C   UNL     1     -38.474 -57.965  18.182  1.00  0.00     0.247 A 
HETATM    9  C   UNL     1     -39.877 -57.710  17.764  1.00  0.00     0.075 A 
HETATM   10  O   UNL     1     -38.176 -59.081  18.597  1.00  0.00    -0.268 OA
HETATM   11  C   UNL     1     -40.223 -56.527  17.243  1.00  0.00     0.024 A 
BRANCH   7  12
HETATM   12  C   UNL     1     -36.208 -57.066  18.504  1.00  0.00     0.158 C 
BRANCH  12  13
HETATM   13  C   UNL     1     -35.220 -56.026  17.957  1.00  0.00     0.187 C 
BRANCH  13  14
HETATM   14  O   UNL     1     -34.440 -56.579  16.895  1.00  0.00    -0.394 OA
HETATM   15  C   UNL     1     -33.073 -56.200  16.991  1.00  0.00     0.201 C 
ENDBRANCH  13  14
ENDBRANCH  12  13
ENDBRANCH   7  12
ENDBRANCH   1   5
BRANCH   3  16
HETATM   16  C   UNL     1     -41.518 -53.000  15.216  1.00  0.00     0.088 C 
HETATM   17  C   UNL     1     -42.787 -52.533  15.939  1.00  0.00     0.055 C 
HETATM   18  C   UNL     1     -43.986 -53.434  15.623  1.00  0.00     0.274 C 
HETATM   19  N   UNL     1     -44.242 -53.615  14.181  1.00  0.00     0.088 N 
HETATM   20  C   UNL     1     -43.034 -54.120  13.517  1.00  0.00     0.274 C 
HETATM   21  C   UNL     1     -41.797 -53.246  13.731  1.00  0.00     0.055 C 
BRANCH  19  22
HETATM   22  C   UNL     1     -44.792 -52.384  13.581  1.00  0.00     0.276 C 
BRANCH  22  23
HETATM   23  C   UNL     1     -46.332 -52.264  13.547  1.00  0.00     0.006 C 
HETATM   24  C   UNL     1     -46.874 -51.343  14.640  1.00  0.00     0.011 C 
HETATM   25  C   UNL     1     -46.768 -51.758  12.168  1.00  0.00     0.011 C 
ENDBRANCH  22  23
ENDBRANCH  19  22
ENDBRANCH   3  16
TORSDOF 7
ENDMDL
MODEL 9
REMARK VINA RESULT:      -5.1      4.163      8.423
REMARK  7 active torsions:
REMARK  status: ('A' for Active; 'I' for Inactive)
REMARK    1  A    between atoms: O_2  and  C_3 
REMARK    2  A    between atoms: C_3  and  C_4 
REMARK    3  A    between atoms: C_4  and  N_5 
REMARK    4  A    between atoms: C_7  and  C_12 
REMARK       I    between atoms: C_12  and  N_14 
REMARK    5  A    between atoms: N_14  and  C_15 
REMARK    6  A    between atoms: N_18  and  C_19 
REMARK    7  A    between atoms: C_19  and  C_20 
ROOT
HETATM    1  C   UNL     1     -38.698 -50.902  13.119  1.00  0.00     0.253 C 
HETATM    2  O   UNL     1     -38.354 -50.887  11.941  1.00  0.00    -0.268 OA
HETATM    3  N   UNL     1     -39.672 -51.744  13.603  1.00  0.00    -0.352 N 
HETATM    4  H   UNL     1     -39.908 -51.729  14.583  1.00  0.00     0.163 HD
ENDROOT
BRANCH   1   5
HETATM    5  C   UNL     1     -38.020 -50.012  14.126  1.00  0.00     0.047 A 
HETATM    6  C   UNL     1     -37.767 -50.400  15.388  1.00  0.00     0.111 A 
HETATM    7  N   UNL     1     -37.171 -49.547  16.315  1.00  0.00    -0.322 N 
HETATM    8  C   UNL     1     -36.892 -48.211  16.014  1.00  0.00     0.247 A 
HETATM    9  C   UNL     1     -37.160 -47.792  14.615  1.00  0.00     0.075 A 
HETATM   10  O   UNL     1     -36.468 -47.377  16.809  1.00  0.00    -0.268 OA
HETATM   11  C   UNL     1     -37.685 -48.656  13.739  1.00  0.00     0.024 A 
BRANCH   7  12
HETATM   12  C   UNL     1     -36.864 -50.032  17.667  1.00  0.00     0.158 C 
BRANCH  12  13
HETATM   13  C   UNL     1     -35.456 -50.623  17.826  1.00  0.00     0.187 C 
BRANCH  13  14
HETATM   14  O   UNL     1     -34.591 -49.699  18.487  1.00  0.00    -0.394 OA
HETATM   15  C   UNL     1     -35.205 -49.127  19.635  1.00  0.00     0.201 C 
ENDBRANCH  13  14
ENDBRANCH  12  13
ENDBRANCH   7  12
ENDBRANCH   1   5
BRANCH   3  16
HETATM   16  C   UNL     1     -40.447 -52.616  12.719  1.00  0.00     0.088 C 
HETATM   17  C   UNL     1     -41.625 -51.865  12.088  1.00  0.00     0.055 C 
HETATM   18  C   UNL     1     -42.763 -51.646  13.092  1.00  0.00     0.274 C 
HETATM   19  N   UNL     1     -43.225 -52.880  13.759  1.00  0.00     0.088 N 
HETATM   20  C   UNL     1     -42.093 -53.552  14.407  1.00  0.00     0.274 C 
HETATM   21  C   UNL     1     -40.931 -53.864  13.462  1.00  0.00     0.055 C 
BRANCH  19  22
HETATM   22  C   UNL     1     -43.983 -53.735  12.826  1.00  0.00     0.276 C 
BRANCH  22  23
HETATM   23  C   UNL     1     -45.495 -53.889  13.108  1.00  0.00     0.006 C 
HETATM   24  C   UNL     1     -45.782 -54.350  14.537  1.00  0.00     0.011 C 
HETATM   25  C   UNL     1     -46.197 -52.554  12.836  1.00  0.00     0.011 C 
ENDBRANCH  22  23
ENDBRANCH  19  22
ENDBRANCH   3  16
TORSDOF 7
ENDMDL
