MODEL 1
REMARK VINA RESULT:      -6.1      0.000      0.000
REMARK  5 active torsions:
REMARK  status: ('A' for Active; 'I' for Inactive)
REMARK    1  A    between atoms: O_2  and  C_3 
REMARK    2  A    between atoms: C_9  and  N_10 
REMARK       I    between atoms: N_10  and  C_11 
REMARK       I    between atoms: C_11  and  N_13 
REMARK    3  A    between atoms: N_13  and  C_14 
REMARK    4  A    between atoms: C_14  and  C_15 
REMARK    5  A    between atoms: C_15  and  N_18 
ROOT
HETATM    1  N   UNL     1     -41.914 -48.253   9.544  1.00  0.00    -0.305 N 
HETATM    2  C   UNL     1     -41.629 -48.899  10.724  1.00  0.00     0.320 C 
HETATM    3  O   UNL     1     -42.332 -48.868  11.725  1.00  0.00    -0.247 OA
HETATM    4  N   UNL     1     -40.427 -49.571  10.705  1.00  0.00    -0.340 N 
HETATM    5  H   UNL     1     -41.500 -48.595   8.688  1.00  0.00     0.171 HD
HETATM    6  H   UNL     1     -40.104 -49.901   9.808  1.00  0.00     0.164 HD
ENDROOT
BRANCH   1   7
HETATM    7  C   UNL     1     -42.981 -47.327   9.387  1.00  0.00     0.087 A 
HETATM    8  C   UNL     1     -42.793 -45.959   9.617  1.00  0.00     0.169 A 
HETATM    9  N   UNL     1     -43.768 -45.025   9.470  1.00  0.00    -0.345 N 
HETATM   10  C   UNL     1     -44.984 -45.464   9.087  1.00  0.00     0.090 A 
ATOM     11  HN  UNL     1     -43.588 -44.037   9.643  1.00  0.00     0.167 HD
HETATM   12  C   UNL     1     -45.283 -46.792   8.865  1.00  0.00     0.019 A 
HETATM   13  C   UNL     1     -44.271 -47.730   9.031  1.00  0.00     0.035 A 
BRANCH   8  14
HETATM   14  O   UNL     1     -41.524 -45.535   9.982  1.00  0.00    -0.339 OA
HETATM   15  C   UNL     1     -41.455 -45.174  11.363  1.00  0.00     0.211 C 
ENDBRANCH   8  14
ENDBRANCH   1   7
BRANCH   4  16
HETATM   16  C   UNL     1     -40.023 -50.333  11.882  1.00  0.00     0.165 C 
BRANCH  16  17
HETATM   17  C   UNL     1     -38.612 -50.000  12.518  1.00  0.00     0.168 C 
HETATM   18  C   UNL     1     -38.140 -51.247  13.298  1.00  0.00     0.050 C 
HETATM   19  C   UNL     1     -37.568 -49.783  11.391  1.00  0.00     0.050 C 
BRANCH  17  20
HETATM   20  N   UNL     1     -38.707 -48.731  13.313  1.00  0.00     0.102 N 
HETATM   21  C   UNL     1     -37.535 -48.303  14.099  1.00  0.00     0.303 C 
HETATM   22  C   UNL     1     -37.428 -48.886  15.532  1.00  0.00     0.302 C 
HETATM   23  N   UNL     1     -38.666 -48.942  16.336  1.00  0.00     0.087 N 
HETATM   24  C   UNL     1     -38.863 -47.719  17.106  1.00  0.00     0.310 C 
HETATM   25  C   UNL     1     -39.849 -49.244  15.512  1.00  0.00     0.302 C 
HETATM   26  C   UNL     1     -39.899 -48.525  14.152  1.00  0.00     0.303 C 
ENDBRANCH  17  20
ENDBRANCH  16  17
ENDBRANCH   4  16
TORSDOF 5
ENDMDL
MODEL 2
REMARK VINA RESULT:      -6.0      4.393      5.553
REMARK  5 active torsions:
REMARK  status: ('A' for Active; 'I' for Inactive)
REMARK    1  A    between atoms: O_2  and  C_3 
REMARK    2  A    between atoms: C_9  and  N_10 
REMARK       I    between atoms: N_10  and  C_11 
REMARK       I    between atoms: C_11  and  N_13 
REMARK    3  A    between atoms: N_13  and  C_14 
REMARK    4  A    between atoms: C_14  and  C_15 
REMARK    5  A    between atoms: C_15  and  N_18 
ROOT
HETATM    1  N   UNL     1     -42.126 -49.255  11.008  1.00  0.00    -0.305 N 
HETATM    2  C   UNL     1     -42.036 -49.974  12.177  1.00  0.00     0.320 C 
HETATM    3  O   UNL     1     -41.954 -49.484  13.295  1.00  0.00    -0.247 OA
HETATM    4  N   UNL     1     -42.001 -51.336  11.980  1.00  0.00    -0.340 N 
HETATM    5  H   UNL     1     -42.534 -49.694  10.195  1.00  0.00     0.171 HD
HETATM    6  H   UNL     1     -42.458 -51.690  11.154  1.00  0.00     0.164 HD
ENDROOT
BRANCH   1   7
HETATM    7  C   UNL     1     -41.967 -47.845  10.934  1.00  0.00     0.087 A 
HETATM    8  C   UNL     1     -43.059 -47.004  10.686  1.00  0.00     0.169 A 
HETATM    9  N   UNL     1     -42.974 -45.651  10.618  1.00  0.00    -0.345 N 
HETATM   10  C   UNL     1     -41.754 -45.104  10.796  1.00  0.00     0.090 A 
ATOM     11  HN  UNL     1     -43.796 -45.074  10.441  1.00  0.00     0.167 HD
HETATM   12  C   UNL     1     -40.609 -45.842  11.014  1.00  0.00     0.019 A 
HETATM   13  C   UNL     1     -40.721 -47.227  11.069  1.00  0.00     0.035 A 
BRANCH   8  14
HETATM   14  O   UNL     1     -44.305 -47.594  10.538  1.00  0.00    -0.339 OA
HETATM   15  C   UNL     1     -44.869 -47.341   9.249  1.00  0.00     0.211 C 
ENDBRANCH   8  14
ENDBRANCH   1   7
BRANCH   4  16
HETATM   16  C   UNL     1     -41.946 -52.218  13.142  1.00  0.00     0.165 C 
BRANCH  16  17
HETATM   17  C   UNL     1     -43.297 -52.898  13.607  1.00  0.00     0.168 C 
HETATM   18  C   UNL     1     -44.176 -53.110  12.355  1.00  0.00     0.050 C 
HETATM   19  C   UNL     1     -43.004 -54.316  14.165  1.00  0.00     0.050 C 
BRANCH  17  20
HETATM   20  N   UNL     1     -43.915 -52.086  14.708  1.00  0.00     0.102 N 
HETATM   21  C   UNL     1     -44.433 -52.788  15.896  1.00  0.00     0.303 C 
HETATM   22  C   UNL     1     -45.895 -53.295  15.802  1.00  0.00     0.302 C 
HETATM   23  N   UNL     1     -46.891 -52.386  15.196  1.00  0.00     0.087 N 
HETATM   24  C   UNL     1     -47.507 -51.520  16.195  1.00  0.00     0.310 C 
HETATM   25  C   UNL     1     -46.320 -51.596  14.091  1.00  0.00     0.302 C 
HETATM   26  C   UNL     1     -44.900 -51.055  14.340  1.00  0.00     0.303 C 
ENDBRANCH  17  20
ENDBRANCH  16  17
ENDBRANCH   4  16
TORSDOF 5
ENDMDL
MODEL 3
REMARK VINA RESULT:      -6.0      3.668      4.994
REMARK  5 active torsions:
REMARK  status: ('A' for Active; 'I' for Inactive)
REMARK    1  A    between atoms: O_2  and  C_3 
REMARK    2  A    between atoms: C_9  and  N_10 
REMARK       I    between atoms: N_10  and  C_11 
REMARK       I    between atoms: C_11  and  N_13 
REMARK    3  A    between atoms: N_13  and  C_14 
REMARK    4  A    between atoms: C_14  and  C_15 
REMARK    5  A    between atoms: C_15  and  N_18 
ROOT
HETATM    1  N   UNL     1     -41.761 -48.963  10.682  1.00  0.00    -0.305 N 
HETATM    2  C   UNL     1     -41.233 -49.716  11.705  1.00  0.00     0.320 C 
HETATM    3  O   UNL     1     -40.915 -49.279  12.803  1.00  0.00    -0.247 OA
HETATM    4  N   UNL     1     -41.041 -51.037  11.369  1.00  0.00    -0.340 N 
HETATM    5  H   UNL     1     -42.309 -49.424   9.969  1.00  0.00     0.171 HD
HETATM    6  H   UNL     1     -41.652 -51.423  10.666  1.00  0.00     0.164 HD
ENDROOT
BRANCH   1   7
HETATM    7  C   UNL     1     -41.853 -47.545  10.711  1.00  0.00     0.087 A 
HETATM    8  C   UNL     1     -43.092 -46.898  10.632  1.00  0.00     0.169 A 
HETATM    9  N   UNL     1     -43.246 -45.549  10.669  1.00  0.00    -0.345 N 
HETATM   10  C   UNL     1     -42.125 -44.807  10.780  1.00  0.00     0.090 A 
ATOM     11  HN  UNL     1     -44.167 -45.117  10.614  1.00  0.00     0.167 HD
HETATM   12  C   UNL     1     -40.855 -45.343  10.833  1.00  0.00     0.019 A 
HETATM   13  C   UNL     1     -40.723 -46.726  10.784  1.00  0.00     0.035 A 
BRANCH   8  14
HETATM   14  O   UNL     1     -44.228 -47.688  10.548  1.00  0.00    -0.339 OA
HETATM   15  C   UNL     1     -45.004 -47.391   9.385  1.00  0.00     0.211 C 
ENDBRANCH   8  14
ENDBRANCH   1   7
BRANCH   4  16
HETATM   16  C   UNL     1     -40.522 -51.956  12.378  1.00  0.00     0.165 C 
BRANCH  16  17
HETATM   17  C   UNL     1     -41.573 -52.779  13.227  1.00  0.00     0.168 C 
HETATM   18  C   UNL     1     -41.272 -54.281  13.025  1.00  0.00     0.050 C 
HETATM   19  C   UNL     1     -41.358 -52.502  14.738  1.00  0.00     0.050 C 
BRANCH  17  20
HETATM   20  N   UNL     1     -42.963 -52.338  12.869  1.00  0.00     0.102 N 
HETATM   21  C   UNL     1     -43.688 -51.464  13.808  1.00  0.00     0.303 C 
HETATM   22  C   UNL     1     -44.484 -52.182  14.929  1.00  0.00     0.302 C 
HETATM   23  N   UNL     1     -45.260 -53.380  14.549  1.00  0.00     0.087 N 
HETATM   24  C   UNL     1     -46.615 -53.035  14.136  1.00  0.00     0.310 C 
HETATM   25  C   UNL     1     -44.579 -54.177  13.512  1.00  0.00     0.302 C 
HETATM   26  C   UNL     1     -43.912 -53.357  12.392  1.00  0.00     0.303 C 
ENDBRANCH  17  20
ENDBRANCH  16  17
ENDBRANCH   4  16
TORSDOF 5
ENDMDL
MODEL 4
REMARK VINA RESULT:      -5.9      4.586      5.914
REMARK  5 active torsions:
REMARK  status: ('A' for Active; 'I' for Inactive)
REMARK    1  A    between atoms: O_2  and  C_3 
REMARK    2  A    between atoms: C_9  and  N_10 
REMARK       I    between atoms: N_10  and  C_11 
REMARK       I    between atoms: C_11  and  N_13 
REMARK    3  A    between atoms: N_13  and  C_14 
REMARK    4  A    between atoms: C_14  and  C_15 
REMARK    5  A    between atoms: C_15  and  N_18 
ROOT
HETATM    1  N   UNL     1     -42.626 -49.336  11.470  1.00  0.00    -0.305 N 
HETATM    2  C   UNL     1     -43.177 -49.585  12.705  1.00  0.00     0.320 C 
HETATM    3  O   UNL     1     -43.193 -48.791  13.636  1.00  0.00    -0.247 OA
HETATM    4  N   UNL     1     -43.687 -50.858  12.831  1.00  0.00    -0.340 N 
HETATM    5  H   UNL     1     -42.950 -49.870  10.675  1.00  0.00     0.171 HD
HETATM    6  H   UNL     1     -44.011 -51.305  11.988  1.00  0.00     0.164 HD
ENDROOT
BRANCH   1   7
HETATM    7  C   UNL     1     -41.856 -48.181  11.166  1.00  0.00     0.087 A 
HETATM    8  C   UNL     1     -42.329 -47.207  10.280  1.00  0.00     0.169 A 
HETATM    9  N   UNL     1     -41.648 -46.077   9.961  1.00  0.00    -0.345 N 
HETATM   10  C   UNL     1     -40.441 -45.905  10.539  1.00  0.00     0.090 A 
ATOM     11  HN  UNL     1     -42.031 -45.388   9.314  1.00  0.00     0.167 HD
HETATM   12  C   UNL     1     -39.869 -46.818  11.401  1.00  0.00     0.019 A 
HETATM   13  C   UNL     1     -40.583 -47.972  11.703  1.00  0.00     0.035 A 
BRANCH   8  14
HETATM   14  O   UNL     1     -43.586 -47.397   9.724  1.00  0.00    -0.339 OA
HETATM   15  C   UNL     1     -43.527 -47.562   8.306  1.00  0.00     0.211 C 
ENDBRANCH   8  14
ENDBRANCH   1   7
BRANCH   4  16
HETATM   16  C   UNL     1     -44.336 -51.240  14.082  1.00  0.00     0.165 C 
BRANCH  16  17
HETATM   17  C   UNL     1     -45.614 -52.169  13.987  1.00  0.00     0.168 C 
HETATM   18  C   UNL     1     -46.817 -51.376  14.545  1.00  0.00     0.050 C 
HETATM   19  C   UNL     1     -45.946 -52.451  12.498  1.00  0.00     0.050 C 
BRANCH  17  20
HETATM   20  N   UNL     1     -45.331 -53.482  14.656  1.00  0.00     0.102 N 
HETATM   21  C   UNL     1     -44.864 -53.474  16.053  1.00  0.00     0.303 C 
HETATM   22  C   UNL     1     -43.333 -53.337  16.257  1.00  0.00     0.302 C 
HETATM   23  N   UNL     1     -42.456 -54.123  15.365  1.00  0.00     0.087 N 
HETATM   24  C   UNL     1     -42.170 -55.442  15.918  1.00  0.00     0.310 C 
HETATM   25  C   UNL     1     -43.004 -54.230  14.002  1.00  0.00     0.302 C 
HETATM   26  C   UNL     1     -44.522 -54.472  13.925  1.00  0.00     0.303 C 
ENDBRANCH  17  20
ENDBRANCH  16  17
ENDBRANCH   4  16
TORSDOF 5
ENDMDL
MODEL 5
REMARK VINA RESULT:      -5.9      1.884      2.929
REMARK  5 active torsions:
REMARK  status: ('A' for Active; 'I' for Inactive)
REMARK    1  A    between atoms: O_2  and  C_3 
REMARK    2  A    between atoms: C_9  and  N_10 
REMARK       I    between atoms: N_10  and  C_11 
REMARK       I    between atoms: C_11  and  N_13 
REMARK    3  A    between atoms: N_13  and  C_14 
REMARK    4  A    between atoms: C_14  and  C_15 
REMARK    5  A    between atoms: C_15  and  N_18 
ROOT
HETATM    1  N   UNL     1     -41.438 -47.479  10.097  1.00  0.00    -0.305 N 
HETATM    2  C   UNL     1     -41.073 -47.718  11.401  1.00  0.00     0.320 C 
HETATM    3  O   UNL     1     -41.828 -47.647  12.362  1.00  0.00    -0.247 OA
HETATM    4  N   UNL     1     -39.736 -48.009  11.552  1.00  0.00    -0.340 N 
HETATM    5  H   UNL     1     -40.887 -47.885   9.354  1.00  0.00     0.171 HD
HETATM    6  H   UNL     1     -39.273 -48.440  10.766  1.00  0.00     0.164 HD
ENDROOT
BRANCH   1   7
HETATM    7  C   UNL     1     -42.702 -46.956   9.713  1.00  0.00     0.087 A 
HETATM    8  C   UNL     1     -42.967 -45.582   9.775  1.00  0.00     0.169 A 
HETATM    9  N   UNL     1     -44.148 -45.021   9.409  1.00  0.00    -0.345 N 
HETATM   10  C   UNL     1     -45.113 -45.854   8.969  1.00  0.00     0.090 A 
ATOM     11  HN  UNL     1     -44.298 -44.014   9.465  1.00  0.00     0.167 HD
HETATM   12  C   UNL     1     -44.966 -47.224   8.898  1.00  0.00     0.019 A 
HETATM   13  C   UNL     1     -43.751 -47.775   9.288  1.00  0.00     0.035 A 
BRANCH   8  14
HETATM   14  O   UNL     1     -41.946 -44.748  10.204  1.00  0.00    -0.339 OA
HETATM   15  C   UNL     1     -42.332 -43.964  11.335  1.00  0.00     0.211 C 
ENDBRANCH   8  14
ENDBRANCH   1   7
BRANCH   4  16
HETATM   16  C   UNL     1     -39.225 -48.323  12.883  1.00  0.00     0.165 C 
BRANCH  16  17
HETATM   17  C   UNL     1     -38.774 -49.814  13.160  1.00  0.00     0.168 C 
HETATM   18  C   UNL     1     -38.288 -50.417  11.824  1.00  0.00     0.050 C 
HETATM   19  C   UNL     1     -37.542 -49.821  14.103  1.00  0.00     0.050 C 
BRANCH  17  20
HETATM   20  N   UNL     1     -39.885 -50.556  13.845  1.00  0.00     0.102 N 
HETATM   21  C   UNL     1     -39.538 -51.664  14.751  1.00  0.00     0.303 C 
HETATM   22  C   UNL     1     -39.368 -53.056  14.089  1.00  0.00     0.302 C 
HETATM   23  N   UNL     1     -40.357 -53.445  13.063  1.00  0.00     0.087 N 
HETATM   24  C   UNL     1     -41.501 -54.131  13.651  1.00  0.00     0.310 C 
HETATM   25  C   UNL     1     -40.791 -52.297  12.247  1.00  0.00     0.302 C 
HETATM   26  C   UNL     1     -41.031 -50.993  13.030  1.00  0.00     0.303 C 
ENDBRANCH  17  20
ENDBRANCH  16  17
ENDBRANCH   4  16
TORSDOF 5
ENDMDL
MODEL 6
REMARK VINA RESULT:      -5.8      5.019      7.026
REMARK  5 active torsions:
REMARK  status: ('A' for Active; 'I' for Inactive)
REMARK    1  A    between atoms: O_2  and  C_3 
REMARK    2  A    between atoms: C_9  and  N_10 
REMARK       I    between atoms: N_10  and  C_11 
REMARK       I    between atoms: C_11  and  N_13 
REMARK    3  A    between atoms: N_13  and  C_14 
REMARK    4  A    between atoms: C_14  and  C_15 
REMARK    5  A    between atoms: C_15  and  N_18 
ROOT
HETATM    1  N   UNL     1     -40.615 -52.069  11.994  1.00  0.00    -0.305 N 
HETATM    2  C   UNL     1     -41.919 -52.037  12.431  1.00  0.00     0.320 C 
HETATM    3  O   UNL     1     -42.435 -51.098  13.023  1.00  0.00    -0.247 OA
HETATM    4  N   UNL     1     -42.609 -53.202  12.182  1.00  0.00    -0.340 N 
HETATM    5  H   UNL     1     -40.369 -52.690  11.237  1.00  0.00     0.171 HD
HETATM    6  H   UNL     1     -42.312 -53.746  11.387  1.00  0.00     0.164 HD
ENDROOT
BRANCH   1   7
HETATM    7  C   UNL     1     -39.648 -51.080  12.320  1.00  0.00     0.087 A 
HETATM    8  C   UNL     1     -39.590 -49.867  11.625  1.00  0.00     0.169 A 
HETATM    9  N   UNL     1     -38.700 -48.878  11.898  1.00  0.00    -0.345 N 
HETATM   10  C   UNL     1     -37.824 -49.101  12.898  1.00  0.00     0.090 A 
ATOM     11  HN  UNL     1     -38.695 -48.006  11.370  1.00  0.00     0.167 HD
HETATM   12  C   UNL     1     -37.775 -50.273  13.625  1.00  0.00     0.019 A 
HETATM   13  C   UNL     1     -38.690 -51.274  13.319  1.00  0.00     0.035 A 
BRANCH   8  14
HETATM   14  O   UNL     1     -40.523 -49.654  10.621  1.00  0.00    -0.339 OA
HETATM   15  C   UNL     1     -41.335 -48.506  10.877  1.00  0.00     0.211 C 
ENDBRANCH   8  14
ENDBRANCH   1   7
BRANCH   4  16
HETATM   16  C   UNL     1     -44.017 -53.286  12.560  1.00  0.00     0.165 C 
BRANCH  16  17
HETATM   17  C   UNL     1     -44.354 -53.851  13.999  1.00  0.00     0.168 C 
HETATM   18  C   UNL     1     -45.586 -54.773  13.868  1.00  0.00     0.050 C 
HETATM   19  C   UNL     1     -43.194 -54.757  14.490  1.00  0.00     0.050 C 
BRANCH  17  20
HETATM   20  N   UNL     1     -44.492 -52.711  14.966  1.00  0.00     0.102 N 
HETATM   21  C   UNL     1     -44.805 -53.015  16.374  1.00  0.00     0.303 C 
HETATM   22  C   UNL     1     -46.310 -53.151  16.721  1.00  0.00     0.302 C 
HETATM   23  N   UNL     1     -47.235 -52.162  16.131  1.00  0.00     0.087 N 
HETATM   24  C   UNL     1     -47.388 -50.991  16.988  1.00  0.00     0.310 C 
HETATM   25  C   UNL     1     -46.833 -51.770  14.769  1.00  0.00     0.302 C 
HETATM   26  C   UNL     1     -45.321 -51.561  14.569  1.00  0.00     0.303 C 
ENDBRANCH  17  20
ENDBRANCH  16  17
ENDBRANCH   4  16
TORSDOF 5
ENDMDL
MODEL 7
REMARK VINA RESULT:      -5.8      4.139      6.474
REMARK  5 active torsions:
REMARK  status: ('A' for Active; 'I' for Inactive)
REMARK    1  A    between atoms: O_2  and  C_3 
REMARK    2  A    between atoms: C_9  and  N_10 
REMARK       I    between atoms: N_10  and  C_11 
REMARK       I    between atoms: C_11  and  N_13 
REMARK    3  A    between atoms: N_13  and  C_14 
REMARK    4  A    between atoms: C_14  and  C_15 
REMARK    5  A    between atoms: C_15  and  N_18 
ROOT
HETATM    1  N   UNL     1     -42.872 -52.593  11.988  1.00  0.00    -0.305 N 
HETATM    2  C   UNL     1     -42.093 -51.555  12.443  1.00  0.00     0.320 C 
HETATM    3  O   UNL     1     -41.862 -51.319  13.621  1.00  0.00    -0.247 OA
HETATM    4  N   UNL     1     -41.613 -50.749  11.436  1.00  0.00    -0.340 N 
HETATM    5  H   UNL     1     -42.735 -52.930  11.046  1.00  0.00     0.171 HD
HETATM    6  H   UNL     1     -41.480 -51.177  10.533  1.00  0.00     0.164 HD
ENDROOT
BRANCH   1   7
HETATM    7  C   UNL     1     -43.648 -53.430  12.836  1.00  0.00     0.087 A 
HETATM    8  C   UNL     1     -45.047 -53.414  12.786  1.00  0.00     0.169 A 
HETATM    9  N   UNL     1     -45.841 -54.198  13.558  1.00  0.00    -0.345 N 
HETATM   10  C   UNL     1     -45.227 -55.030  14.424  1.00  0.00     0.090 A 
ATOM     11  HN  UNL     1     -46.858 -54.160  13.487  1.00  0.00     0.167 HD
HETATM   12  C   UNL     1     -43.857 -55.101  14.575  1.00  0.00     0.019 A 
HETATM   13  C   UNL     1     -43.066 -54.280  13.779  1.00  0.00     0.035 A 
BRANCH   8  14
HETATM   14  O   UNL     1     -45.649 -52.570  11.865  1.00  0.00    -0.339 OA
HETATM   15  C   UNL     1     -46.596 -51.693  12.480  1.00  0.00     0.211 C 
ENDBRANCH   8  14
ENDBRANCH   1   7
BRANCH   4  16
HETATM   16  C   UNL     1     -40.738 -49.632  11.780  1.00  0.00     0.165 C 
BRANCH  16  17
HETATM   17  C   UNL     1     -41.302 -48.169  11.562  1.00  0.00     0.168 C 
HETATM   18  C   UNL     1     -42.046 -48.146  10.209  1.00  0.00     0.050 C 
HETATM   19  C   UNL     1     -42.371 -47.854  12.640  1.00  0.00     0.050 C 
BRANCH  17  20
HETATM   20  N   UNL     1     -40.187 -47.174  11.711  1.00  0.00     0.102 N 
HETATM   21  C   UNL     1     -39.891 -46.645  13.054  1.00  0.00     0.303 C 
HETATM   22  C   UNL     1     -40.709 -45.402  13.490  1.00  0.00     0.302 C 
HETATM   23  N   UNL     1     -40.911 -44.336  12.488  1.00  0.00     0.087 N 
HETATM   24  C   UNL     1     -39.840 -43.348  12.529  1.00  0.00     0.310 C 
HETATM   25  C   UNL     1     -41.077 -44.878  11.127  1.00  0.00     0.302 C 
HETATM   26  C   UNL     1     -40.136 -46.043  10.769  1.00  0.00     0.303 C 
ENDBRANCH  17  20
ENDBRANCH  16  17
ENDBRANCH   4  16
TORSDOF 5
ENDMDL
MODEL 8
REMARK VINA RESULT:      -5.7      4.659      6.286
REMARK  5 active torsions:
REMARK  status: ('A' for Active; 'I' for Inactive)
REMARK    1  A    between atoms: O_2  and  C_3 
REMARK    2  A    between atoms: C_9  and  N_10 
REMARK       I    between atoms: N_10  and  C_11 
REMARK       I    between atoms: C_11  and  N_13 
REMARK    3  A    between atoms: N_13  and  C_14 
REMARK    4  A    between atoms: C_14  and  C_15 
REMARK    5  A    between atoms: C_15  and  N_18 
ROOT
HETATM    1  N   UNL     1     -44.564 -51.656  12.626  1.00  0.00    -0.305 N 
HETATM    2  C   UNL     1     -43.833 -50.723  13.324  1.00  0.00     0.320 C 
HETATM    3  O   UNL     1     -43.472 -50.845  14.487  1.00  0.00    -0.247 OA
HETATM    4  N   UNL     1     -43.568 -49.583  12.600  1.00  0.00    -0.340 N 
HETATM    5  H   UNL     1     -44.520 -51.655  11.617  1.00  0.00     0.171 HD
HETATM    6  H   UNL     1     -43.515 -49.681  11.598  1.00  0.00     0.164 HD
ENDROOT
BRANCH   1   7
HETATM    7  C   UNL     1     -45.139 -52.813  13.218  1.00  0.00     0.087 A 
HETATM    8  C   UNL     1     -46.284 -52.724  14.018  1.00  0.00     0.169 A 
HETATM    9  N   UNL     1     -46.888 -53.793  14.599  1.00  0.00    -0.345 N 
HETATM   10  C   UNL     1     -46.331 -55.002  14.386  1.00  0.00     0.090 A 
ATOM     11  HN  UNL     1     -47.725 -53.685  15.171  1.00  0.00     0.167 HD
HETATM   12  C   UNL     1     -45.186 -55.196  13.641  1.00  0.00     0.019 A 
HETATM   13  C   UNL     1     -44.581 -54.085  13.065  1.00  0.00     0.035 A 
BRANCH   8  14
HETATM   14  O   UNL     1     -46.851 -51.471  14.195  1.00  0.00    -0.339 OA
HETATM   15  C   UNL     1     -47.134 -51.198  15.569  1.00  0.00     0.211 C 
ENDBRANCH   8  14
ENDBRANCH   1   7
BRANCH   4  16
HETATM   16  C   UNL     1     -42.765 -48.527  13.210  1.00  0.00     0.165 C 
BRANCH  16  17
HETATM   17  C   UNL     1     -41.525 -47.985  12.389  1.00  0.00     0.168 C 
HETATM   18  C   UNL     1     -41.625 -48.549  10.955  1.00  0.00     0.050 C 
HETATM   19  C   UNL     1     -41.626 -46.443  12.247  1.00  0.00     0.050 C 
BRANCH  17  20
HETATM   20  N   UNL     1     -40.257 -48.299  13.128  1.00  0.00     0.102 N 
HETATM   21  C   UNL     1     -38.978 -48.207  12.403  1.00  0.00     0.303 C 
HETATM   22  C   UNL     1     -38.539 -49.480  11.634  1.00  0.00     0.302 C 
HETATM   23  N   UNL     1     -38.718 -50.780  12.314  1.00  0.00     0.087 N 
HETATM   24  C   UNL     1     -37.544 -51.141  13.101  1.00  0.00     0.310 C 
HETATM   25  C   UNL     1     -39.938 -50.810  13.140  1.00  0.00     0.302 C 
HETATM   26  C   UNL     1     -40.215 -49.526  13.942  1.00  0.00     0.303 C 
ENDBRANCH  17  20
ENDBRANCH  16  17
ENDBRANCH   4  16
TORSDOF 5
ENDMDL
MODEL 9
REMARK VINA RESULT:      -5.6      4.472      6.223
REMARK  5 active torsions:
REMARK  status: ('A' for Active; 'I' for Inactive)
REMARK    1  A    between atoms: O_2  and  C_3 
REMARK    2  A    between atoms: C_9  and  N_10 
REMARK       I    between atoms: N_10  and  C_11 
REMARK       I    between atoms: C_11  and  N_13 
REMARK    3  A    between atoms: N_13  and  C_14 
REMARK    4  A    between atoms: C_14  and  C_15 
REMARK    5  A    between atoms: C_15  and  N_18 
ROOT
HETATM    1  N   UNL     1     -43.911 -52.111  12.479  1.00  0.00    -0.305 N 
HETATM    2  C   UNL     1     -42.644 -51.757  12.882  1.00  0.00     0.320 C 
HETATM    3  O   UNL     1     -42.267 -51.718  14.046  1.00  0.00    -0.247 OA
HETATM    4  N   UNL     1     -41.818 -51.396  11.842  1.00  0.00    -0.340 N 
HETATM    5  H   UNL     1     -44.045 -52.455  11.538  1.00  0.00     0.171 HD
HETATM    6  H   UNL     1     -42.010 -51.810  10.943  1.00  0.00     0.164 HD
ENDROOT
BRANCH   1   7
HETATM    7  C   UNL     1     -44.997 -52.316  13.372  1.00  0.00     0.087 A 
HETATM    8  C   UNL     1     -45.258 -53.579  13.917  1.00  0.00     0.169 A 
HETATM    9  N   UNL     1     -46.269 -53.835  14.786  1.00  0.00    -0.345 N 
HETATM   10  C   UNL     1     -47.062 -52.799  15.126  1.00  0.00     0.090 A 
ATOM     11  HN  UNL     1     -46.421 -54.769  15.165  1.00  0.00     0.167 HD
HETATM   12  C   UNL     1     -46.912 -51.523  14.623  1.00  0.00     0.019 A 
HETATM   13  C   UNL     1     -45.875 -51.289  13.727  1.00  0.00     0.035 A 
BRANCH   8  14
HETATM   14  O   UNL     1     -44.406 -54.618  13.572  1.00  0.00    -0.339 OA
HETATM   15  C   UNL     1     -43.567 -55.009  14.661  1.00  0.00     0.211 C 
ENDBRANCH   8  14
ENDBRANCH   1   7
BRANCH   4  16
HETATM   16  C   UNL     1     -40.433 -51.036  12.129  1.00  0.00     0.165 C 
BRANCH  16  17
HETATM   17  C   UNL     1     -40.125 -49.518  12.456  1.00  0.00     0.168 C 
HETATM   18  C   UNL     1     -39.696 -49.431  13.937  1.00  0.00     0.050 C 
HETATM   19  C   UNL     1     -38.901 -49.044  11.629  1.00  0.00     0.050 C 
BRANCH  17  20
HETATM   20  N   UNL     1     -41.303 -48.673  12.066  1.00  0.00     0.102 N 
HETATM   21  C   UNL     1     -41.239 -47.915  10.804  1.00  0.00     0.303 C 
HETATM   22  C   UNL     1     -40.587 -46.511  10.886  1.00  0.00     0.302 C 
HETATM   23  N   UNL     1     -40.943 -45.664  12.043  1.00  0.00     0.087 N 
HETATM   24  C   UNL     1     -42.115 -44.841  11.768  1.00  0.00     0.310 C 
HETATM   25  C   UNL     1     -41.131 -46.454  13.273  1.00  0.00     0.302 C 
HETATM   26  C   UNL     1     -41.885 -47.784  13.086  1.00  0.00     0.303 C 
ENDBRANCH  17  20
ENDBRANCH  16  17
ENDBRANCH   4  16
TORSDOF 5
ENDMDL
