MODEL 1
REMARK VINA RESULT:      -5.2      0.000      0.000
REMARK  6 active torsions:
REMARK  status: ('A' for Active; 'I' for Inactive)
REMARK    1  A    between atoms: C_2  and  C_3 
REMARK    2  A    between atoms: C_2  and  N_7 
REMARK    3  A    between atoms: C_3  and  C_4 
REMARK       I    between atoms: C_4  and  N_6 
REMARK    4  A    between atoms: N_7  and  C_8 
REMARK    5  A    between atoms: C_8  and  C_9 
REMARK    6  A    between atoms: C_9  and  N_10 
ROOT
HETATM    1  N   UNL     1     -39.810 -50.933  11.810  1.00  0.00     0.089 N 
HETATM    2  H   UNL     1     -38.948 -51.471  11.695  1.00  0.00     0.316 HD
ENDROOT
BRANCH   1   3
HETATM    3  C   UNL     1     -39.459 -49.515  12.058  1.00  0.00     0.225 C 
HETATM    4  C   UNL     1     -40.085 -48.998  13.361  1.00  0.00     0.043 C 
BRANCH   3   5
HETATM    5  C   UNL     1     -37.926 -49.405  12.104  1.00  0.00     0.137 C 
BRANCH   5   6
HETATM    6  C   UNL     1     -37.250 -50.526  11.341  1.00  0.00     0.217 C 
HETATM    7  O   UNL     1     -36.890 -51.586  11.834  1.00  0.00    -0.274 OA
HETATM    8  N   UNL     1     -37.026 -50.263  10.021  1.00  0.00    -0.370 N 
HETATM    9  H   UNL     1     -37.228 -49.371   9.591  1.00  0.00     0.159 HD
HETATM   10  H   UNL     1     -36.568 -50.978   9.473  1.00  0.00     0.159 HD
ENDBRANCH   5   6
ENDBRANCH   3   5
ENDBRANCH   1   3
BRANCH   1  11
HETATM   11  C   UNL     1     -40.600 -51.561  12.884  1.00  0.00     0.291 C 
BRANCH  11  12
HETATM   12  C   UNL     1     -40.827 -53.066  12.722  1.00  0.00     0.178 C 
BRANCH  12  13
HETATM   13  N   UNL     1     -42.238 -53.395  12.809  1.00  0.00    -0.302 N 
HETATM   14  C   UNL     1     -42.827 -54.264  13.681  1.00  0.00     0.118 A 
HETATM   15  C   UNL     1     -44.175 -54.244  13.395  1.00  0.00    -0.028 A 
HETATM   16  C   UNL     1     -45.262 -55.000  14.053  1.00  0.00     0.051 C 
HETATM   17  C   UNL     1     -44.287 -53.333  12.322  1.00  0.00     0.115 A 
HETATM   18  N   UNL     1     -43.112 -52.805  11.972  1.00  0.00    -0.310 N 
ATOM     19  HN  UNL     1     -42.922 -52.118  11.243  1.00  0.00     0.186 HD
ENDBRANCH  12  13
ENDBRANCH  11  12
ENDBRANCH   1  11
TORSDOF 6
ENDMDL
MODEL 2
REMARK VINA RESULT:      -5.1      4.008      5.709
REMARK  6 active torsions:
REMARK  status: ('A' for Active; 'I' for Inactive)
REMARK    1  A    between atoms: C_2  and  C_3 
REMARK    2  A    between atoms: C_2  and  N_7 
REMARK    3  A    between atoms: C_3  and  C_4 
REMARK       I    between atoms: C_4  and  N_6 
REMARK    4  A    between atoms: N_7  and  C_8 
REMARK    5  A    between atoms: C_8  and  C_9 
REMARK    6  A    between atoms: C_9  and  N_10 
ROOT
HETATM    1  N   UNL     1     -42.198 -50.338  11.639  1.00  0.00     0.089 N 
HETATM    2  H   UNL     1     -43.104 -49.905  11.446  1.00  0.00     0.316 HD
ENDROOT
BRANCH   1   3
HETATM    3  C   UNL     1     -42.200 -50.851  13.029  1.00  0.00     0.225 C 
HETATM    4  C   UNL     1     -43.380 -50.292  13.836  1.00  0.00     0.043 C 
BRANCH   3   5
HETATM    5  C   UNL     1     -42.255 -52.387  12.969  1.00  0.00     0.137 C 
BRANCH   5   6
HETATM    6  C   UNL     1     -40.930 -52.989  12.551  1.00  0.00     0.217 C 
HETATM    7  O   UNL     1     -39.894 -52.355  12.399  1.00  0.00    -0.274 OA
HETATM    8  N   UNL     1     -40.963 -54.332  12.313  1.00  0.00    -0.370 N 
HETATM    9  H   UNL     1     -41.811 -54.879  12.342  1.00  0.00     0.159 HD
HETATM   10  H   UNL     1     -40.103 -54.776  12.021  1.00  0.00     0.159 HD
ENDBRANCH   5   6
ENDBRANCH   3   5
ENDBRANCH   1   3
BRANCH   1  11
HETATM   11  C   UNL     1     -41.148 -49.341  11.360  1.00  0.00     0.291 C 
BRANCH  11  12
HETATM   12  C   UNL     1     -41.638 -47.893  11.282  1.00  0.00     0.178 C 
BRANCH  12  13
HETATM   13  N   UNL     1     -42.712 -47.755  10.316  1.00  0.00    -0.302 N 
HETATM   14  C   UNL     1     -44.017 -47.455  10.576  1.00  0.00     0.118 A 
HETATM   15  C   UNL     1     -44.658 -47.424   9.356  1.00  0.00    -0.028 A 
HETATM   16  C   UNL     1     -46.081 -47.137   9.076  1.00  0.00     0.051 C 
HETATM   17  C   UNL     1     -43.641 -47.733   8.425  1.00  0.00     0.115 A 
HETATM   18  N   UNL     1     -42.455 -47.922   9.005  1.00  0.00    -0.310 N 
ATOM     19  HN  UNL     1     -41.564 -48.141   8.560  1.00  0.00     0.186 HD
ENDBRANCH  12  13
ENDBRANCH  11  12
ENDBRANCH   1  11
TORSDOF 6
ENDMDL
MODEL 3
REMARK VINA RESULT:      -5.0      4.419      5.820
REMARK  6 active torsions:
REMARK  status: ('A' for Active; 'I' for Inactive)
REMARK    1  A    between atoms: C_2  and  C_3 
REMARK    2  A    between atoms: C_2  and  N_7 
REMARK    3  A    between atoms: C_3  and  C_4 
REMARK       I    between atoms: C_4  and  N_6 
REMARK    4  A    between atoms: N_7  and  C_8 
REMARK    5  A    between atoms: C_8  and  C_9 
REMARK    6  A    between atoms: C_9  and  N_10 
ROOT
HETATM    1  N   UNL     1     -41.614 -48.685  10.734  1.00  0.00     0.089 N 
HETATM    2  H   UNL     1     -42.441 -48.789  11.327  1.00  0.00     0.316 HD
ENDROOT
BRANCH   1   3
HETATM    3  C   UNL     1     -40.586 -49.658  11.171  1.00  0.00     0.225 C 
HETATM    4  C   UNL     1     -39.356 -48.954  11.760  1.00  0.00     0.043 C 
BRANCH   3   5
HETATM    5  C   UNL     1     -41.229 -50.596  12.207  1.00  0.00     0.137 C 
BRANCH   5   6
HETATM    6  C   UNL     1     -40.676 -52.004  12.123  1.00  0.00     0.217 C 
HETATM    7  O   UNL     1     -39.798 -52.452  12.849  1.00  0.00    -0.274 OA
HETATM    8  N   UNL     1     -41.211 -52.768  11.128  1.00  0.00    -0.370 N 
HETATM    9  H   UNL     1     -41.874 -52.414  10.452  1.00  0.00     0.159 HD
HETATM   10  H   UNL     1     -40.865 -53.712  11.026  1.00  0.00     0.159 HD
ENDBRANCH   5   6
ENDBRANCH   3   5
ENDBRANCH   1   3
BRANCH   1  11
HETATM   11  C   UNL     1     -41.184 -47.276  10.795  1.00  0.00     0.291 C 
BRANCH  11  12
HETATM   12  C   UNL     1     -42.189 -46.271  10.229  1.00  0.00     0.178 C 
BRANCH  12  13
HETATM   13  N   UNL     1     -43.217 -46.939   9.451  1.00  0.00    -0.302 N 
HETATM   14  C   UNL     1     -44.508 -47.173   9.826  1.00  0.00     0.118 A 
HETATM   15  C   UNL     1     -45.105 -47.824   8.767  1.00  0.00    -0.028 A 
HETATM   16  C   UNL     1     -46.501 -48.297   8.652  1.00  0.00     0.051 C 
HETATM   17  C   UNL     1     -44.075 -47.939   7.808  1.00  0.00     0.115 A 
HETATM   18  N   UNL     1     -42.929 -47.391   8.216  1.00  0.00    -0.310 N 
ATOM     19  HN  UNL     1     -42.045 -47.329   7.712  1.00  0.00     0.186 HD
ENDBRANCH  12  13
ENDBRANCH  11  12
ENDBRANCH   1  11
TORSDOF 6
ENDMDL
MODEL 4
REMARK VINA RESULT:      -5.0      3.607      5.435
REMARK  6 active torsions:
REMARK  status: ('A' for Active; 'I' for Inactive)
REMARK    1  A    between atoms: C_2  and  C_3 
REMARK    2  A    between atoms: C_2  and  N_7 
REMARK    3  A    between atoms: C_3  and  C_4 
REMARK       I    between atoms: C_4  and  N_6 
REMARK    4  A    between atoms: N_7  and  C_8 
REMARK    5  A    between atoms: C_8  and  C_9 
REMARK    6  A    between atoms: C_9  and  N_10 
ROOT
HETATM    1  N   UNL     1     -41.911 -52.535  12.517  1.00  0.00     0.089 N 
HETATM    2  H   UNL     1     -42.688 -52.531  11.853  1.00  0.00     0.316 HD
ENDROOT
BRANCH   1   3
HETATM    3  C   UNL     1     -41.764 -53.899  13.076  1.00  0.00     0.225 C 
HETATM    4  C   UNL     1     -40.398 -54.090  13.749  1.00  0.00     0.043 C 
BRANCH   3   5
HETATM    5  C   UNL     1     -42.907 -54.127  14.080  1.00  0.00     0.137 C 
BRANCH   5   6
HETATM    6  C   UNL     1     -44.227 -54.403  13.389  1.00  0.00     0.217 C 
HETATM    7  O   UNL     1     -44.472 -54.127  12.222  1.00  0.00    -0.274 OA
HETATM    8  N   UNL     1     -45.178 -54.971  14.183  1.00  0.00    -0.370 N 
HETATM    9  H   UNL     1     -45.049 -55.137  15.172  1.00  0.00     0.159 HD
HETATM   10  H   UNL     1     -46.080 -55.164  13.768  1.00  0.00     0.159 HD
ENDBRANCH   5   6
ENDBRANCH   3   5
ENDBRANCH   1   3
BRANCH   1  11
HETATM   11  C   UNL     1     -42.167 -51.489  13.524  1.00  0.00     0.291 C 
BRANCH  11  12
HETATM   12  C   UNL     1     -43.227 -50.459  13.128  1.00  0.00     0.178 C 
BRANCH  12  13
HETATM   13  N   UNL     1     -44.550 -50.879  13.554  1.00  0.00    -0.302 N 
HETATM   14  C   UNL     1     -44.995 -51.015  14.836  1.00  0.00     0.118 A 
HETATM   15  C   UNL     1     -46.308 -51.427  14.748  1.00  0.00    -0.028 A 
HETATM   16  C   UNL     1     -47.255 -51.712  15.847  1.00  0.00     0.051 C 
HETATM   17  C   UNL     1     -46.548 -51.518  13.359  1.00  0.00     0.115 A 
HETATM   18  N   UNL     1     -45.484 -51.174  12.631  1.00  0.00    -0.310 N 
ATOM     19  HN  UNL     1     -45.400 -51.141  11.615  1.00  0.00     0.186 HD
ENDBRANCH  12  13
ENDBRANCH  11  12
ENDBRANCH   1  11
TORSDOF 6
ENDMDL
MODEL 5
REMARK VINA RESULT:      -4.8      4.272      5.354
REMARK  6 active torsions:
REMARK  status: ('A' for Active; 'I' for Inactive)
REMARK    1  A    between atoms: C_2  and  C_3 
REMARK    2  A    between atoms: C_2  and  N_7 
REMARK    3  A    between atoms: C_3  and  C_4 
REMARK       I    between atoms: C_4  and  N_6 
REMARK    4  A    between atoms: N_7  and  C_8 
REMARK    5  A    between atoms: C_8  and  C_9 
REMARK    6  A    between atoms: C_9  and  N_10 
ROOT
HETATM    1  N   UNL     1     -41.450 -47.646  10.189  1.00  0.00     0.089 N 
HETATM    2  H   UNL     1     -40.642 -47.073  10.444  1.00  0.00     0.316 HD
ENDROOT
BRANCH   1   3
HETATM    3  C   UNL     1     -42.669 -46.806  10.247  1.00  0.00     0.225 C 
HETATM    4  C   UNL     1     -42.438 -45.531  11.070  1.00  0.00     0.043 C 
BRANCH   3   5
HETATM    5  C   UNL     1     -43.078 -46.462   8.805  1.00  0.00     0.137 C 
BRANCH   5   6
HETATM    6  C   UNL     1     -43.762 -47.623   8.113  1.00  0.00     0.217 C 
HETATM    7  O   UNL     1     -44.908 -47.991   8.339  1.00  0.00    -0.274 OA
HETATM    8  N   UNL     1     -42.987 -48.286   7.208  1.00  0.00    -0.370 N 
HETATM    9  H   UNL     1     -42.011 -48.072   7.052  1.00  0.00     0.159 HD
HETATM   10  H   UNL     1     -43.397 -49.075   6.729  1.00  0.00     0.159 HD
ENDBRANCH   5   6
ENDBRANCH   3   5
ENDBRANCH   1   3
BRANCH   1  11
HETATM   11  C   UNL     1     -41.477 -48.820  11.080  1.00  0.00     0.291 C 
BRANCH  11  12
HETATM   12  C   UNL     1     -40.121 -49.495  11.297  1.00  0.00     0.178 C 
BRANCH  12  13
HETATM   13  N   UNL     1     -40.278 -50.799  11.916  1.00  0.00    -0.302 N 
HETATM   14  C   UNL     1     -39.685 -51.242  13.061  1.00  0.00     0.118 A 
HETATM   15  C   UNL     1     -40.136 -52.529  13.258  1.00  0.00    -0.028 A 
HETATM   16  C   UNL     1     -39.806 -53.458  14.360  1.00  0.00     0.051 C 
HETATM   17  C   UNL     1     -40.993 -52.766  12.160  1.00  0.00     0.115 A 
HETATM   18  N   UNL     1     -41.091 -51.711  11.349  1.00  0.00    -0.310 N 
ATOM     19  HN  UNL     1     -41.649 -51.617  10.501  1.00  0.00     0.186 HD
ENDBRANCH  12  13
ENDBRANCH  11  12
ENDBRANCH   1  11
TORSDOF 6
ENDMDL
MODEL 6
REMARK VINA RESULT:      -4.8      4.275      6.416
REMARK  6 active torsions:
REMARK  status: ('A' for Active; 'I' for Inactive)
REMARK    1  A    between atoms: C_2  and  C_3 
REMARK    2  A    between atoms: C_2  and  N_7 
REMARK    3  A    between atoms: C_3  and  C_4 
REMARK       I    between atoms: C_4  and  N_6 
REMARK    4  A    between atoms: N_7  and  C_8 
REMARK    5  A    between atoms: C_8  and  C_9 
REMARK    6  A    between atoms: C_9  and  N_10 
ROOT
HETATM    1  N   UNL     1     -44.832 -52.272  15.463  1.00  0.00     0.089 N 
HETATM    2  H   UNL     1     -44.830 -51.634  16.262  1.00  0.00     0.316 HD
ENDROOT
BRANCH   1   3
HETATM    3  C   UNL     1     -46.178 -52.262  14.845  1.00  0.00     0.225 C 
HETATM    4  C   UNL     1     -47.235 -51.699  15.804  1.00  0.00     0.043 C 
BRANCH   3   5
HETATM    5  C   UNL     1     -46.103 -51.424  13.557  1.00  0.00     0.137 C 
BRANCH   5   6
HETATM    6  C   UNL     1     -46.159 -52.285  12.312  1.00  0.00     0.217 C 
HETATM    7  O   UNL     1     -45.519 -53.316  12.149  1.00  0.00    -0.274 OA
HETATM    8  N   UNL     1     -46.974 -51.811  11.326  1.00  0.00    -0.370 N 
HETATM    9  H   UNL     1     -47.453 -50.923  11.383  1.00  0.00     0.159 HD
HETATM   10  H   UNL     1     -47.035 -52.347  10.472  1.00  0.00     0.159 HD
ENDBRANCH   5   6
ENDBRANCH   3   5
ENDBRANCH   1   3
BRANCH   1  11
HETATM   11  C   UNL     1     -44.389 -53.597  15.936  1.00  0.00     0.291 C 
BRANCH  11  12
HETATM   12  C   UNL     1     -44.076 -54.606  14.829  1.00  0.00     0.178 C 
BRANCH  12  13
HETATM   13  N   UNL     1     -42.760 -54.371  14.264  1.00  0.00    -0.302 N 
HETATM   14  C   UNL     1     -41.560 -54.478  14.904  1.00  0.00     0.118 A 
HETATM   15  C   UNL     1     -40.594 -54.170  13.970  1.00  0.00    -0.028 A 
HETATM   16  C   UNL     1     -39.127 -54.143  14.145  1.00  0.00     0.051 C 
HETATM   17  C   UNL     1     -41.328 -53.880  12.799  1.00  0.00     0.115 A 
HETATM   18  N   UNL     1     -42.644 -54.014  12.971  1.00  0.00    -0.310 N 
ATOM     19  HN  UNL     1     -43.387 -53.878  12.285  1.00  0.00     0.186 HD
ENDBRANCH  12  13
ENDBRANCH  11  12
ENDBRANCH   1  11
TORSDOF 6
ENDMDL
MODEL 7
REMARK VINA RESULT:      -4.7      3.082      6.694
REMARK  6 active torsions:
REMARK  status: ('A' for Active; 'I' for Inactive)
REMARK    1  A    between atoms: C_2  and  C_3 
REMARK    2  A    between atoms: C_2  and  N_7 
REMARK    3  A    between atoms: C_3  and  C_4 
REMARK       I    between atoms: C_4  and  N_6 
REMARK    4  A    between atoms: N_7  and  C_8 
REMARK    5  A    between atoms: C_8  and  C_9 
REMARK    6  A    between atoms: C_9  and  N_10 
ROOT
HETATM    1  N   UNL     1     -44.614 -51.453  12.983  1.00  0.00     0.089 N 
HETATM    2  H   UNL     1     -45.172 -50.723  12.534  1.00  0.00     0.316 HD
ENDROOT
BRANCH   1   3
HETATM    3  C   UNL     1     -45.176 -51.728  14.326  1.00  0.00     0.225 C 
HETATM    4  C   UNL     1     -46.691 -51.486  14.365  1.00  0.00     0.043 C 
BRANCH   3   5
HETATM    5  C   UNL     1     -44.843 -53.185  14.690  1.00  0.00     0.137 C 
BRANCH   5   6
HETATM    6  C   UNL     1     -45.358 -54.164  13.656  1.00  0.00     0.217 C 
HETATM    7  O   UNL     1     -45.008 -54.185  12.482  1.00  0.00    -0.274 OA
HETATM    8  N   UNL     1     -46.299 -55.038  14.115  1.00  0.00    -0.370 N 
HETATM    9  H   UNL     1     -46.680 -55.001  15.050  1.00  0.00     0.159 HD
HETATM   10  H   UNL     1     -46.681 -55.703  13.457  1.00  0.00     0.159 HD
ENDBRANCH   5   6
ENDBRANCH   3   5
ENDBRANCH   1   3
BRANCH   1  11
HETATM   11  C   UNL     1     -43.208 -51.010  12.991  1.00  0.00     0.291 C 
BRANCH  11  12
HETATM   12  C   UNL     1     -42.235 -51.938  12.261  1.00  0.00     0.178 C 
BRANCH  12  13
HETATM   13  N   UNL     1     -40.906 -51.357  12.195  1.00  0.00    -0.302 N 
HETATM   14  C   UNL     1     -39.872 -51.573  13.058  1.00  0.00     0.118 A 
HETATM   15  C   UNL     1     -38.816 -50.819  12.593  1.00  0.00    -0.028 A 
HETATM   16  C   UNL     1     -37.455 -50.701  13.158  1.00  0.00     0.051 C 
HETATM   17  C   UNL     1     -39.330 -50.178  11.443  1.00  0.00     0.115 A 
HETATM   18  N   UNL     1     -40.597 -50.514  11.193  1.00  0.00    -0.310 N 
ATOM     19  HN  UNL     1     -41.191 -50.204  10.423  1.00  0.00     0.186 HD
ENDBRANCH  12  13
ENDBRANCH  11  12
ENDBRANCH   1  11
TORSDOF 6
ENDMDL
MODEL 8
REMARK VINA RESULT:      -4.7      3.128      3.600
REMARK  6 active torsions:
REMARK  status: ('A' for Active; 'I' for Inactive)
REMARK    1  A    between atoms: C_2  and  C_3 
REMARK    2  A    between atoms: C_2  and  N_7 
REMARK    3  A    between atoms: C_3  and  C_4 
REMARK       I    between atoms: C_4  and  N_6 
REMARK    4  A    between atoms: N_7  and  C_8 
REMARK    5  A    between atoms: C_8  and  C_9 
REMARK    6  A    between atoms: C_9  and  N_10 
ROOT
HETATM    1  N   UNL     1     -41.808 -49.590  11.433  1.00  0.00     0.089 N 
HETATM    2  H   UNL     1     -41.565 -49.902  10.490  1.00  0.00     0.316 HD
ENDROOT
BRANCH   1   3
HETATM    3  C   UNL     1     -41.196 -48.263  11.671  1.00  0.00     0.225 C 
HETATM    4  C   UNL     1     -39.674 -48.364  11.841  1.00  0.00     0.043 C 
BRANCH   3   5
HETATM    5  C   UNL     1     -41.556 -47.353  10.484  1.00  0.00     0.137 C 
BRANCH   5   6
HETATM    6  C   UNL     1     -42.890 -47.721   9.868  1.00  0.00     0.217 C 
HETATM    7  O   UNL     1     -43.962 -47.689  10.458  1.00  0.00    -0.274 OA
HETATM    8  N   UNL     1     -42.825 -48.139   8.571  1.00  0.00    -0.370 N 
HETATM    9  H   UNL     1     -41.955 -48.264   8.072  1.00  0.00     0.159 HD
HETATM   10  H   UNL     1     -43.689 -48.406   8.121  1.00  0.00     0.159 HD
ENDBRANCH   5   6
ENDBRANCH   3   5
ENDBRANCH   1   3
BRANCH   1  11
HETATM   11  C   UNL     1     -41.383 -50.635  12.382  1.00  0.00     0.291 C 
BRANCH  11  12
HETATM   12  C   UNL     1     -41.320 -52.049  11.799  1.00  0.00     0.178 C 
BRANCH  12  13
HETATM   13  N   UNL     1     -42.247 -52.937  12.477  1.00  0.00    -0.302 N 
HETATM   14  C   UNL     1     -42.016 -53.649  13.617  1.00  0.00     0.118 A 
HETATM   15  C   UNL     1     -43.180 -54.338  13.885  1.00  0.00    -0.028 A 
HETATM   16  C   UNL     1     -43.466 -55.251  15.012  1.00  0.00     0.051 C 
HETATM   17  C   UNL     1     -44.046 -53.974  12.830  1.00  0.00     0.115 A 
HETATM   18  N   UNL     1     -43.485 -53.112  11.980  1.00  0.00    -0.310 N 
ATOM     19  HN  UNL     1     -43.898 -52.687  11.150  1.00  0.00     0.186 HD
ENDBRANCH  12  13
ENDBRANCH  11  12
ENDBRANCH   1  11
TORSDOF 6
ENDMDL
MODEL 9
REMARK VINA RESULT:      -4.6      2.808      6.807
REMARK  6 active torsions:
REMARK  status: ('A' for Active; 'I' for Inactive)
REMARK    1  A    between atoms: C_2  and  C_3 
REMARK    2  A    between atoms: C_2  and  N_7 
REMARK    3  A    between atoms: C_3  and  C_4 
REMARK       I    between atoms: C_4  and  N_6 
REMARK    4  A    between atoms: N_7  and  C_8 
REMARK    5  A    between atoms: C_8  and  C_9 
REMARK    6  A    between atoms: C_9  and  N_10 
ROOT
HETATM    1  N   UNL     1     -42.827 -52.959  13.975  1.00  0.00     0.089 N 
HETATM    2  H   UNL     1     -42.134 -52.505  14.574  1.00  0.00     0.316 HD
ENDROOT
BRANCH   1   3
HETATM    3  C   UNL     1     -42.904 -54.394  14.333  1.00  0.00     0.225 C 
HETATM    4  C   UNL     1     -41.795 -54.790  15.318  1.00  0.00     0.043 C 
BRANCH   3   5
HETATM    5  C   UNL     1     -44.294 -54.660  14.936  1.00  0.00     0.137 C 
BRANCH   5   6
HETATM    6  C   UNL     1     -45.374 -54.719  13.876  1.00  0.00     0.217 C 
HETATM    7  O   UNL     1     -45.181 -54.571  12.676  1.00  0.00    -0.274 OA
HETATM    8  N   UNL     1     -46.634 -54.923  14.356  1.00  0.00    -0.370 N 
HETATM    9  H   UNL     1     -46.852 -54.965  15.342  1.00  0.00     0.159 HD
HETATM   10  H   UNL     1     -47.390 -54.959  13.686  1.00  0.00     0.159 HD
ENDBRANCH   5   6
ENDBRANCH   3   5
ENDBRANCH   1   3
BRANCH   1  11
HETATM   11  C   UNL     1     -42.455 -52.701  12.572  1.00  0.00     0.291 C 
BRANCH  11  12
HETATM   12  C   UNL     1     -40.970 -52.890  12.254  1.00  0.00     0.178 C 
BRANCH  12  13
HETATM   13  N   UNL     1     -40.289 -51.612  12.155  1.00  0.00    -0.302 N 
HETATM   14  C   UNL     1     -39.268 -51.163  12.942  1.00  0.00     0.118 A 
HETATM   15  C   UNL     1     -38.942 -49.909  12.473  1.00  0.00    -0.028 A 
HETATM   16  C   UNL     1     -37.896 -48.989  12.967  1.00  0.00     0.051 C 
HETATM   17  C   UNL     1     -39.840 -49.697  11.403  1.00  0.00     0.115 A 
HETATM   18  N   UNL     1     -40.652 -50.736  11.200  1.00  0.00    -0.310 N 
ATOM     19  HN  UNL     1     -41.375 -50.841  10.490  1.00  0.00     0.186 HD
ENDBRANCH  12  13
ENDBRANCH  11  12
ENDBRANCH   1  11
TORSDOF 6
ENDMDL
