MODEL 1
REMARK VINA RESULT:      -5.6      0.000      0.000
REMARK  5 active torsions:
REMARK  status: ('A' for Active; 'I' for Inactive)
REMARK    1  A    between atoms: N_2  and  C_4 
REMARK    2  A    between atoms: C_7  and  N_8 
REMARK       I    between atoms: N_8  and  C_9 
REMARK       I    between atoms: C_9  and  N_11 
REMARK    3  A    between atoms: N_11  and  C_12 
REMARK    4  A    between atoms: N_15  and  C_16 
REMARK    5  A    between atoms: C_16  and  C_17 
ROOT
HETATM    1  N   UNL     1     -43.087 -49.277  12.111  1.00  0.00    -0.308 N 
HETATM    2  C   UNL     1     -42.356 -50.448  12.163  1.00  0.00     0.321 C 
HETATM    3  O   UNL     1     -41.206 -50.571  11.761  1.00  0.00    -0.247 OA
HETATM    4  N   UNL     1     -43.088 -51.498  12.682  1.00  0.00    -0.338 N 
HETATM    5  H   UNL     1     -44.082 -49.395  12.013  1.00  0.00     0.170 HD
HETATM    6  H   UNL     1     -44.011 -51.315  13.047  1.00  0.00     0.164 HD
ENDROOT
BRANCH   1   7
HETATM    7  C   UNL     1     -42.545 -48.058  11.636  1.00  0.00     0.051 A 
HETATM    8  C   UNL     1     -41.999 -47.164  12.548  1.00  0.00     0.034 A 
HETATM    9  C   UNL     1     -41.452 -45.962  12.091  1.00  0.00     0.044 A 
HETATM   10  C   UNL     1     -41.373 -45.699  10.723  1.00  0.00     0.081 A 
HETATM   11  N   UNL     1     -41.887 -46.569   9.825  1.00  0.00    -0.354 N 
HETATM   12  C   UNL     1     -42.488 -47.701  10.295  1.00  0.00     0.119 A 
ATOM     13  HN  UNL     1     -41.827 -46.385   8.824  1.00  0.00     0.166 HD
BRANCH  10  14
HETATM   14  N   UNL     1     -40.677 -44.545  10.299  1.00  0.00    -0.278 NA
HETATM   15  C   UNL     1     -40.789 -43.434  11.239  1.00  0.00     0.118 C 
HETATM   16  C   UNL     1     -39.320 -44.840   9.845  1.00  0.00     0.118 C 
ENDBRANCH  10  14
ENDBRANCH   1   7
BRANCH   4  17
HETATM   17  C   UNL     1     -42.592 -52.879  12.665  1.00  0.00     0.089 C 
HETATM   18  C   UNL     1     -43.719 -53.896  12.850  1.00  0.00     0.055 C 
HETATM   19  C   UNL     1     -44.222 -53.951  14.294  1.00  0.00     0.275 C 
HETATM   20  N   UNL     1     -43.183 -54.124  15.319  1.00  0.00     0.092 N 
HETATM   21  C   UNL     1     -42.042 -53.223  15.128  1.00  0.00     0.275 C 
HETATM   22  C   UNL     1     -41.499 -53.137  13.702  1.00  0.00     0.055 C 
BRANCH  20  23
HETATM   23  C   UNL     1     -42.785 -55.515  15.559  1.00  0.00     0.305 C 
BRANCH  23  24
HETATM   24  C   UNL     1     -42.222 -55.742  16.950  1.00  0.00    -0.065 C 
HETATM   25  C   UNL     1     -41.071 -56.403  17.157  1.00  0.00     0.015 C 
HETATM   26  C   UNL     1     -42.992 -55.184  18.118  1.00  0.00     0.044 C 
ENDBRANCH  23  24
ENDBRANCH  20  23
ENDBRANCH   4  17
TORSDOF 5
ENDMDL
MODEL 2
REMARK VINA RESULT:      -5.5      1.949      2.515
REMARK  5 active torsions:
REMARK  status: ('A' for Active; 'I' for Inactive)
REMARK    1  A    between atoms: N_2  and  C_4 
REMARK    2  A    between atoms: C_7  and  N_8 
REMARK       I    between atoms: N_8  and  C_9 
REMARK       I    between atoms: C_9  and  N_11 
REMARK    3  A    between atoms: N_11  and  C_12 
REMARK    4  A    between atoms: N_15  and  C_16 
REMARK    5  A    between atoms: C_16  and  C_17 
ROOT
HETATM    1  N   UNL     1     -40.981 -50.224  13.054  1.00  0.00    -0.308 N 
HETATM    2  C   UNL     1     -40.990 -51.557  12.691  1.00  0.00     0.321 C 
HETATM    3  O   UNL     1     -41.357 -51.981  11.603  1.00  0.00    -0.247 OA
HETATM    4  N   UNL     1     -40.579 -52.381  13.719  1.00  0.00    -0.338 N 
HETATM    5  H   UNL     1     -41.123 -50.044  14.034  1.00  0.00     0.170 HD
HETATM    6  H   UNL     1     -40.235 -51.963  14.572  1.00  0.00     0.164 HD
ENDROOT
BRANCH   1   7
HETATM    7  C   UNL     1     -41.343 -49.187  12.161  1.00  0.00     0.051 A 
HETATM    8  C   UNL     1     -42.666 -48.768  12.117  1.00  0.00     0.034 A 
HETATM    9  C   UNL     1     -43.035 -47.739  11.246  1.00  0.00     0.044 A 
HETATM   10  C   UNL     1     -42.068 -47.076  10.490  1.00  0.00     0.081 A 
HETATM   11  N   UNL     1     -40.774 -47.465  10.536  1.00  0.00    -0.354 N 
HETATM   12  C   UNL     1     -40.446 -48.523  11.333  1.00  0.00     0.119 A 
ATOM     13  HN  UNL     1     -40.062 -46.981   9.989  1.00  0.00     0.166 HD
BRANCH  10  14
HETATM   14  N   UNL     1     -42.460 -45.945   9.740  1.00  0.00    -0.278 NA
HETATM   15  C   UNL     1     -43.516 -46.237   8.775  1.00  0.00     0.118 C 
HETATM   16  C   UNL     1     -42.689 -44.767  10.574  1.00  0.00     0.118 C 
ENDBRANCH  10  14
ENDBRANCH   1   7
BRANCH   4  17
HETATM   17  C   UNL     1     -40.681 -53.843  13.638  1.00  0.00     0.089 C 
HETATM   18  C   UNL     1     -42.009 -54.358  14.194  1.00  0.00     0.055 C 
HETATM   19  C   UNL     1     -42.060 -54.305  15.722  1.00  0.00     0.275 C 
HETATM   20  N   UNL     1     -40.923 -54.927  16.415  1.00  0.00     0.092 N 
HETATM   21  C   UNL     1     -39.629 -54.524  15.856  1.00  0.00     0.275 C 
HETATM   22  C   UNL     1     -39.526 -54.565  14.331  1.00  0.00     0.055 C 
BRANCH  20  23
HETATM   23  C   UNL     1     -41.041 -56.375  16.607  1.00  0.00     0.305 C 
BRANCH  23  24
HETATM   24  C   UNL     1     -40.236 -56.888  17.788  1.00  0.00    -0.065 C 
HETATM   25  C   UNL     1     -39.373 -57.911  17.675  1.00  0.00     0.015 C 
HETATM   26  C   UNL     1     -40.419 -56.197  19.114  1.00  0.00     0.044 C 
ENDBRANCH  23  24
ENDBRANCH  20  23
ENDBRANCH   4  17
TORSDOF 5
ENDMDL
MODEL 3
REMARK VINA RESULT:      -5.4      1.445      1.617
REMARK  5 active torsions:
REMARK  status: ('A' for Active; 'I' for Inactive)
REMARK    1  A    between atoms: N_2  and  C_4 
REMARK    2  A    between atoms: C_7  and  N_8 
REMARK       I    between atoms: N_8  and  C_9 
REMARK       I    between atoms: C_9  and  N_11 
REMARK    3  A    between atoms: N_11  and  C_12 
REMARK    4  A    between atoms: N_15  and  C_16 
REMARK    5  A    between atoms: C_16  and  C_17 
ROOT
HETATM    1  N   UNL     1     -42.435 -49.692  11.773  1.00  0.00    -0.308 N 
HETATM    2  C   UNL     1     -41.330 -50.461  12.084  1.00  0.00     0.321 C 
HETATM    3  O   UNL     1     -40.172 -50.065  12.045  1.00  0.00    -0.247 OA
HETATM    4  N   UNL     1     -41.670 -51.760  12.403  1.00  0.00    -0.338 N 
HETATM    5  H   UNL     1     -43.217 -50.198  11.391  1.00  0.00     0.170 HD
HETATM    6  H   UNL     1     -42.647 -52.005  12.472  1.00  0.00     0.164 HD
ENDROOT
BRANCH   1   7
HETATM    7  C   UNL     1     -42.340 -48.321  11.434  1.00  0.00     0.051 A 
HETATM    8  C   UNL     1     -42.521 -47.367  12.427  1.00  0.00     0.034 A 
HETATM    9  C   UNL     1     -42.421 -46.010  12.106  1.00  0.00     0.044 A 
HETATM   10  C   UNL     1     -42.054 -45.616  10.819  1.00  0.00     0.081 A 
HETATM   11  N   UNL     1     -41.860 -46.537   9.848  1.00  0.00    -0.354 N 
HETATM   12  C   UNL     1     -42.040 -47.853  10.161  1.00  0.00     0.119 A 
ATOM     13  HN  UNL     1     -41.588 -46.254   8.907  1.00  0.00     0.166 HD
BRANCH  10  14
HETATM   14  N   UNL     1     -41.816 -44.245  10.579  1.00  0.00    -0.278 NA
HETATM   15  C   UNL     1     -42.922 -43.391  11.002  1.00  0.00     0.118 C 
HETATM   16  C   UNL     1     -40.493 -43.815  11.024  1.00  0.00     0.118 C 
ENDBRANCH  10  14
ENDBRANCH   1   7
BRANCH   4  17
HETATM   17  C   UNL     1     -40.661 -52.810  12.587  1.00  0.00     0.089 C 
HETATM   18  C   UNL     1     -41.295 -54.180  12.833  1.00  0.00     0.055 C 
HETATM   19  C   UNL     1     -41.878 -54.306  14.242  1.00  0.00     0.275 C 
HETATM   20  N   UNL     1     -40.969 -53.942  15.338  1.00  0.00     0.092 N 
HETATM   21  C   UNL     1     -40.275 -52.673  15.101  1.00  0.00     0.275 C 
HETATM   22  C   UNL     1     -39.670 -52.500  13.707  1.00  0.00     0.055 C 
BRANCH  20  23
HETATM   23  C   UNL     1     -40.071 -55.018  15.770  1.00  0.00     0.305 C 
BRANCH  23  24
HETATM   24  C   UNL     1     -40.569 -55.750  17.004  1.00  0.00    -0.065 C 
HETATM   25  C   UNL     1     -40.681 -57.088  17.045  1.00  0.00     0.015 C 
HETATM   26  C   UNL     1     -40.927 -54.925  18.212  1.00  0.00     0.044 C 
ENDBRANCH  23  24
ENDBRANCH  20  23
ENDBRANCH   4  17
TORSDOF 5
ENDMDL
MODEL 4
REMARK VINA RESULT:      -5.4      1.557      2.038
REMARK  5 active torsions:
REMARK  status: ('A' for Active; 'I' for Inactive)
REMARK    1  A    between atoms: N_2  and  C_4 
REMARK    2  A    between atoms: C_7  and  N_8 
REMARK       I    between atoms: N_8  and  C_9 
REMARK       I    between atoms: C_9  and  N_11 
REMARK    3  A    between atoms: N_11  and  C_12 
REMARK    4  A    between atoms: N_15  and  C_16 
REMARK    5  A    between atoms: C_16  and  C_17 
ROOT
HETATM    1  N   UNL     1     -41.963 -49.352  11.394  1.00  0.00    -0.308 N 
HETATM    2  C   UNL     1     -42.709 -50.000  12.360  1.00  0.00     0.321 C 
HETATM    3  O   UNL     1     -43.404 -49.439  13.198  1.00  0.00    -0.247 OA
HETATM    4  N   UNL     1     -42.548 -51.371  12.312  1.00  0.00    -0.338 N 
HETATM    5  H   UNL     1     -41.124 -49.828  11.107  1.00  0.00     0.170 HD
HETATM    6  H   UNL     1     -42.006 -51.772  11.561  1.00  0.00     0.164 HD
ENDROOT
BRANCH   1   7
HETATM    7  C   UNL     1     -41.980 -47.946  11.232  1.00  0.00     0.051 A 
HETATM    8  C   UNL     1     -41.038 -47.180  11.906  1.00  0.00     0.034 A 
HETATM    9  C   UNL     1     -41.038 -45.791  11.748  1.00  0.00     0.044 A 
HETATM   10  C   UNL     1     -41.919 -45.184  10.853  1.00  0.00     0.081 A 
HETATM   11  N   UNL     1     -42.831 -45.922  10.180  1.00  0.00    -0.354 N 
HETATM   12  C   UNL     1     -42.867 -47.267  10.407  1.00  0.00     0.119 A 
ATOM     13  HN  UNL     1     -43.473 -45.484   9.520  1.00  0.00     0.166 HD
BRANCH  10  14
HETATM   14  N   UNL     1     -41.783 -43.800  10.610  1.00  0.00    -0.278 NA
HETATM   15  C   UNL     1     -42.966 -43.034  10.992  1.00  0.00     0.118 C 
HETATM   16  C   UNL     1     -40.513 -43.264  11.095  1.00  0.00     0.118 C 
ENDBRANCH  10  14
ENDBRANCH   1   7
BRANCH   4  17
HETATM   17  C   UNL     1     -43.088 -52.258  13.349  1.00  0.00     0.089 C 
HETATM   18  C   UNL     1     -42.513 -51.944  14.731  1.00  0.00     0.055 C 
HETATM   19  C   UNL     1     -41.068 -52.423  14.883  1.00  0.00     0.275 C 
HETATM   20  N   UNL     1     -40.826 -53.826  14.519  1.00  0.00     0.092 N 
HETATM   21  C   UNL     1     -41.435 -54.192  13.236  1.00  0.00     0.275 C 
HETATM   22  C   UNL     1     -42.882 -53.739  13.038  1.00  0.00     0.055 C 
BRANCH  20  23
HETATM   23  C   UNL     1     -41.105 -54.792  15.586  1.00  0.00     0.305 C 
BRANCH  23  24
HETATM   24  C   UNL     1     -39.870 -55.548  16.043  1.00  0.00    -0.065 C 
HETATM   25  C   UNL     1     -38.636 -55.221  15.625  1.00  0.00     0.015 C 
HETATM   26  C   UNL     1     -40.063 -56.688  17.008  1.00  0.00     0.044 C 
ENDBRANCH  23  24
ENDBRANCH  20  23
ENDBRANCH   4  17
TORSDOF 5
ENDMDL
MODEL 5
REMARK VINA RESULT:      -5.1      1.869      9.639
REMARK  5 active torsions:
REMARK  status: ('A' for Active; 'I' for Inactive)
REMARK    1  A    between atoms: N_2  and  C_4 
REMARK    2  A    between atoms: C_7  and  N_8 
REMARK       I    between atoms: N_8  and  C_9 
REMARK       I    between atoms: C_9  and  N_11 
REMARK    3  A    between atoms: N_11  and  C_12 
REMARK    4  A    between atoms: N_15  and  C_16 
REMARK    5  A    between atoms: C_16  and  C_17 
ROOT
HETATM    1  N   UNL     1     -40.795 -49.373  12.404  1.00  0.00    -0.308 N 
HETATM    2  C   UNL     1     -41.460 -48.412  11.667  1.00  0.00     0.321 C 
HETATM    3  O   UNL     1     -42.559 -48.567  11.149  1.00  0.00    -0.247 OA
HETATM    4  N   UNL     1     -40.723 -47.253  11.533  1.00  0.00    -0.338 N 
HETATM    5  H   UNL     1     -39.790 -49.326  12.364  1.00  0.00     0.170 HD
HETATM    6  H   UNL     1     -39.849 -47.170  12.032  1.00  0.00     0.164 HD
ENDROOT
BRANCH   1   7
HETATM    7  C   UNL     1     -41.358 -50.639  12.694  1.00  0.00     0.051 A 
HETATM    8  C   UNL     1     -42.126 -50.787  13.842  1.00  0.00     0.034 A 
HETATM    9  C   UNL     1     -42.695 -52.029  14.135  1.00  0.00     0.044 A 
HETATM   10  C   UNL     1     -42.570 -53.091  13.238  1.00  0.00     0.081 A 
HETATM   11  N   UNL     1     -41.837 -52.954  12.110  1.00  0.00    -0.354 N 
HETATM   12  C   UNL     1     -41.224 -51.756  11.880  1.00  0.00     0.119 A 
ATOM     13  HN  UNL     1     -41.746 -53.724  11.449  1.00  0.00     0.166 HD
BRANCH  10  14
HETATM   14  N   UNL     1     -43.286 -54.279  13.499  1.00  0.00    -0.278 NA
HETATM   15  C   UNL     1     -42.993 -54.846  14.812  1.00  0.00     0.118 C 
HETATM   16  C   UNL     1     -44.706 -54.165  13.175  1.00  0.00     0.118 C 
ENDBRANCH  10  14
ENDBRANCH   1   7
BRANCH   4  17
HETATM   17  C   UNL     1     -41.136 -46.162  10.641  1.00  0.00     0.089 C 
HETATM   18  C   UNL     1     -39.976 -45.227  10.302  1.00  0.00     0.055 C 
HETATM   19  C   UNL     1     -39.605 -44.311  11.470  1.00  0.00     0.275 C 
HETATM   20  N   UNL     1     -40.721 -43.568  12.071  1.00  0.00     0.092 N 
HETATM   21  C   UNL     1     -41.888 -44.415  12.335  1.00  0.00     0.275 C 
HETATM   22  C   UNL     1     -42.303 -45.345  11.195  1.00  0.00     0.055 C 
BRANCH  20  23
HETATM   23  C   UNL     1     -41.060 -42.316  11.388  1.00  0.00     0.305 C 
BRANCH  23  24
HETATM   24  C   UNL     1     -40.646 -41.081  12.168  1.00  0.00    -0.065 C 
HETATM   25  C   UNL     1     -40.899 -39.838  11.727  1.00  0.00     0.015 C 
HETATM   26  C   UNL     1     -39.945 -41.286  13.486  1.00  0.00     0.044 C 
ENDBRANCH  23  24
ENDBRANCH  20  23
ENDBRANCH   4  17
TORSDOF 5
ENDMDL
MODEL 6
REMARK VINA RESULT:      -5.1      2.380      9.536
REMARK  5 active torsions:
REMARK  status: ('A' for Active; 'I' for Inactive)
REMARK    1  A    between atoms: N_2  and  C_4 
REMARK    2  A    between atoms: C_7  and  N_8 
REMARK       I    between atoms: N_8  and  C_9 
REMARK       I    between atoms: C_9  and  N_11 
REMARK    3  A    between atoms: N_11  and  C_12 
REMARK    4  A    between atoms: N_15  and  C_16 
REMARK    5  A    between atoms: C_16  and  C_17 
ROOT
HETATM    1  N   UNL     1     -43.222 -49.658  12.618  1.00  0.00    -0.308 N 
HETATM    2  C   UNL     1     -42.043 -49.020  12.951  1.00  0.00     0.321 C 
HETATM    3  O   UNL     1     -41.273 -49.391  13.828  1.00  0.00    -0.247 OA
HETATM    4  N   UNL     1     -41.843 -47.871  12.211  1.00  0.00    -0.338 N 
HETATM    5  H   UNL     1     -43.952 -49.059  12.268  1.00  0.00     0.170 HD
HETATM    6  H   UNL     1     -42.488 -47.653  11.465  1.00  0.00     0.164 HD
ENDROOT
BRANCH   1   7
HETATM    7  C   UNL     1     -43.634 -50.868  13.227  1.00  0.00     0.051 A 
HETATM    8  C   UNL     1     -44.588 -50.822  14.236  1.00  0.00     0.034 A 
HETATM    9  C   UNL     1     -45.010 -52.010  14.839  1.00  0.00     0.044 A 
HETATM   10  C   UNL     1     -44.545 -53.240  14.374  1.00  0.00     0.081 A 
HETATM   11  N   UNL     1     -43.628 -53.297  13.382  1.00  0.00    -0.354 N 
HETATM   12  C   UNL     1     -43.169 -52.123  12.859  1.00  0.00     0.119 A 
ATOM     13  HN  UNL     1     -43.288 -54.194  13.035  1.00  0.00     0.166 HD
BRANCH  10  14
HETATM   14  N   UNL     1     -45.111 -54.418  14.908  1.00  0.00    -0.278 NA
HETATM   15  C   UNL     1     -46.049 -54.159  15.996  1.00  0.00     0.118 C 
HETATM   16  C   UNL     1     -45.596 -55.331  13.875  1.00  0.00     0.118 C 
ENDBRANCH  10  14
ENDBRANCH   1   7
BRANCH   4  17
HETATM   17  C   UNL     1     -40.761 -46.927  12.511  1.00  0.00     0.089 C 
HETATM   18  C   UNL     1     -41.266 -45.691  13.256  1.00  0.00     0.055 C 
HETATM   19  C   UNL     1     -42.032 -44.732  12.341  1.00  0.00     0.275 C 
HETATM   20  N   UNL     1     -41.340 -44.353  11.102  1.00  0.00     0.092 N 
HETATM   21  C   UNL     1     -40.765 -45.504  10.398  1.00  0.00     0.275 C 
HETATM   22  C   UNL     1     -39.985 -46.490  11.269  1.00  0.00     0.055 C 
BRANCH  20  23
HETATM   23  C   UNL     1     -40.400 -43.236  11.243  1.00  0.00     0.305 C 
BRANCH  23  24
HETATM   24  C   UNL     1     -41.063 -41.956  11.721  1.00  0.00    -0.065 C 
HETATM   25  C   UNL     1     -41.983 -41.310  10.985  1.00  0.00     0.015 C 
HETATM   26  C   UNL     1     -40.669 -41.425  13.074  1.00  0.00     0.044 C 
ENDBRANCH  23  24
ENDBRANCH  20  23
ENDBRANCH   4  17
TORSDOF 5
ENDMDL
MODEL 7
REMARK VINA RESULT:      -5.1      2.771      4.544
REMARK  5 active torsions:
REMARK  status: ('A' for Active; 'I' for Inactive)
REMARK    1  A    between atoms: N_2  and  C_4 
REMARK    2  A    between atoms: C_7  and  N_8 
REMARK       I    between atoms: N_8  and  C_9 
REMARK       I    between atoms: C_9  and  N_11 
REMARK    3  A    between atoms: N_11  and  C_12 
REMARK    4  A    between atoms: N_15  and  C_16 
REMARK    5  A    between atoms: C_16  and  C_17 
ROOT
HETATM    1  N   UNL     1     -40.664 -45.606  12.832  1.00  0.00    -0.308 N 
HETATM    2  C   UNL     1     -40.174 -46.526  11.925  1.00  0.00     0.321 C 
HETATM    3  O   UNL     1     -40.035 -46.317  10.726  1.00  0.00    -0.247 OA
HETATM    4  N   UNL     1     -39.895 -47.743  12.514  1.00  0.00    -0.338 N 
HETATM    5  H   UNL     1     -41.159 -45.998  13.616  1.00  0.00     0.170 HD
HETATM    6  H   UNL     1     -39.978 -47.830  13.516  1.00  0.00     0.164 HD
ENDROOT
BRANCH   1   7
HETATM    7  C   UNL     1     -41.003 -44.281  12.467  1.00  0.00     0.051 A 
HETATM    8  C   UNL     1     -40.037 -43.288  12.568  1.00  0.00     0.034 A 
HETATM    9  C   UNL     1     -40.356 -41.976  12.204  1.00  0.00     0.044 A 
HETATM   10  C   UNL     1     -41.605 -41.681  11.658  1.00  0.00     0.081 A 
HETATM   11  N   UNL     1     -42.548 -42.643  11.541  1.00  0.00    -0.354 N 
HETATM   12  C   UNL     1     -42.245 -43.901  11.975  1.00  0.00     0.119 A 
ATOM     13  HN  UNL     1     -43.462 -42.434  11.138  1.00  0.00     0.166 HD
BRANCH  10  14
HETATM   14  N   UNL     1     -41.832 -40.378  11.163  1.00  0.00    -0.278 NA
HETATM   15  C   UNL     1     -43.195 -39.910  11.390  1.00  0.00     0.118 C 
HETATM   16  C   UNL     1     -40.780 -39.439  11.545  1.00  0.00     0.118 C 
ENDBRANCH  10  14
ENDBRANCH   1   7
BRANCH   4  17
HETATM   17  C   UNL     1     -39.541 -48.930  11.726  1.00  0.00     0.089 C 
HETATM   18  C   UNL     1     -40.771 -49.602  11.116  1.00  0.00     0.055 C 
HETATM   19  C   UNL     1     -41.591 -50.370  12.155  1.00  0.00     0.275 C 
HETATM   20  N   UNL     1     -40.833 -51.315  12.985  1.00  0.00     0.092 N 
HETATM   21  C   UNL     1     -39.599 -50.734  13.523  1.00  0.00     0.275 C 
HETATM   22  C   UNL     1     -38.741 -49.960  12.521  1.00  0.00     0.055 C 
BRANCH  20  23
HETATM   23  C   UNL     1     -40.632 -52.636  12.381  1.00  0.00     0.305 C 
BRANCH  23  24
HETATM   24  C   UNL     1     -40.793 -53.775  13.372  1.00  0.00    -0.065 C 
HETATM   25  C   UNL     1     -39.738 -54.411  13.909  1.00  0.00     0.015 C 
HETATM   26  C   UNL     1     -42.193 -54.173  13.762  1.00  0.00     0.044 C 
ENDBRANCH  23  24
ENDBRANCH  20  23
ENDBRANCH   4  17
TORSDOF 5
ENDMDL
MODEL 8
REMARK VINA RESULT:      -5.0      4.684      5.856
REMARK  5 active torsions:
REMARK  status: ('A' for Active; 'I' for Inactive)
REMARK    1  A    between atoms: N_2  and  C_4 
REMARK    2  A    between atoms: C_7  and  N_8 
REMARK       I    between atoms: N_8  and  C_9 
REMARK       I    between atoms: C_9  and  N_11 
REMARK    3  A    between atoms: N_11  and  C_12 
REMARK    4  A    between atoms: N_15  and  C_16 
REMARK    5  A    between atoms: C_16  and  C_17 
ROOT
HETATM    1  N   UNL     1     -40.816 -47.444  13.154  1.00  0.00    -0.308 N 
HETATM    2  C   UNL     1     -39.514 -47.867  12.969  1.00  0.00     0.321 C 
HETATM    3  O   UNL     1     -39.051 -48.255  11.904  1.00  0.00    -0.247 OA
HETATM    4  N   UNL     1     -38.788 -47.850  14.143  1.00  0.00    -0.338 N 
HETATM    5  H   UNL     1     -41.195 -47.606  14.072  1.00  0.00     0.170 HD
HETATM    6  H   UNL     1     -39.213 -47.464  14.974  1.00  0.00     0.164 HD
ENDROOT
BRANCH   1   7
HETATM    7  C   UNL     1     -41.748 -47.356  12.091  1.00  0.00     0.051 A 
HETATM    8  C   UNL     1     -41.653 -46.296  11.199  1.00  0.00     0.034 A 
HETATM    9  C   UNL     1     -42.561 -46.202  10.141  1.00  0.00     0.044 A 
HETATM   10  C   UNL     1     -43.501 -47.211   9.928  1.00  0.00     0.081 A 
HETATM   11  N   UNL     1     -43.593 -48.256  10.781  1.00  0.00    -0.354 N 
HETATM   12  C   UNL     1     -42.749 -48.289  11.853  1.00  0.00     0.119 A 
ATOM     13  HN  UNL     1     -44.275 -48.998  10.628  1.00  0.00     0.166 HD
BRANCH  10  14
HETATM   14  N   UNL     1     -44.296 -47.153   8.762  1.00  0.00    -0.278 NA
HETATM   15  C   UNL     1     -43.740 -47.922   7.653  1.00  0.00     0.118 C 
HETATM   16  C   UNL     1     -45.712 -47.389   9.033  1.00  0.00     0.118 C 
ENDBRANCH  10  14
ENDBRANCH   1   7
BRANCH   4  17
HETATM   17  C   UNL     1     -37.442 -48.428  14.239  1.00  0.00     0.089 C 
HETATM   18  C   UNL     1     -37.479 -49.950  14.376  1.00  0.00     0.055 C 
HETATM   19  C   UNL     1     -37.918 -50.399  15.771  1.00  0.00     0.275 C 
HETATM   20  N   UNL     1     -37.187 -49.788  16.890  1.00  0.00     0.092 N 
HETATM   21  C   UNL     1     -37.055 -48.334  16.755  1.00  0.00     0.275 C 
HETATM   22  C   UNL     1     -36.615 -47.835  15.378  1.00  0.00     0.055 C 
BRANCH  20  23
HETATM   23  C   UNL     1     -35.925 -50.451  17.233  1.00  0.00     0.305 C 
BRANCH  23  24
HETATM   24  C   UNL     1     -36.018 -51.296  18.491  1.00  0.00    -0.065 C 
HETATM   25  C   UNL     1     -37.011 -51.142  19.384  1.00  0.00     0.015 C 
HETATM   26  C   UNL     1     -34.959 -52.343  18.713  1.00  0.00     0.044 C 
ENDBRANCH  23  24
ENDBRANCH  20  23
ENDBRANCH   4  17
TORSDOF 5
ENDMDL
MODEL 9
REMARK VINA RESULT:      -5.0     15.162     17.057
REMARK  5 active torsions:
REMARK  status: ('A' for Active; 'I' for Inactive)
REMARK    1  A    between atoms: N_2  and  C_4 
REMARK    2  A    between atoms: C_7  and  N_8 
REMARK       I    between atoms: N_8  and  C_9 
REMARK       I    between atoms: C_9  and  N_11 
REMARK    3  A    between atoms: N_11  and  C_12 
REMARK    4  A    between atoms: N_15  and  C_16 
REMARK    5  A    between atoms: C_16  and  C_17 
ROOT
HETATM    1  N   UNL     1     -51.360 -49.400  -0.513  1.00  0.00    -0.308 N 
HETATM    2  C   UNL     1     -50.919 -50.660  -0.157  1.00  0.00     0.321 C 
HETATM    3  O   UNL     1     -50.026 -50.884   0.650  1.00  0.00    -0.247 OA
HETATM    4  N   UNL     1     -51.571 -51.658  -0.853  1.00  0.00    -0.338 N 
HETATM    5  H   UNL     1     -51.712 -49.317  -1.453  1.00  0.00     0.170 HD
HETATM    6  H   UNL     1     -52.337 -51.408  -1.462  1.00  0.00     0.164 HD
ENDROOT
BRANCH   1   7
HETATM    7  C   UNL     1     -50.856 -48.218   0.081  1.00  0.00     0.051 A 
HETATM    8  C   UNL     1     -51.473 -47.722   1.222  1.00  0.00     0.034 A 
HETATM    9  C   UNL     1     -50.979 -46.560   1.823  1.00  0.00     0.044 A 
HETATM   10  C   UNL     1     -49.821 -45.953   1.335  1.00  0.00     0.081 A 
HETATM   11  N   UNL     1     -49.203 -46.436   0.234  1.00  0.00    -0.354 N 
HETATM   12  C   UNL     1     -49.746 -47.525  -0.385  1.00  0.00     0.119 A 
ATOM     13  HN  UNL     1     -48.354 -45.999  -0.124  1.00  0.00     0.166 HD
BRANCH  10  14
HETATM   14  N   UNL     1     -49.271 -44.874   2.062  1.00  0.00    -0.278 NA
HETATM   15  C   UNL     1     -48.595 -43.899   1.212  1.00  0.00     0.118 C 
HETATM   16  C   UNL     1     -50.208 -44.310   3.030  1.00  0.00     0.118 C 
ENDBRANCH  10  14
ENDBRANCH   1   7
BRANCH   4  17
HETATM   17  C   UNL     1     -51.148 -53.062  -0.786  1.00  0.00     0.089 C 
HETATM   18  C   UNL     1     -50.316 -53.471  -2.002  1.00  0.00     0.055 C 
HETATM   19  C   UNL     1     -51.171 -53.648  -3.259  1.00  0.00     0.275 C 
HETATM   20  N   UNL     1     -52.345 -54.518  -3.108  1.00  0.00     0.092 N 
HETATM   21  C   UNL     1     -53.126 -54.214  -1.905  1.00  0.00     0.275 C 
HETATM   22  C   UNL     1     -52.317 -54.032  -0.620  1.00  0.00     0.055 C 
BRANCH  20  23
HETATM   23  C   UNL     1     -52.071 -55.949  -3.270  1.00  0.00     0.305 C 
BRANCH  23  24
HETATM   24  C   UNL     1     -53.321 -56.769  -3.534  1.00  0.00    -0.065 C 
HETATM   25  C   UNL     1     -53.573 -57.918  -2.886  1.00  0.00     0.015 C 
HETATM   26  C   UNL     1     -54.301 -56.245  -4.551  1.00  0.00     0.044 C 
ENDBRANCH  23  24
ENDBRANCH  20  23
ENDBRANCH   4  17
TORSDOF 5
ENDMDL
