MODEL 1
REMARK VINA RESULT:      -6.3      0.000      0.000
REMARK  4 active torsions:
REMARK  status: ('A' for Active; 'I' for Inactive)
REMARK    1  A    between atoms: C_2  and  N_5 
REMARK       I    between atoms: N_5  and  C_6 
REMARK    2  A    between atoms: C_6  and  C_8 
REMARK    3  A    between atoms: C_8  and  C_9 
REMARK    4  A    between atoms: C_12  and  N_15 
ROOT
HETATM    1  C   UNL     1     -42.746 -49.412  12.563  1.00  0.00     0.026 A 
HETATM    2  C   UNL     1     -41.717 -50.183  12.053  1.00  0.00     0.078 A 
HETATM    3  S   UNL     1     -41.991 -51.834  12.430  1.00  0.00    -0.064 SA
HETATM    4  C   UNL     1     -43.446 -51.413  13.238  1.00  0.00     0.155 A 
HETATM    5  N   UNL     1     -43.697 -50.125  13.272  1.00  0.00    -0.339 N 
ATOM      6  HN  UNL     1     -44.490 -49.704  13.757  1.00  0.00     0.168 HD
ENDROOT
BRANCH   1   7
HETATM    7  C   UNL     1     -42.953 -47.947  12.391  1.00  0.00     0.160 C 
BRANCH   7   8
HETATM    8  C   UNL     1     -43.139 -47.511  10.948  1.00  0.00     0.223 C 
HETATM    9  N   UNL     1     -44.398 -47.687  10.420  1.00  0.00    -0.353 N 
HETATM   10  H   UNL     1     -45.102 -48.117  11.028  1.00  0.00     0.163 HD
HETATM   11  O   UNL     1     -42.180 -47.095  10.298  1.00  0.00    -0.273 OA
BRANCH   9  12
HETATM   12  C   UNL     1     -44.797 -47.363   9.045  1.00  0.00     0.022 C 
HETATM   13  C   UNL     1     -46.155 -47.999   8.710  1.00  0.00     0.037 C 
HETATM   14  C   UNL     1     -43.730 -47.830   8.041  1.00  0.00     0.037 C 
HETATM   15  C   UNL     1     -44.932 -45.834   8.924  1.00  0.00     0.037 C 
ENDBRANCH   9  12
ENDBRANCH   7   8
ENDBRANCH   1   7
BRANCH   4  16
HETATM   16  N   UNL     1     -44.274 -52.419  13.731  1.00  0.00    -0.280 N 
HETATM   17  C   UNL     1     -43.854 -53.432  14.689  1.00  0.00     0.137 C 
HETATM   18  C   UNL     1     -44.319 -54.804  14.240  1.00  0.00     0.040 C 
HETATM   19  C   UNL     1     -45.826 -54.765  14.151  1.00  0.00     0.126 C 
HETATM   20  N   UNL     1     -46.278 -53.599  13.437  1.00  0.00    -0.343 N 
HETATM   21  C   UNL     1     -45.571 -52.445  13.226  1.00  0.00     0.324 C 
HETATM   22  H   UNL     1     -47.226 -53.562  13.083  1.00  0.00     0.164 HD
HETATM   23  O   UNL     1     -46.146 -51.539  12.621  1.00  0.00    -0.247 OA
ENDBRANCH   4  16
TORSDOF 4
ENDMDL
MODEL 2
REMARK VINA RESULT:      -6.2      1.522      2.013
REMARK  4 active torsions:
REMARK  status: ('A' for Active; 'I' for Inactive)
REMARK    1  A    between atoms: C_2  and  N_5 
REMARK       I    between atoms: N_5  and  C_6 
REMARK    2  A    between atoms: C_6  and  C_8 
REMARK    3  A    between atoms: C_8  and  C_9 
REMARK    4  A    between atoms: C_12  and  N_15 
ROOT
HETATM    1  C   UNL     1     -42.245 -49.686  12.890  1.00  0.00     0.026 A 
HETATM    2  C   UNL     1     -41.599 -50.101  14.040  1.00  0.00     0.078 A 
HETATM    3  S   UNL     1     -42.627 -51.138  14.939  1.00  0.00    -0.064 SA
HETATM    4  C   UNL     1     -43.850 -50.964  13.749  1.00  0.00     0.155 A 
HETATM    5  N   UNL     1     -43.542 -50.152  12.764  1.00  0.00    -0.339 N 
ATOM      6  HN  UNL     1     -44.175 -49.897  12.006  1.00  0.00     0.168 HD
ENDROOT
BRANCH   1   7
HETATM    7  C   UNL     1     -41.689 -48.854  11.786  1.00  0.00     0.160 C 
BRANCH   7   8
HETATM    8  C   UNL     1     -42.724 -48.008  11.064  1.00  0.00     0.223 C 
HETATM    9  N   UNL     1     -42.823 -48.203   9.705  1.00  0.00    -0.353 N 
HETATM   10  H   UNL     1     -42.180 -48.879   9.283  1.00  0.00     0.163 HD
HETATM   11  O   UNL     1     -43.370 -47.161  11.680  1.00  0.00    -0.273 OA
BRANCH   9  12
HETATM   12  C   UNL     1     -43.732 -47.480   8.807  1.00  0.00     0.022 C 
HETATM   13  C   UNL     1     -43.407 -45.978   8.800  1.00  0.00     0.037 C 
HETATM   14  C   UNL     1     -45.197 -47.704   9.215  1.00  0.00     0.037 C 
HETATM   15  C   UNL     1     -43.543 -48.026   7.380  1.00  0.00     0.037 C 
ENDBRANCH   9  12
ENDBRANCH   7   8
ENDBRANCH   1   7
BRANCH   4  16
HETATM   16  N   UNL     1     -45.021 -51.711  13.852  1.00  0.00    -0.280 N 
HETATM   17  C   UNL     1     -46.170 -51.328  14.663  1.00  0.00     0.137 C 
HETATM   18  C   UNL     1     -46.659 -52.515  15.472  1.00  0.00     0.040 C 
HETATM   19  C   UNL     1     -47.050 -53.598  14.496  1.00  0.00     0.126 C 
HETATM   20  N   UNL     1     -46.028 -53.798  13.499  1.00  0.00    -0.343 N 
HETATM   21  C   UNL     1     -45.045 -52.912  13.148  1.00  0.00     0.324 C 
HETATM   22  H   UNL     1     -46.030 -54.643  12.940  1.00  0.00     0.164 HD
HETATM   23  O   UNL     1     -44.284 -53.251  12.242  1.00  0.00    -0.247 OA
ENDBRANCH   4  16
TORSDOF 4
ENDMDL
MODEL 3
REMARK VINA RESULT:      -5.9      1.851      2.178
REMARK  4 active torsions:
REMARK  status: ('A' for Active; 'I' for Inactive)
REMARK    1  A    between atoms: C_2  and  N_5 
REMARK       I    between atoms: N_5  and  C_6 
REMARK    2  A    between atoms: C_6  and  C_8 
REMARK    3  A    between atoms: C_8  and  C_9 
REMARK    4  A    between atoms: C_12  and  N_15 
ROOT
HETATM    1  C   UNL     1     -41.130 -50.145  11.961  1.00  0.00     0.026 A 
HETATM    2  C   UNL     1     -40.370 -51.240  12.331  1.00  0.00     0.078 A 
HETATM    3  S   UNL     1     -41.358 -52.380  13.148  1.00  0.00    -0.064 SA
HETATM    4  C   UNL     1     -42.715 -51.348  12.955  1.00  0.00     0.155 A 
HETATM    5  N   UNL     1     -42.452 -50.205  12.364  1.00  0.00    -0.339 N 
ATOM      6  HN  UNL     1     -43.133 -49.459  12.221  1.00  0.00     0.168 HD
ENDROOT
BRANCH   1   7
HETATM    7  C   UNL     1     -40.694 -48.968  11.158  1.00  0.00     0.160 C 
BRANCH   7   8
HETATM    8  C   UNL     1     -41.824 -48.033  10.764  1.00  0.00     0.223 C 
HETATM    9  N   UNL     1     -42.379 -48.244   9.522  1.00  0.00    -0.353 N 
HETATM   10  H   UNL     1     -41.975 -48.994   8.952  1.00  0.00     0.163 HD
HETATM   11  O   UNL     1     -42.152 -47.109  11.508  1.00  0.00    -0.273 OA
BRANCH   9  12
HETATM   12  C   UNL     1     -43.459 -47.448   8.927  1.00  0.00     0.022 C 
HETATM   13  C   UNL     1     -43.773 -47.937   7.504  1.00  0.00     0.037 C 
HETATM   14  C   UNL     1     -43.093 -45.956   8.907  1.00  0.00     0.037 C 
HETATM   15  C   UNL     1     -44.723 -47.619   9.790  1.00  0.00     0.037 C 
ENDBRANCH   9  12
ENDBRANCH   7   8
ENDBRANCH   1   7
BRANCH   4  16
HETATM   16  N   UNL     1     -43.974 -51.786  13.357  1.00  0.00    -0.280 N 
HETATM   17  C   UNL     1     -44.730 -52.836  12.688  1.00  0.00     0.137 C 
HETATM   18  C   UNL     1     -46.170 -52.401  12.490  1.00  0.00     0.040 C 
HETATM   19  C   UNL     1     -46.753 -52.132  13.857  1.00  0.00     0.126 C 
HETATM   20  N   UNL     1     -45.872 -51.312  14.649  1.00  0.00    -0.343 N 
HETATM   21  C   UNL     1     -44.528 -51.132  14.454  1.00  0.00     0.324 C 
HETATM   22  H   UNL     1     -46.227 -50.847  15.476  1.00  0.00     0.164 HD
HETATM   23  O   UNL     1     -43.936 -50.419  15.265  1.00  0.00    -0.247 OA
ENDBRANCH   4  16
TORSDOF 4
ENDMDL
MODEL 4
REMARK VINA RESULT:      -5.9      2.452      6.558
REMARK  4 active torsions:
REMARK  status: ('A' for Active; 'I' for Inactive)
REMARK    1  A    between atoms: C_2  and  N_5 
REMARK       I    between atoms: N_5  and  C_6 
REMARK    2  A    between atoms: C_6  and  C_8 
REMARK    3  A    between atoms: C_8  and  C_9 
REMARK    4  A    between atoms: C_12  and  N_15 
ROOT
HETATM    1  C   UNL     1     -41.194 -50.897  12.142  1.00  0.00     0.026 A 
HETATM    2  C   UNL     1     -40.212 -50.553  13.052  1.00  0.00     0.078 A 
HETATM    3  S   UNL     1     -39.900 -48.869  12.957  1.00  0.00    -0.064 SA
HETATM    4  C   UNL     1     -41.083 -48.716  11.723  1.00  0.00     0.155 A 
HETATM    5  N   UNL     1     -41.646 -49.846  11.364  1.00  0.00    -0.339 N 
ATOM      6  HN  UNL     1     -42.328 -49.938  10.611  1.00  0.00     0.168 HD
ENDROOT
BRANCH   1   7
HETATM    7  C   UNL     1     -41.829 -52.232  11.954  1.00  0.00     0.160 C 
BRANCH   7   8
HETATM    8  C   UNL     1     -43.006 -52.496  12.877  1.00  0.00     0.223 C 
HETATM    9  N   UNL     1     -44.246 -52.150  12.390  1.00  0.00    -0.353 N 
HETATM   10  H   UNL     1     -44.279 -51.722  11.460  1.00  0.00     0.163 HD
HETATM   11  O   UNL     1     -42.817 -52.930  14.013  1.00  0.00    -0.273 OA
BRANCH   9  12
HETATM   12  C   UNL     1     -45.514 -52.291  13.116  1.00  0.00     0.022 C 
HETATM   13  C   UNL     1     -45.566 -51.324  14.310  1.00  0.00     0.037 C 
HETATM   14  C   UNL     1     -45.712 -53.738  13.597  1.00  0.00     0.037 C 
HETATM   15  C   UNL     1     -46.667 -51.942  12.157  1.00  0.00     0.037 C 
ENDBRANCH   9  12
ENDBRANCH   7   8
ENDBRANCH   1   7
BRANCH   4  16
HETATM   16  N   UNL     1     -41.412 -47.452  11.241  1.00  0.00    -0.280 N 
HETATM   17  C   UNL     1     -40.437 -46.444  10.844  1.00  0.00     0.137 C 
HETATM   18  C   UNL     1     -40.808 -45.096  11.432  1.00  0.00     0.040 C 
HETATM   19  C   UNL     1     -42.175 -44.732  10.904  1.00  0.00     0.126 C 
HETATM   20  N   UNL     1     -43.095 -45.833  11.032  1.00  0.00    -0.343 N 
HETATM   21  C   UNL     1     -42.771 -47.156  11.179  1.00  0.00     0.324 C 
HETATM   22  H   UNL     1     -44.091 -45.667  10.957  1.00  0.00     0.164 HD
HETATM   23  O   UNL     1     -43.704 -47.957  11.233  1.00  0.00    -0.247 OA
ENDBRANCH   4  16
TORSDOF 4
ENDMDL
MODEL 5
REMARK VINA RESULT:      -5.8      4.333      5.915
REMARK  4 active torsions:
REMARK  status: ('A' for Active; 'I' for Inactive)
REMARK    1  A    between atoms: C_2  and  N_5 
REMARK       I    between atoms: N_5  and  C_6 
REMARK    2  A    between atoms: C_6  and  C_8 
REMARK    3  A    between atoms: C_8  and  C_9 
REMARK    4  A    between atoms: C_12  and  N_15 
ROOT
HETATM    1  C   UNL     1     -41.291 -53.934  14.939  1.00  0.00     0.026 A 
HETATM    2  C   UNL     1     -41.967 -54.750  15.828  1.00  0.00     0.078 A 
HETATM    3  S   UNL     1     -43.645 -54.398  15.775  1.00  0.00    -0.064 SA
HETATM    4  C   UNL     1     -43.359 -53.196  14.584  1.00  0.00     0.155 A 
HETATM    5  N   UNL     1     -42.095 -53.025  14.273  1.00  0.00    -0.339 N 
ATOM      6  HN  UNL     1     -41.750 -52.317  13.626  1.00  0.00     0.168 HD
ENDROOT
BRANCH   1   7
HETATM    7  C   UNL     1     -39.840 -53.964  14.603  1.00  0.00     0.160 C 
BRANCH   7   8
HETATM    8  C   UNL     1     -39.365 -52.769  13.795  1.00  0.00     0.223 C 
HETATM    9  N   UNL     1     -38.590 -51.852  14.469  1.00  0.00    -0.353 N 
HETATM   10  H   UNL     1     -38.414 -52.032  15.463  1.00  0.00     0.163 HD
HETATM   11  O   UNL     1     -39.728 -52.626  12.628  1.00  0.00    -0.273 OA
BRANCH   9  12
HETATM   12  C   UNL     1     -38.046 -50.615  13.897  1.00  0.00     0.022 C 
HETATM   13  C   UNL     1     -39.174 -49.617  13.592  1.00  0.00     0.037 C 
HETATM   14  C   UNL     1     -37.238 -50.909  12.623  1.00  0.00     0.037 C 
HETATM   15  C   UNL     1     -37.097 -49.976  14.929  1.00  0.00     0.037 C 
ENDBRANCH   9  12
ENDBRANCH   7   8
ENDBRANCH   1   7
BRANCH   4  16
HETATM   16  N   UNL     1     -44.438 -52.544  13.993  1.00  0.00    -0.280 N 
HETATM   17  C   UNL     1     -45.014 -51.298  14.481  1.00  0.00     0.137 C 
HETATM   18  C   UNL     1     -46.526 -51.400  14.523  1.00  0.00     0.040 C 
HETATM   19  C   UNL     1     -47.000 -51.674  13.115  1.00  0.00     0.126 C 
HETATM   20  N   UNL     1     -46.240 -52.734  12.504  1.00  0.00    -0.343 N 
HETATM   21  C   UNL     1     -44.999 -53.173  12.884  1.00  0.00     0.324 C 
HETATM   22  H   UNL     1     -46.595 -53.194  11.675  1.00  0.00     0.164 HD
HETATM   23  O   UNL     1     -44.492 -54.070  12.209  1.00  0.00    -0.247 OA
ENDBRANCH   4  16
TORSDOF 4
ENDMDL
MODEL 6
REMARK VINA RESULT:      -5.6      2.177      6.414
REMARK  4 active torsions:
REMARK  status: ('A' for Active; 'I' for Inactive)
REMARK    1  A    between atoms: C_2  and  N_5 
REMARK       I    between atoms: N_5  and  C_6 
REMARK    2  A    between atoms: C_6  and  C_8 
REMARK    3  A    between atoms: C_8  and  C_9 
REMARK    4  A    between atoms: C_12  and  N_15 
ROOT
HETATM    1  C   UNL     1     -42.081 -52.558  13.310  1.00  0.00     0.026 A 
HETATM    2  C   UNL     1     -41.186 -52.191  14.298  1.00  0.00     0.078 A 
HETATM    3  S   UNL     1     -40.707 -50.560  14.068  1.00  0.00    -0.064 SA
HETATM    4  C   UNL     1     -41.714 -50.456  12.682  1.00  0.00     0.155 A 
HETATM    5  N   UNL     1     -42.335 -51.571  12.374  1.00  0.00    -0.339 N 
ATOM      6  HN  UNL     1     -42.927 -51.694  11.552  1.00  0.00     0.168 HD
ENDROOT
BRANCH   1   7
HETATM    7  C   UNL     1     -42.812 -53.850  13.182  1.00  0.00     0.160 C 
BRANCH   7   8
HETATM    8  C   UNL     1     -44.324 -53.712  13.205  1.00  0.00     0.223 C 
HETATM    9  N   UNL     1     -44.829 -52.706  13.998  1.00  0.00    -0.353 N 
HETATM   10  H   UNL     1     -44.153 -52.147  14.527  1.00  0.00     0.163 HD
HETATM   11  O   UNL     1     -45.029 -54.515  12.593  1.00  0.00    -0.273 OA
BRANCH   9  12
HETATM   12  C   UNL     1     -46.253 -52.409  14.191  1.00  0.00     0.022 C 
HETATM   13  C   UNL     1     -46.440 -51.316  15.255  1.00  0.00     0.037 C 
HETATM   14  C   UNL     1     -47.028 -53.675  14.589  1.00  0.00     0.037 C 
HETATM   15  C   UNL     1     -46.829 -51.894  12.859  1.00  0.00     0.037 C 
ENDBRANCH   9  12
ENDBRANCH   7   8
ENDBRANCH   1   7
BRANCH   4  16
HETATM   16  N   UNL     1     -41.862 -49.234  12.031  1.00  0.00    -0.280 N 
HETATM   17  C   UNL     1     -42.882 -48.246  12.359  1.00  0.00     0.137 C 
HETATM   18  C   UNL     1     -43.547 -47.739  11.094  1.00  0.00     0.040 C 
HETATM   19  C   UNL     1     -42.473 -47.112  10.238  1.00  0.00     0.126 C 
HETATM   20  N   UNL     1     -41.320 -47.969  10.132  1.00  0.00    -0.343 N 
HETATM   21  C   UNL     1     -40.981 -48.990  10.981  1.00  0.00     0.324 C 
HETATM   22  H   UNL     1     -40.636 -47.804   9.404  1.00  0.00     0.164 HD
HETATM   23  O   UNL     1     -39.930 -49.587  10.745  1.00  0.00    -0.247 OA
ENDBRANCH   4  16
TORSDOF 4
ENDMDL
MODEL 7
REMARK VINA RESULT:      -5.5      4.162      7.694
REMARK  4 active torsions:
REMARK  status: ('A' for Active; 'I' for Inactive)
REMARK    1  A    between atoms: C_2  and  N_5 
REMARK       I    between atoms: N_5  and  C_6 
REMARK    2  A    between atoms: C_6  and  C_8 
REMARK    3  A    between atoms: C_8  and  C_9 
REMARK    4  A    between atoms: C_12  and  N_15 
ROOT
HETATM    1  C   UNL     1     -40.723 -53.283  13.162  1.00  0.00     0.026 A 
HETATM    2  C   UNL     1     -40.403 -52.036  12.658  1.00  0.00     0.078 A 
HETATM    3  S   UNL     1     -41.832 -51.111  12.453  1.00  0.00    -0.064 SA
HETATM    4  C   UNL     1     -42.770 -52.421  13.045  1.00  0.00     0.155 A 
HETATM    5  N   UNL     1     -42.079 -53.499  13.334  1.00  0.00    -0.339 N 
ATOM      6  HN  UNL     1     -42.488 -54.381  13.644  1.00  0.00     0.168 HD
ENDROOT
BRANCH   1   7
HETATM    7  C   UNL     1     -39.784 -54.366  13.571  1.00  0.00     0.160 C 
BRANCH   7   8
HETATM    8  C   UNL     1     -39.797 -54.669  15.059  1.00  0.00     0.223 C 
HETATM    9  N   UNL     1     -38.618 -55.141  15.590  1.00  0.00    -0.353 N 
HETATM   10  H   UNL     1     -37.835 -55.274  14.943  1.00  0.00     0.163 HD
HETATM   11  O   UNL     1     -40.838 -54.554  15.705  1.00  0.00    -0.273 OA
BRANCH   9  12
HETATM   12  C   UNL     1     -38.410 -55.523  16.992  1.00  0.00     0.022 C 
HETATM   13  C   UNL     1     -38.836 -54.384  17.933  1.00  0.00     0.037 C 
HETATM   14  C   UNL     1     -36.941 -55.899  17.245  1.00  0.00     0.037 C 
HETATM   15  C   UNL     1     -39.280 -56.756  17.296  1.00  0.00     0.037 C 
ENDBRANCH   9  12
ENDBRANCH   7   8
ENDBRANCH   1   7
BRANCH   4  16
HETATM   16  N   UNL     1     -44.139 -52.253  13.239  1.00  0.00    -0.280 N 
HETATM   17  C   UNL     1     -44.755 -51.027  13.728  1.00  0.00     0.137 C 
HETATM   18  C   UNL     1     -45.766 -51.345  14.813  1.00  0.00     0.040 C 
HETATM   19  C   UNL     1     -46.814 -52.246  14.204  1.00  0.00     0.126 C 
HETATM   20  N   UNL     1     -46.211 -53.325  13.465  1.00  0.00    -0.343 N 
HETATM   21  C   UNL     1     -44.935 -53.363  12.970  1.00  0.00     0.324 C 
HETATM   22  H   UNL     1     -46.766 -54.136  13.218  1.00  0.00     0.164 HD
HETATM   23  O   UNL     1     -44.614 -54.364  12.328  1.00  0.00    -0.247 OA
ENDBRANCH   4  16
TORSDOF 4
ENDMDL
MODEL 8
REMARK VINA RESULT:      -5.5      2.915      6.319
REMARK  4 active torsions:
REMARK  status: ('A' for Active; 'I' for Inactive)
REMARK    1  A    between atoms: C_2  and  N_5 
REMARK       I    between atoms: N_5  and  C_6 
REMARK    2  A    between atoms: C_6  and  C_8 
REMARK    3  A    between atoms: C_8  and  C_9 
REMARK    4  A    between atoms: C_12  and  N_15 
ROOT
HETATM    1  C   UNL     1     -41.810 -53.183  13.505  1.00  0.00     0.026 A 
HETATM    2  C   UNL     1     -40.798 -53.005  14.431  1.00  0.00     0.078 A 
HETATM    3  S   UNL     1     -39.995 -51.519  14.131  1.00  0.00    -0.064 SA
HETATM    4  C   UNL     1     -41.040 -51.218  12.803  1.00  0.00     0.155 A 
HETATM    5  N   UNL     1     -41.904 -52.176  12.560  1.00  0.00    -0.339 N 
ATOM      6  HN  UNL     1     -42.558 -52.180  11.777  1.00  0.00     0.168 HD
ENDROOT
BRANCH   1   7
HETATM    7  C   UNL     1     -42.808 -54.288  13.453  1.00  0.00     0.160 C 
BRANCH   7   8
HETATM    8  C   UNL     1     -44.247 -53.820  13.334  1.00  0.00     0.223 C 
HETATM    9  N   UNL     1     -44.644 -52.849  14.226  1.00  0.00    -0.353 N 
HETATM   10  H   UNL     1     -43.951 -52.536  14.913  1.00  0.00     0.163 HD
HETATM   11  O   UNL     1     -45.006 -54.349  12.522  1.00  0.00    -0.273 OA
BRANCH   9  12
HETATM   12  C   UNL     1     -45.990 -52.270  14.310  1.00  0.00     0.022 C 
HETATM   13  C   UNL     1     -47.018 -53.342  14.705  1.00  0.00     0.037 C 
HETATM   14  C   UNL     1     -46.390 -51.618  12.977  1.00  0.00     0.037 C 
HETATM   15  C   UNL     1     -45.985 -51.178  15.395  1.00  0.00     0.037 C 
ENDBRANCH   9  12
ENDBRANCH   7   8
ENDBRANCH   1   7
BRANCH   4  16
HETATM   16  N   UNL     1     -40.962 -50.001  12.130  1.00  0.00    -0.280 N 
HETATM   17  C   UNL     1     -39.778 -49.525  11.428  1.00  0.00     0.137 C 
HETATM   18  C   UNL     1     -39.503 -48.077  11.785  1.00  0.00     0.040 C 
HETATM   19  C   UNL     1     -40.711 -47.271  11.372  1.00  0.00     0.126 C 
HETATM   20  N   UNL     1     -41.932 -47.888  11.824  1.00  0.00    -0.343 N 
HETATM   21  C   UNL     1     -42.100 -49.199  12.183  1.00  0.00     0.324 C 
HETATM   22  H   UNL     1     -42.789 -47.350  11.844  1.00  0.00     0.164 HD
HETATM   23  O   UNL     1     -43.235 -49.549  12.508  1.00  0.00    -0.247 OA
ENDBRANCH   4  16
TORSDOF 4
ENDMDL
MODEL 9
REMARK VINA RESULT:      -5.4      3.858      7.389
REMARK  4 active torsions:
REMARK  status: ('A' for Active; 'I' for Inactive)
REMARK    1  A    between atoms: C_2  and  N_5 
REMARK       I    between atoms: N_5  and  C_6 
REMARK    2  A    between atoms: C_6  and  C_8 
REMARK    3  A    between atoms: C_8  and  C_9 
REMARK    4  A    between atoms: C_12  and  N_15 
ROOT
HETATM    1  C   UNL     1     -38.827 -49.041  14.175  1.00  0.00     0.026 A 
HETATM    2  C   UNL     1     -39.067 -47.887  14.898  1.00  0.00     0.078 A 
HETATM    3  S   UNL     1     -40.005 -46.801  13.959  1.00  0.00    -0.064 SA
HETATM    4  C   UNL     1     -40.026 -47.930  12.667  1.00  0.00     0.155 A 
HETATM    5  N   UNL     1     -39.343 -49.028  12.891  1.00  0.00    -0.339 N 
ATOM      6  HN  UNL     1     -39.210 -49.775  12.209  1.00  0.00     0.168 HD
ENDROOT
BRANCH   1   7
HETATM    7  C   UNL     1     -38.132 -50.275  14.639  1.00  0.00     0.160 C 
BRANCH   7   8
HETATM    8  C   UNL     1     -38.589 -51.544  13.941  1.00  0.00     0.223 C 
HETATM    9  N   UNL     1     -39.634 -52.217  14.532  1.00  0.00    -0.353 N 
HETATM   10  H   UNL     1     -40.005 -51.828  15.404  1.00  0.00     0.163 HD
HETATM   11  O   UNL     1     -37.991 -51.953  12.946  1.00  0.00    -0.273 OA
BRANCH   9  12
HETATM   12  C   UNL     1     -40.218 -53.473  14.047  1.00  0.00     0.022 C 
HETATM   13  C   UNL     1     -39.165 -54.593  14.038  1.00  0.00     0.037 C 
HETATM   14  C   UNL     1     -40.814 -53.294  12.642  1.00  0.00     0.037 C 
HETATM   15  C   UNL     1     -41.355 -53.882  15.001  1.00  0.00     0.037 C 
ENDBRANCH   9  12
ENDBRANCH   7   8
ENDBRANCH   1   7
BRANCH   4  16
HETATM   16  N   UNL     1     -40.787 -47.660  11.532  1.00  0.00    -0.280 N 
HETATM   17  C   UNL     1     -40.712 -46.421  10.769  1.00  0.00     0.137 C 
HETATM   18  C   UNL     1     -42.107 -45.908  10.466  1.00  0.00     0.040 C 
HETATM   19  C   UNL     1     -42.817 -46.971   9.662  1.00  0.00     0.126 C 
HETATM   20  N   UNL     1     -42.660 -48.272  10.262  1.00  0.00    -0.343 N 
HETATM   21  C   UNL     1     -41.689 -48.650  11.151  1.00  0.00     0.324 C 
HETATM   22  H   UNL     1     -43.273 -49.029   9.986  1.00  0.00     0.164 HD
HETATM   23  O   UNL     1     -41.698 -49.823  11.524  1.00  0.00    -0.247 OA
ENDBRANCH   4  16
TORSDOF 4
ENDMDL
