MODEL 1
REMARK VINA RESULT:      -5.5      0.000      0.000
REMARK  7 active torsions:
REMARK  status: ('A' for Active; 'I' for Inactive)
REMARK    1  A    between atoms: C_2  and  C_3 
REMARK       I    between atoms: C_2  and  N_11 
REMARK    2  A    between atoms: C_3  and  C_4 
REMARK    3  A    between atoms: N_11  and  C_12 
REMARK    4  A    between atoms: C_12  and  C_13 
REMARK    5  A    between atoms: C_13  and  C_14 
REMARK    6  A    between atoms: C_14  and  C_15 
REMARK    7  A    between atoms: C_15  and  C_16 
ROOT
HETATM    1  O   UNL     1     -40.365 -53.458  12.573  1.00  0.00    -0.273 OA
HETATM    2  C   UNL     1     -40.992 -52.658  13.262  1.00  0.00     0.221 C 
HETATM    3  N   UNL     1     -42.209 -52.945  13.840  1.00  0.00    -0.361 N 
HETATM    4  H   UNL     1     -42.592 -52.301  14.521  1.00  0.00     0.162 HD
ENDROOT
BRANCH   3   5
HETATM    5  C   UNL     1     -42.813 -54.259  13.741  1.00  0.00     0.122 C 
BRANCH   5   6
HETATM    6  C   UNL     1     -44.208 -54.219  13.112  1.00  0.00     0.020 C 
BRANCH   6   7
HETATM    7  C   UNL     1     -44.609 -52.857  12.530  1.00  0.00     0.002 C 
BRANCH   7   8
HETATM    8  C   UNL     1     -46.099 -52.547  12.699  1.00  0.00     0.005 C 
BRANCH   8   9
HETATM    9  C   UNL     1     -46.390 -51.600  13.865  1.00  0.00    -0.014 C 
HETATM   10  C   UNL     1     -45.104 -50.990  14.443  1.00  0.00     0.004 C 
HETATM   11  C   UNL     1     -45.330 -50.856  15.949  1.00  0.00     0.000 C 
HETATM   12  C   UNL     1     -46.762 -51.305  16.202  1.00  0.00     0.000 C 
HETATM   13  C   UNL     1     -47.050 -52.273  15.067  1.00  0.00     0.004 C 
ENDBRANCH   8   9
ENDBRANCH   7   8
ENDBRANCH   6   7
ENDBRANCH   5   6
ENDBRANCH   3   5
BRANCH   2  14
HETATM   14  C   UNL     1     -40.478 -51.259  13.552  1.00  0.00     0.142 C 
BRANCH  14  15
HETATM   15  C   UNL     1     -40.997 -50.221  12.595  1.00  0.00    -0.034 A 
HETATM   16  C   UNL     1     -42.110 -49.433  12.907  1.00  0.00     0.010 A 
HETATM   17  C   UNL     1     -42.599 -48.525  11.971  1.00  0.00     0.018 A 
HETATM   18  C   UNL     1     -41.958 -48.433  10.749  1.00  0.00     0.087 A 
HETATM   19  N   UNL     1     -40.878 -49.169  10.412  1.00  0.00    -0.375 N 
HETATM   20  C   UNL     1     -40.423 -50.045  11.338  1.00  0.00     0.095 A 
ATOM     21  HN  UNL     1     -40.426 -49.071   9.503  1.00  0.00     0.164 HD
ENDBRANCH  14  15
ENDBRANCH   2  14
TORSDOF 7
ENDMDL
MODEL 2
REMARK VINA RESULT:      -5.3      1.389      2.128
REMARK  7 active torsions:
REMARK  status: ('A' for Active; 'I' for Inactive)
REMARK    1  A    between atoms: C_2  and  C_3 
REMARK       I    between atoms: C_2  and  N_11 
REMARK    2  A    between atoms: C_3  and  C_4 
REMARK    3  A    between atoms: N_11  and  C_12 
REMARK    4  A    between atoms: C_12  and  C_13 
REMARK    5  A    between atoms: C_13  and  C_14 
REMARK    6  A    between atoms: C_14  and  C_15 
REMARK    7  A    between atoms: C_15  and  C_16 
ROOT
HETATM    1  O   UNL     1     -40.798 -53.501  12.650  1.00  0.00    -0.273 OA
HETATM    2  C   UNL     1     -41.285 -52.752  13.493  1.00  0.00     0.221 C 
HETATM    3  N   UNL     1     -42.467 -53.015  14.150  1.00  0.00    -0.361 N 
HETATM    4  H   UNL     1     -42.727 -52.439  14.941  1.00  0.00     0.162 HD
ENDROOT
BRANCH   3   5
HETATM    5  C   UNL     1     -43.196 -54.251  13.948  1.00  0.00     0.122 C 
BRANCH   5   6
HETATM    6  C   UNL     1     -44.267 -54.131  12.860  1.00  0.00     0.020 C 
BRANCH   6   7
HETATM    7  C   UNL     1     -44.774 -52.704  12.616  1.00  0.00     0.002 C 
BRANCH   7   8
HETATM    8  C   UNL     1     -46.263 -52.534  12.929  1.00  0.00     0.005 C 
BRANCH   8   9
HETATM    9  C   UNL     1     -46.529 -51.568  14.087  1.00  0.00    -0.014 C 
HETATM   10  C   UNL     1     -45.233 -50.943  14.622  1.00  0.00     0.004 C 
HETATM   11  C   UNL     1     -45.423 -50.785  16.131  1.00  0.00     0.000 C 
HETATM   12  C   UNL     1     -46.845 -51.236  16.427  1.00  0.00     0.000 C 
HETATM   13  C   UNL     1     -47.156 -52.225  15.316  1.00  0.00     0.004 C 
ENDBRANCH   8   9
ENDBRANCH   7   8
ENDBRANCH   6   7
ENDBRANCH   5   6
ENDBRANCH   3   5
BRANCH   2  14
HETATM   14  C   UNL     1     -40.620 -51.450  13.902  1.00  0.00     0.142 C 
BRANCH  14  15
HETATM   15  C   UNL     1     -39.520 -51.021  12.970  1.00  0.00    -0.034 A 
HETATM   16  C   UNL     1     -38.176 -51.274  13.262  1.00  0.00     0.010 A 
HETATM   17  C   UNL     1     -37.182 -50.808  12.406  1.00  0.00     0.018 A 
HETATM   18  C   UNL     1     -37.564 -50.100  11.281  1.00  0.00     0.087 A 
HETATM   19  N   UNL     1     -38.849 -49.841  10.960  1.00  0.00    -0.375 N 
HETATM   20  C   UNL     1     -39.796 -50.304  11.809  1.00  0.00     0.095 A 
ATOM     21  HN  UNL     1     -39.096 -49.320  10.118  1.00  0.00     0.164 HD
ENDBRANCH  14  15
ENDBRANCH   2  14
TORSDOF 7
ENDMDL
MODEL 3
REMARK VINA RESULT:      -5.2      1.692      2.624
REMARK  7 active torsions:
REMARK  status: ('A' for Active; 'I' for Inactive)
REMARK    1  A    between atoms: C_2  and  C_3 
REMARK       I    between atoms: C_2  and  N_11 
REMARK    2  A    between atoms: C_3  and  C_4 
REMARK    3  A    between atoms: N_11  and  C_12 
REMARK    4  A    between atoms: C_12  and  C_13 
REMARK    5  A    between atoms: C_13  and  C_14 
REMARK    6  A    between atoms: C_14  and  C_15 
REMARK    7  A    between atoms: C_15  and  C_16 
ROOT
HETATM    1  O   UNL     1     -41.218 -50.170  13.557  1.00  0.00    -0.273 OA
HETATM    2  C   UNL     1     -42.129 -50.374  12.760  1.00  0.00     0.221 C 
HETATM    3  N   UNL     1     -42.280 -51.553  12.064  1.00  0.00    -0.361 N 
HETATM    4  H   UNL     1     -43.136 -51.712  11.548  1.00  0.00     0.162 HD
ENDROOT
BRANCH   3   5
HETATM    5  C   UNL     1     -41.404 -52.687  12.282  1.00  0.00     0.122 C 
BRANCH   5   6
HETATM    6  C   UNL     1     -41.949 -53.658  13.333  1.00  0.00     0.020 C 
BRANCH   6   7
HETATM    7  C   UNL     1     -43.346 -54.215  13.026  1.00  0.00     0.002 C 
BRANCH   7   8
HETATM    8  C   UNL     1     -44.252 -54.276  14.258  1.00  0.00     0.005 C 
BRANCH   8   9
HETATM    9  C   UNL     1     -45.538 -53.460  14.103  1.00  0.00    -0.014 C 
HETATM   10  C   UNL     1     -45.672 -52.865  12.693  1.00  0.00     0.004 C 
HETATM   11  C   UNL     1     -46.345 -51.503  12.863  1.00  0.00     0.000 C 
HETATM   12  C   UNL     1     -46.663 -51.372  14.345  1.00  0.00     0.000 C 
HETATM   13  C   UNL     1     -45.622 -52.244  15.024  1.00  0.00     0.004 C 
ENDBRANCH   8   9
ENDBRANCH   7   8
ENDBRANCH   6   7
ENDBRANCH   5   6
ENDBRANCH   3   5
BRANCH   2  14
HETATM   14  C   UNL     1     -43.197 -49.335  12.465  1.00  0.00     0.142 C 
BRANCH  14  15
HETATM   15  C   UNL     1     -42.657 -48.091  11.812  1.00  0.00    -0.034 A 
HETATM   16  C   UNL     1     -42.888 -46.823  12.356  1.00  0.00     0.010 A 
HETATM   17  C   UNL     1     -42.426 -45.691  11.692  1.00  0.00     0.018 A 
HETATM   18  C   UNL     1     -41.745 -45.862  10.499  1.00  0.00     0.087 A 
HETATM   19  N   UNL     1     -41.496 -47.067   9.945  1.00  0.00    -0.375 N 
HETATM   20  C   UNL     1     -41.957 -48.152  10.610  1.00  0.00     0.095 A 
ATOM     21  HN  UNL     1     -40.986 -47.157   9.067  1.00  0.00     0.164 HD
ENDBRANCH  14  15
ENDBRANCH   2  14
TORSDOF 7
ENDMDL
MODEL 4
REMARK VINA RESULT:      -5.2      1.404      4.300
REMARK  7 active torsions:
REMARK  status: ('A' for Active; 'I' for Inactive)
REMARK    1  A    between atoms: C_2  and  C_3 
REMARK       I    between atoms: C_2  and  N_11 
REMARK    2  A    between atoms: C_3  and  C_4 
REMARK    3  A    between atoms: N_11  and  C_12 
REMARK    4  A    between atoms: C_12  and  C_13 
REMARK    5  A    between atoms: C_13  and  C_14 
REMARK    6  A    between atoms: C_14  and  C_15 
REMARK    7  A    between atoms: C_15  and  C_16 
ROOT
HETATM    1  O   UNL     1     -40.275 -51.177  13.467  1.00  0.00    -0.273 OA
HETATM    2  C   UNL     1     -40.993 -51.668  12.600  1.00  0.00     0.221 C 
HETATM    3  N   UNL     1     -41.781 -50.919  11.754  1.00  0.00    -0.361 N 
HETATM    4  H   UNL     1     -42.223 -51.375  10.965  1.00  0.00     0.162 HD
ENDROOT
BRANCH   3   5
HETATM    5  C   UNL     1     -41.763 -49.470  11.773  1.00  0.00     0.122 C 
BRANCH   5   6
HETATM    6  C   UNL     1     -42.733 -48.883  12.802  1.00  0.00     0.020 C 
BRANCH   6   7
HETATM    7  C   UNL     1     -43.823 -49.852  13.279  1.00  0.00     0.002 C 
BRANCH   7   8
HETATM    8  C   UNL     1     -43.621 -50.321  14.722  1.00  0.00     0.005 C 
BRANCH   8   9
HETATM    9  C   UNL     1     -44.756 -51.212  15.231  1.00  0.00    -0.014 C 
HETATM   10  C   UNL     1     -45.873 -51.370  14.190  1.00  0.00     0.004 C 
HETATM   11  C   UNL     1     -47.185 -51.439  14.972  1.00  0.00     0.000 C 
HETATM   12  C   UNL     1     -46.800 -51.409  16.444  1.00  0.00     0.000 C 
HETATM   13  C   UNL     1     -45.476 -50.664  16.463  1.00  0.00     0.004 C 
ENDBRANCH   8   9
ENDBRANCH   7   8
ENDBRANCH   6   7
ENDBRANCH   5   6
ENDBRANCH   3   5
BRANCH   2  14
HETATM   14  C   UNL     1     -41.079 -53.166  12.370  1.00  0.00     0.142 C 
BRANCH  14  15
HETATM   15  C   UNL     1     -42.220 -53.820  13.100  1.00  0.00    -0.034 A 
HETATM   16  C   UNL     1     -43.514 -53.831  12.569  1.00  0.00     0.010 A 
HETATM   17  C   UNL     1     -44.557 -54.391  13.301  1.00  0.00     0.018 A 
HETATM   18  C   UNL     1     -44.274 -54.923  14.547  1.00  0.00     0.087 A 
HETATM   19  N   UNL     1     -43.039 -54.938  15.091  1.00  0.00    -0.375 N 
HETATM   20  C   UNL     1     -42.043 -54.387  14.360  1.00  0.00     0.095 A 
ATOM     21  HN  UNL     1     -42.864 -55.344  16.010  1.00  0.00     0.164 HD
ENDBRANCH  14  15
ENDBRANCH   2  14
TORSDOF 7
ENDMDL
MODEL 5
REMARK VINA RESULT:      -5.1      2.606      6.505
REMARK  7 active torsions:
REMARK  status: ('A' for Active; 'I' for Inactive)
REMARK    1  A    between atoms: C_2  and  C_3 
REMARK       I    between atoms: C_2  and  N_11 
REMARK    2  A    between atoms: C_3  and  C_4 
REMARK    3  A    between atoms: N_11  and  C_12 
REMARK    4  A    between atoms: C_12  and  C_13 
REMARK    5  A    between atoms: C_13  and  C_14 
REMARK    6  A    between atoms: C_14  and  C_15 
REMARK    7  A    between atoms: C_15  and  C_16 
ROOT
HETATM    1  O   UNL     1     -41.964 -50.876  13.107  1.00  0.00    -0.273 OA
HETATM    2  C   UNL     1     -41.408 -51.492  12.202  1.00  0.00     0.221 C 
HETATM    3  N   UNL     1     -40.676 -50.883  11.206  1.00  0.00    -0.361 N 
HETATM    4  H   UNL     1     -40.117 -51.457  10.589  1.00  0.00     0.162 HD
ENDROOT
BRANCH   3   5
HETATM    5  C   UNL     1     -40.441 -49.453  11.196  1.00  0.00     0.122 C 
BRANCH   5   6
HETATM    6  C   UNL     1     -39.125 -49.068  11.876  1.00  0.00     0.020 C 
BRANCH   6   7
HETATM    7  C   UNL     1     -37.912 -49.902  11.442  1.00  0.00     0.002 C 
BRANCH   7   8
HETATM    8  C   UNL     1     -37.353 -50.780  12.565  1.00  0.00     0.005 C 
BRANCH   8   9
HETATM    9  C   UNL     1     -38.110 -50.623  13.886  1.00  0.00    -0.014 C 
HETATM   10  C   UNL     1     -37.194 -50.134  15.018  1.00  0.00     0.004 C 
HETATM   11  C   UNL     1     -37.683 -50.818  16.294  1.00  0.00     0.000 C 
HETATM   12  C   UNL     1     -38.917 -51.616  15.898  1.00  0.00     0.000 C 
HETATM   13  C   UNL     1     -38.699 -51.925  14.427  1.00  0.00     0.004 C 
ENDBRANCH   8   9
ENDBRANCH   7   8
ENDBRANCH   6   7
ENDBRANCH   5   6
ENDBRANCH   3   5
BRANCH   2  14
HETATM   14  C   UNL     1     -41.468 -53.006  12.096  1.00  0.00     0.142 C 
BRANCH  14  15
HETATM   15  C   UNL     1     -42.544 -53.623  12.946  1.00  0.00    -0.034 A 
HETATM   16  C   UNL     1     -42.240 -54.290  14.137  1.00  0.00     0.010 A 
HETATM   17  C   UNL     1     -43.256 -54.902  14.866  1.00  0.00     0.018 A 
HETATM   18  C   UNL     1     -44.549 -54.829  14.379  1.00  0.00     0.087 A 
HETATM   19  N   UNL     1     -44.884 -54.191  13.238  1.00  0.00    -0.375 N 
HETATM   20  C   UNL     1     -43.879 -53.605  12.548  1.00  0.00     0.095 A 
ATOM     21  HN  UNL     1     -45.849 -54.152  12.912  1.00  0.00     0.164 HD
ENDBRANCH  14  15
ENDBRANCH   2  14
TORSDOF 7
ENDMDL
MODEL 6
REMARK VINA RESULT:      -5.1      2.223      4.405
REMARK  7 active torsions:
REMARK  status: ('A' for Active; 'I' for Inactive)
REMARK    1  A    between atoms: C_2  and  C_3 
REMARK       I    between atoms: C_2  and  N_11 
REMARK    2  A    between atoms: C_3  and  C_4 
REMARK    3  A    between atoms: N_11  and  C_12 
REMARK    4  A    between atoms: C_12  and  C_13 
REMARK    5  A    between atoms: C_13  and  C_14 
REMARK    6  A    between atoms: C_14  and  C_15 
REMARK    7  A    between atoms: C_15  and  C_16 
ROOT
HETATM    1  O   UNL     1     -45.031 -54.564  12.936  1.00  0.00    -0.273 OA
HETATM    2  C   UNL     1     -44.735 -54.635  14.126  1.00  0.00     0.221 C 
HETATM    3  N   UNL     1     -45.558 -54.196  15.140  1.00  0.00    -0.361 N 
HETATM    4  H   UNL     1     -45.323 -54.428  16.097  1.00  0.00     0.162 HD
ENDROOT
BRANCH   3   5
HETATM    5  C   UNL     1     -46.887 -53.680  14.878  1.00  0.00     0.122 C 
BRANCH   5   6
HETATM    6  C   UNL     1     -47.132 -52.322  15.540  1.00  0.00     0.020 C 
BRANCH   6   7
HETATM    7  C   UNL     1     -46.288 -51.172  14.974  1.00  0.00     0.002 C 
BRANCH   7   8
HETATM    8  C   UNL     1     -45.043 -50.872  15.812  1.00  0.00     0.005 C 
BRANCH   8   9
HETATM    9  C   UNL     1     -43.787 -50.645  14.966  1.00  0.00    -0.014 C 
HETATM   10  C   UNL     1     -43.340 -49.176  14.985  1.00  0.00     0.004 C 
HETATM   11  C   UNL     1     -42.778 -48.878  13.596  1.00  0.00     0.000 C 
HETATM   12  C   UNL     1     -42.828 -50.193  12.830  1.00  0.00     0.000 C 
HETATM   13  C   UNL     1     -43.970 -50.954  13.481  1.00  0.00     0.004 C 
ENDBRANCH   8   9
ENDBRANCH   7   8
ENDBRANCH   6   7
ENDBRANCH   5   6
ENDBRANCH   3   5
BRANCH   2  14
HETATM   14  C   UNL     1     -43.420 -55.226  14.601  1.00  0.00     0.142 C 
BRANCH  14  15
HETATM   15  C   UNL     1     -42.241 -54.318  14.381  1.00  0.00    -0.034 A 
HETATM   16  C   UNL     1     -41.619 -53.659  15.446  1.00  0.00     0.010 A 
HETATM   17  C   UNL     1     -40.569 -52.779  15.197  1.00  0.00     0.018 A 
HETATM   18  C   UNL     1     -40.174 -52.583  13.885  1.00  0.00     0.087 A 
HETATM   19  N   UNL     1     -40.744 -53.204  12.831  1.00  0.00    -0.375 N 
HETATM   20  C   UNL     1     -41.762 -54.054  13.100  1.00  0.00     0.095 A 
ATOM     21  HN  UNL     1     -40.423 -53.041  11.877  1.00  0.00     0.164 HD
ENDBRANCH  14  15
ENDBRANCH   2  14
TORSDOF 7
ENDMDL
MODEL 7
REMARK VINA RESULT:      -5.0      1.829      2.708
REMARK  7 active torsions:
REMARK  status: ('A' for Active; 'I' for Inactive)
REMARK    1  A    between atoms: C_2  and  C_3 
REMARK       I    between atoms: C_2  and  N_11 
REMARK    2  A    between atoms: C_3  and  C_4 
REMARK    3  A    between atoms: N_11  and  C_12 
REMARK    4  A    between atoms: C_12  and  C_13 
REMARK    5  A    between atoms: C_13  and  C_14 
REMARK    6  A    between atoms: C_14  and  C_15 
REMARK    7  A    between atoms: C_15  and  C_16 
ROOT
HETATM    1  O   UNL     1     -43.442 -50.682  13.866  1.00  0.00    -0.273 OA
HETATM    2  C   UNL     1     -42.649 -50.742  12.930  1.00  0.00     0.221 C 
HETATM    3  N   UNL     1     -42.492 -51.858  12.138  1.00  0.00    -0.361 N 
HETATM    4  H   UNL     1     -41.941 -51.785  11.292  1.00  0.00     0.162 HD
ENDROOT
BRANCH   3   5
HETATM    5  C   UNL     1     -43.318 -53.037  12.305  1.00  0.00     0.122 C 
BRANCH   5   6
HETATM    6  C   UNL     1     -42.775 -53.989  13.375  1.00  0.00     0.020 C 
BRANCH   6   7
HETATM    7  C   UNL     1     -43.828 -54.512  14.360  1.00  0.00     0.002 C 
BRANCH   7   8
HETATM    8  C   UNL     1     -45.219 -54.650  13.735  1.00  0.00     0.005 C 
BRANCH   8   9
HETATM    9  C   UNL     1     -46.274 -53.772  14.413  1.00  0.00    -0.014 C 
HETATM   10  C   UNL     1     -46.542 -52.483  13.622  1.00  0.00     0.004 C 
HETATM   11  C   UNL     1     -46.818 -51.392  14.656  1.00  0.00     0.000 C 
HETATM   12  C   UNL     1     -46.791 -52.081  16.012  1.00  0.00     0.000 C 
HETATM   13  C   UNL     1     -45.876 -53.275  15.801  1.00  0.00     0.004 C 
ENDBRANCH   8   9
ENDBRANCH   7   8
ENDBRANCH   6   7
ENDBRANCH   5   6
ENDBRANCH   3   5
BRANCH   2  14
HETATM   14  C   UNL     1     -41.758 -49.573  12.545  1.00  0.00     0.142 C 
BRANCH  14  15
HETATM   15  C   UNL     1     -40.307 -49.945  12.416  1.00  0.00    -0.034 A 
HETATM   16  C   UNL     1     -39.578 -50.431  13.508  1.00  0.00     0.010 A 
HETATM   17  C   UNL     1     -38.221 -50.706  13.366  1.00  0.00     0.018 A 
HETATM   18  C   UNL     1     -37.631 -50.485  12.134  1.00  0.00     0.087 A 
HETATM   19  N   UNL     1     -38.300 -50.025  11.056  1.00  0.00    -0.375 N 
HETATM   20  C   UNL     1     -39.618 -49.764  11.220  1.00  0.00     0.095 A 
ATOM     21  HN  UNL     1     -37.835 -49.879  10.160  1.00  0.00     0.164 HD
ENDBRANCH  14  15
ENDBRANCH   2  14
TORSDOF 7
ENDMDL
MODEL 8
REMARK VINA RESULT:      -4.9      2.410      4.277
REMARK  7 active torsions:
REMARK  status: ('A' for Active; 'I' for Inactive)
REMARK    1  A    between atoms: C_2  and  C_3 
REMARK       I    between atoms: C_2  and  N_11 
REMARK    2  A    between atoms: C_3  and  C_4 
REMARK    3  A    between atoms: N_11  and  C_12 
REMARK    4  A    between atoms: C_12  and  C_13 
REMARK    5  A    between atoms: C_13  and  C_14 
REMARK    6  A    between atoms: C_14  and  C_15 
REMARK    7  A    between atoms: C_15  and  C_16 
ROOT
HETATM    1  O   UNL     1     -39.238 -53.359  15.373  1.00  0.00    -0.273 OA
HETATM    2  C   UNL     1     -40.428 -53.447  15.661  1.00  0.00     0.221 C 
HETATM    3  N   UNL     1     -41.149 -52.421  16.233  1.00  0.00    -0.361 N 
HETATM    4  H   UNL     1     -42.155 -52.507  16.297  1.00  0.00     0.162 HD
ENDROOT
BRANCH   3   5
HETATM    5  C   UNL     1     -40.566 -51.116  16.469  1.00  0.00     0.122 C 
BRANCH   5   6
HETATM    6  C   UNL     1     -40.985 -50.085  15.417  1.00  0.00     0.020 C 
BRANCH   6   7
HETATM    7  C   UNL     1     -42.132 -50.535  14.502  1.00  0.00     0.002 C 
BRANCH   7   8
HETATM    8  C   UNL     1     -43.504 -50.044  14.973  1.00  0.00     0.005 C 
BRANCH   8   9
HETATM    9  C   UNL     1     -44.588 -51.121  14.897  1.00  0.00    -0.014 C 
HETATM   10  C   UNL     1     -45.345 -51.081  13.561  1.00  0.00     0.004 C 
HETATM   11  C   UNL     1     -46.793 -51.453  13.874  1.00  0.00     0.000 C 
HETATM   12  C   UNL     1     -46.831 -51.785  15.359  1.00  0.00     0.000 C 
HETATM   13  C   UNL     1     -45.689 -50.975  15.946  1.00  0.00     0.004 C 
ENDBRANCH   8   9
ENDBRANCH   7   8
ENDBRANCH   6   7
ENDBRANCH   5   6
ENDBRANCH   3   5
BRANCH   2  14
HETATM   14  C   UNL     1     -41.233 -54.709  15.407  1.00  0.00     0.142 C 
BRANCH  14  15
HETATM   15  C   UNL     1     -42.398 -54.499  14.480  1.00  0.00    -0.034 A 
HETATM   16  C   UNL     1     -43.695 -54.880  14.841  1.00  0.00     0.010 A 
HETATM   17  C   UNL     1     -44.739 -54.726  13.933  1.00  0.00     0.018 A 
HETATM   18  C   UNL     1     -44.453 -54.196  12.688  1.00  0.00     0.087 A 
HETATM   19  N   UNL     1     -43.218 -53.810  12.304  1.00  0.00    -0.375 N 
HETATM   20  C   UNL     1     -42.221 -53.970  13.204  1.00  0.00     0.095 A 
ATOM     21  HN  UNL     1     -43.044 -53.416  11.379  1.00  0.00     0.164 HD
ENDBRANCH  14  15
ENDBRANCH   2  14
TORSDOF 7
ENDMDL
MODEL 9
REMARK VINA RESULT:      -4.9      2.458      3.653
REMARK  7 active torsions:
REMARK  status: ('A' for Active; 'I' for Inactive)
REMARK    1  A    between atoms: C_2  and  C_3 
REMARK       I    between atoms: C_2  and  N_11 
REMARK    2  A    between atoms: C_3  and  C_4 
REMARK    3  A    between atoms: N_11  and  C_12 
REMARK    4  A    between atoms: C_12  and  C_13 
REMARK    5  A    between atoms: C_13  and  C_14 
REMARK    6  A    between atoms: C_14  and  C_15 
REMARK    7  A    between atoms: C_15  and  C_16 
ROOT
HETATM    1  O   UNL     1     -40.795 -48.769  12.748  1.00  0.00    -0.273 OA
HETATM    2  C   UNL     1     -40.966 -49.203  11.612  1.00  0.00     0.221 C 
HETATM    3  N   UNL     1     -40.668 -50.496  11.240  1.00  0.00    -0.361 N 
HETATM    4  H   UNL     1     -40.980 -50.830  10.338  1.00  0.00     0.162 HD
ENDROOT
BRANCH   3   5
HETATM    5  C   UNL     1     -40.194 -51.476  12.197  1.00  0.00     0.122 C 
BRANCH   5   6
HETATM    6  C   UNL     1     -41.069 -52.732  12.234  1.00  0.00     0.020 C 
BRANCH   6   7
HETATM    7  C   UNL     1     -42.577 -52.459  12.322  1.00  0.00     0.002 C 
BRANCH   7   8
HETATM    8  C   UNL     1     -42.995 -51.819  13.648  1.00  0.00     0.005 C 
BRANCH   8   9
HETATM    9  C   UNL     1     -44.407 -51.230  13.615  1.00  0.00    -0.014 C 
HETATM   10  C   UNL     1     -45.001 -51.083  15.023  1.00  0.00     0.004 C 
HETATM   11  C   UNL     1     -46.497 -51.368  14.892  1.00  0.00     0.000 C 
HETATM   12  C   UNL     1     -46.755 -51.587  13.409  1.00  0.00     0.000 C 
HETATM   13  C   UNL     1     -45.427 -52.093  12.874  1.00  0.00     0.004 C 
ENDBRANCH   8   9
ENDBRANCH   7   8
ENDBRANCH   6   7
ENDBRANCH   5   6
ENDBRANCH   3   5
BRANCH   2  14
HETATM   14  C   UNL     1     -41.537 -48.349  10.494  1.00  0.00     0.142 C 
BRANCH  14  15
HETATM   15  C   UNL     1     -41.500 -46.874  10.790  1.00  0.00    -0.034 A 
HETATM   16  C   UNL     1     -40.312 -46.142  10.697  1.00  0.00     0.010 A 
HETATM   17  C   UNL     1     -40.303 -44.792  11.038  1.00  0.00     0.018 A 
HETATM   18  C   UNL     1     -41.487 -44.214  11.463  1.00  0.00     0.087 A 
HETATM   19  N   UNL     1     -42.654 -44.884  11.559  1.00  0.00    -0.375 N 
HETATM   20  C   UNL     1     -42.636 -46.195  11.223  1.00  0.00     0.095 A 
ATOM     21  HN  UNL     1     -43.510 -44.425  11.871  1.00  0.00     0.164 HD
ENDBRANCH  14  15
ENDBRANCH   2  14
TORSDOF 7
ENDMDL
