MODEL 1
REMARK VINA RESULT:      -5.6      0.000      0.000
REMARK  6 active torsions:
REMARK  status: ('A' for Active; 'I' for Inactive)
REMARK    1  A    between atoms: C_2  and  C_4 
REMARK    2  A    between atoms: C_4  and  N_5 
REMARK    3  A    between atoms: C_4  and  C_14 
REMARK    4  A    between atoms: N_5  and  C_6 
REMARK    5  A    between atoms: C_6  and  C_7 
REMARK    6  A    between atoms: C_7  and  N_8 
REMARK       I    between atoms: C_14  and  N_16 
ROOT
HETATM    1  C   UNL     1     -40.443 -50.687  12.310  1.00  0.00     0.315 C 
ENDROOT
BRANCH   1   2
HETATM    2  C   UNL     1     -38.895 -50.778  12.327  1.00  0.00     0.020 C 
HETATM    3  C   UNL     1     -38.243 -49.551  11.680  1.00  0.00     0.012 C 
HETATM    4  C   UNL     1     -38.296 -51.022  13.715  1.00  0.00     0.012 C 
ENDBRANCH   1   2
BRANCH   1   5
HETATM    5  N   UNL     1     -41.008 -50.043  11.091  1.00  0.00     0.099 N 
HETATM    6  H   UNL     1     -41.536 -50.747  10.576  1.00  0.00     0.317 HD
BRANCH   5   7
HETATM    7  C   UNL     1     -41.846 -48.880  11.379  1.00  0.00     0.290 C 
BRANCH   7   8
HETATM    8  C   UNL     1     -41.822 -47.890  10.206  1.00  0.00     0.159 C 
BRANCH   8   9
HETATM    9  N   UNL     1     -43.135 -47.731   9.617  1.00  0.00    -0.350 N 
HETATM   10  C   UNL     1     -44.305 -47.537  10.295  1.00  0.00     0.108 A 
HETATM   11  C   UNL     1     -45.271 -47.466   9.318  1.00  0.00     0.106 A 
HETATM   12  N   UNL     1     -44.714 -47.606   8.072  1.00  0.00    -0.361 N 
HETATM   13  C   UNL     1     -43.426 -47.755   8.283  1.00  0.00     0.182 A 
ATOM     14  HN  UNL     1     -45.198 -47.597   7.175  1.00  0.00     0.166 HD
ENDBRANCH   8   9
ENDBRANCH   7   8
ENDBRANCH   5   7
ENDBRANCH   1   5
BRANCH   1  15
HETATM   15  C   UNL     1     -41.126 -52.091  12.426  1.00  0.00     0.253 C 
HETATM   16  O   UNL     1     -40.590 -53.099  11.952  1.00  0.00    -0.271 OA
HETATM   17  N   UNL     1     -42.415 -52.148  12.934  1.00  0.00    -0.346 N 
HETATM   18  C   UNL     1     -43.172 -53.396  12.799  1.00  0.00     0.152 C 
HETATM   19  C   UNL     1     -42.997 -51.228  13.917  1.00  0.00     0.152 C 
HETATM   20  C   UNL     1     -44.653 -53.094  12.542  1.00  0.00     0.187 C 
HETATM   21  O   UNL     1     -45.197 -52.221  13.547  1.00  0.00    -0.388 OA
HETATM   22  C   UNL     1     -44.473 -50.983  13.596  1.00  0.00     0.187 C 
ENDBRANCH   1  15
TORSDOF 6
ENDMDL
MODEL 2
REMARK VINA RESULT:      -5.2      3.656      6.714
REMARK  6 active torsions:
REMARK  status: ('A' for Active; 'I' for Inactive)
REMARK    1  A    between atoms: C_2  and  C_4 
REMARK    2  A    between atoms: C_4  and  N_5 
REMARK    3  A    between atoms: C_4  and  C_14 
REMARK    4  A    between atoms: N_5  and  C_6 
REMARK    5  A    between atoms: C_6  and  C_7 
REMARK    6  A    between atoms: C_7  and  N_8 
REMARK       I    between atoms: C_14  and  N_16 
ROOT
HETATM    1  C   UNL     1     -42.930 -47.352  10.163  1.00  0.00     0.315 C 
ENDROOT
BRANCH   1   2
HETATM    2  C   UNL     1     -43.926 -47.192   8.985  1.00  0.00     0.020 C 
HETATM    3  C   UNL     1     -43.439 -47.911   7.722  1.00  0.00     0.012 C 
HETATM    4  C   UNL     1     -45.359 -47.619   9.314  1.00  0.00     0.012 C 
ENDBRANCH   1   2
BRANCH   1   5
HETATM    5  N   UNL     1     -41.747 -48.203   9.856  1.00  0.00     0.099 N 
HETATM    6  H   UNL     1     -41.004 -47.600   9.503  1.00  0.00     0.317 HD
BRANCH   5   7
HETATM    7  C   UNL     1     -41.275 -48.985  10.998  1.00  0.00     0.290 C 
BRANCH   7   8
HETATM    8  C   UNL     1     -39.938 -48.439  11.515  1.00  0.00     0.159 C 
BRANCH   8   9
HETATM    9  N   UNL     1     -39.078 -49.501  11.995  1.00  0.00    -0.350 N 
HETATM   10  C   UNL     1     -39.357 -50.363  13.018  1.00  0.00     0.108 A 
HETATM   11  C   UNL     1     -38.244 -51.166  13.115  1.00  0.00     0.106 A 
HETATM   12  N   UNL     1     -37.308 -50.816  12.176  1.00  0.00    -0.361 N 
HETATM   13  C   UNL     1     -37.842 -49.817  11.510  1.00  0.00     0.182 A 
ATOM     14  HN  UNL     1     -36.393 -51.240  12.027  1.00  0.00     0.166 HD
ENDBRANCH   8   9
ENDBRANCH   7   8
ENDBRANCH   5   7
ENDBRANCH   1   5
BRANCH   1  15
HETATM   15  C   UNL     1     -42.370 -45.978  10.663  1.00  0.00     0.253 C 
HETATM   16  O   UNL     1     -41.948 -45.136   9.864  1.00  0.00    -0.271 OA
HETATM   17  N   UNL     1     -42.217 -45.797  12.029  1.00  0.00    -0.346 N 
HETATM   18  C   UNL     1     -41.448 -44.643  12.506  1.00  0.00     0.152 C 
HETATM   19  C   UNL     1     -43.033 -46.414  13.079  1.00  0.00     0.152 C 
HETATM   20  C   UNL     1     -40.643 -45.020  13.755  1.00  0.00     0.187 C 
HETATM   21  O   UNL     1     -41.484 -45.586  14.775  1.00  0.00    -0.388 OA
HETATM   22  C   UNL     1     -42.162 -46.754  14.290  1.00  0.00     0.187 C 
ENDBRANCH   1  15
TORSDOF 6
ENDMDL
MODEL 3
REMARK VINA RESULT:      -5.2      2.662      5.320
REMARK  6 active torsions:
REMARK  status: ('A' for Active; 'I' for Inactive)
REMARK    1  A    between atoms: C_2  and  C_4 
REMARK    2  A    between atoms: C_4  and  N_5 
REMARK    3  A    between atoms: C_4  and  C_14 
REMARK    4  A    between atoms: N_5  and  C_6 
REMARK    5  A    between atoms: C_6  and  C_7 
REMARK    6  A    between atoms: C_7  and  N_8 
REMARK       I    between atoms: C_14  and  N_16 
ROOT
HETATM    1  C   UNL     1     -44.715 -52.543  13.952  1.00  0.00     0.315 C 
ENDROOT
BRANCH   1   2
HETATM    2  C   UNL     1     -46.238 -52.367  13.723  1.00  0.00     0.020 C 
HETATM    3  C   UNL     1     -46.871 -51.442  14.769  1.00  0.00     0.012 C 
HETATM    4  C   UNL     1     -46.611 -51.901  12.313  1.00  0.00     0.012 C 
ENDBRANCH   1   2
BRANCH   1   5
HETATM    5  N   UNL     1     -44.075 -51.435  14.715  1.00  0.00     0.099 N 
HETATM    6  H   UNL     1     -43.325 -51.830  15.281  1.00  0.00     0.317 HD
BRANCH   5   7
HETATM    7  C   UNL     1     -43.568 -50.358  13.868  1.00  0.00     0.290 C 
BRANCH   7   8
HETATM    8  C   UNL     1     -42.040 -50.434  13.750  1.00  0.00     0.159 C 
BRANCH   8   9
HETATM    9  N   UNL     1     -41.578 -49.925  12.475  1.00  0.00    -0.350 N 
HETATM   10  C   UNL     1     -41.989 -48.770  11.870  1.00  0.00     0.108 A 
HETATM   11  C   UNL     1     -41.294 -48.727  10.685  1.00  0.00     0.106 A 
HETATM   12  N   UNL     1     -40.472 -49.818  10.561  1.00  0.00    -0.361 N 
HETATM   13  C   UNL     1     -40.658 -50.517  11.658  1.00  0.00     0.182 A 
ATOM     14  HN  UNL     1     -39.851 -50.040   9.783  1.00  0.00     0.166 HD
ENDBRANCH   8   9
ENDBRANCH   7   8
ENDBRANCH   5   7
ENDBRANCH   1   5
BRANCH   1  15
HETATM   15  C   UNL     1     -44.374 -53.864  14.720  1.00  0.00     0.253 C 
HETATM   16  O   UNL     1     -45.217 -54.420  15.432  1.00  0.00    -0.271 OA
HETATM   17  N   UNL     1     -43.059 -54.305  14.704  1.00  0.00    -0.346 N 
HETATM   18  C   UNL     1     -42.662 -55.371  15.629  1.00  0.00     0.152 C 
HETATM   19  C   UNL     1     -42.090 -54.092  13.625  1.00  0.00     0.152 C 
HETATM   20  C   UNL     1     -41.235 -55.130  16.136  1.00  0.00     0.187 C 
HETATM   21  O   UNL     1     -40.308 -54.964  15.049  1.00  0.00    -0.388 OA
HETATM   22  C   UNL     1     -40.694 -53.866  14.209  1.00  0.00     0.187 C 
ENDBRANCH   1  15
TORSDOF 6
ENDMDL
MODEL 4
REMARK VINA RESULT:      -5.2      3.301      4.721
REMARK  6 active torsions:
REMARK  status: ('A' for Active; 'I' for Inactive)
REMARK    1  A    between atoms: C_2  and  C_4 
REMARK    2  A    between atoms: C_4  and  N_5 
REMARK    3  A    between atoms: C_4  and  C_14 
REMARK    4  A    between atoms: N_5  and  C_6 
REMARK    5  A    between atoms: C_6  and  C_7 
REMARK    6  A    between atoms: C_7  and  N_8 
REMARK       I    between atoms: C_14  and  N_16 
ROOT
HETATM    1  C   UNL     1     -42.432 -53.072  13.494  1.00  0.00     0.315 C 
ENDROOT
BRANCH   1   2
HETATM    2  C   UNL     1     -41.632 -54.356  13.832  1.00  0.00     0.020 C 
HETATM    3  C   UNL     1     -40.133 -54.185  13.561  1.00  0.00     0.012 C 
HETATM    4  C   UNL     1     -41.854 -54.877  15.255  1.00  0.00     0.012 C 
ENDBRANCH   1   2
BRANCH   1   5
HETATM    5  N   UNL     1     -41.983 -52.376  12.255  1.00  0.00     0.099 N 
HETATM    6  H   UNL     1     -42.597 -52.660  11.492  1.00  0.00     0.317 HD
BRANCH   5   7
HETATM    7  C   UNL     1     -41.955 -50.921  12.378  1.00  0.00     0.290 C 
BRANCH   7   8
HETATM    8  C   UNL     1     -40.794 -50.474  13.276  1.00  0.00     0.159 C 
BRANCH   8   9
HETATM    9  N   UNL     1     -39.547 -50.410  12.543  1.00  0.00    -0.350 N 
HETATM   10  C   UNL     1     -38.351 -50.940  12.938  1.00  0.00     0.108 A 
HETATM   11  C   UNL     1     -37.470 -50.608  11.935  1.00  0.00     0.106 A 
HETATM   12  N   UNL     1     -38.103 -49.899  10.946  1.00  0.00    -0.361 N 
HETATM   13  C   UNL     1     -39.354 -49.803  11.335  1.00  0.00     0.182 A 
ATOM     14  HN  UNL     1     -37.690 -49.526  10.092  1.00  0.00     0.166 HD
ENDBRANCH   8   9
ENDBRANCH   7   8
ENDBRANCH   5   7
ENDBRANCH   1   5
BRANCH   1  15
HETATM   15  C   UNL     1     -43.962 -53.350  13.316  1.00  0.00     0.253 C 
HETATM   16  O   UNL     1     -44.382 -53.997  12.351  1.00  0.00    -0.271 OA
HETATM   17  N   UNL     1     -44.842 -52.721  14.184  1.00  0.00    -0.346 N 
HETATM   18  C   UNL     1     -46.276 -52.744  13.874  1.00  0.00     0.152 C 
HETATM   19  C   UNL     1     -44.563 -52.340  15.572  1.00  0.00     0.152 C 
HETATM   20  C   UNL     1     -46.928 -51.417  14.280  1.00  0.00     0.187 C 
HETATM   21  O   UNL     1     -46.663 -51.097  15.657  1.00  0.00    -0.388 OA
HETATM   22  C   UNL     1     -45.251 -51.014  15.901  1.00  0.00     0.187 C 
ENDBRANCH   1  15
TORSDOF 6
ENDMDL
MODEL 5
REMARK VINA RESULT:      -5.2      1.722      2.102
REMARK  6 active torsions:
REMARK  status: ('A' for Active; 'I' for Inactive)
REMARK    1  A    between atoms: C_2  and  C_4 
REMARK    2  A    between atoms: C_4  and  N_5 
REMARK    3  A    between atoms: C_4  and  C_14 
REMARK    4  A    between atoms: N_5  and  C_6 
REMARK    5  A    between atoms: C_6  and  C_7 
REMARK    6  A    between atoms: C_7  and  N_8 
REMARK       I    between atoms: C_14  and  N_16 
ROOT
HETATM    1  C   UNL     1     -39.829 -50.455  12.177  1.00  0.00     0.315 C 
ENDROOT
BRANCH   1   2
HETATM    2  C   UNL     1     -38.293 -50.584  12.342  1.00  0.00     0.020 C 
HETATM    3  C   UNL     1     -37.536 -49.940  11.174  1.00  0.00     0.012 C 
HETATM    4  C   UNL     1     -37.758 -50.050  13.673  1.00  0.00     0.012 C 
ENDBRANCH   1   2
BRANCH   1   5
HETATM    5  N   UNL     1     -40.271 -50.078  10.805  1.00  0.00     0.099 N 
HETATM    6  H   UNL     1     -40.716 -50.891  10.380  1.00  0.00     0.317 HD
BRANCH   5   7
HETATM    7  C   UNL     1     -41.169 -48.925  10.775  1.00  0.00     0.290 C 
BRANCH   7   8
HETATM    8  C   UNL     1     -40.553 -47.737  11.526  1.00  0.00     0.159 C 
BRANCH   8   9
HETATM    9  N   UNL     1     -41.298 -46.516  11.295  1.00  0.00    -0.350 N 
HETATM   10  C   UNL     1     -40.833 -45.243  11.465  1.00  0.00     0.108 A 
HETATM   11  C   UNL     1     -41.898 -44.433  11.147  1.00  0.00     0.106 A 
HETATM   12  N   UNL     1     -42.988 -45.183  10.784  1.00  0.00    -0.361 N 
HETATM   13  C   UNL     1     -42.594 -46.433  10.873  1.00  0.00     0.182 A 
ATOM     14  HN  UNL     1     -43.907 -44.841  10.505  1.00  0.00     0.166 HD
ENDBRANCH   8   9
ENDBRANCH   7   8
ENDBRANCH   5   7
ENDBRANCH   1   5
BRANCH   1  15
HETATM   15  C   UNL     1     -40.583 -51.779  12.537  1.00  0.00     0.253 C 
HETATM   16  O   UNL     1     -40.098 -52.881  12.257  1.00  0.00    -0.271 OA
HETATM   17  N   UNL     1     -41.873 -51.679  13.036  1.00  0.00    -0.346 N 
HETATM   18  C   UNL     1     -42.693 -52.891  13.120  1.00  0.00     0.152 C 
HETATM   19  C   UNL     1     -42.407 -50.569  13.831  1.00  0.00     0.152 C 
HETATM   20  C   UNL     1     -44.157 -52.567  12.800  1.00  0.00     0.187 C 
HETATM   21  O   UNL     1     -44.655 -51.501  13.626  1.00  0.00    -0.388 OA
HETATM   22  C   UNL     1     -43.869 -50.312  13.459  1.00  0.00     0.187 C 
ENDBRANCH   1  15
TORSDOF 6
ENDMDL
MODEL 6
REMARK VINA RESULT:      -4.9      2.479      5.153
REMARK  6 active torsions:
REMARK  status: ('A' for Active; 'I' for Inactive)
REMARK    1  A    between atoms: C_2  and  C_4 
REMARK    2  A    between atoms: C_4  and  N_5 
REMARK    3  A    between atoms: C_4  and  C_14 
REMARK    4  A    between atoms: N_5  and  C_6 
REMARK    5  A    between atoms: C_6  and  C_7 
REMARK    6  A    between atoms: C_7  and  N_8 
REMARK       I    between atoms: C_14  and  N_16 
ROOT
HETATM    1  C   UNL     1     -44.409 -52.341  14.730  1.00  0.00     0.315 C 
ENDROOT
BRANCH   1   2
HETATM    2  C   UNL     1     -45.855 -52.684  15.174  1.00  0.00     0.020 C 
HETATM    3  C   UNL     1     -46.849 -51.585  14.783  1.00  0.00     0.012 C 
HETATM    4  C   UNL     1     -46.355 -54.045  14.684  1.00  0.00     0.012 C 
ENDBRANCH   1   2
BRANCH   1   5
HETATM    5  N   UNL     1     -44.018 -50.921  14.952  1.00  0.00     0.099 N 
HETATM    6  H   UNL     1     -43.237 -50.905  15.607  1.00  0.00     0.317 HD
BRANCH   5   7
HETATM    7  C   UNL     1     -43.673 -50.210  13.723  1.00  0.00     0.290 C 
BRANCH   7   8
HETATM    8  C   UNL     1     -42.156 -50.223  13.494  1.00  0.00     0.159 C 
BRANCH   8   9
HETATM    9  N   UNL     1     -41.801 -49.604  12.234  1.00  0.00    -0.350 N 
HETATM   10  C   UNL     1     -42.455 -48.565  11.634  1.00  0.00     0.108 A 
HETATM   11  C   UNL     1     -41.768 -48.347  10.462  1.00  0.00     0.106 A 
HETATM   12  N   UNL     1     -40.718 -49.221  10.343  1.00  0.00    -0.361 N 
HETATM   13  C   UNL     1     -40.757 -49.960  11.429  1.00  0.00     0.182 A 
ATOM     14  HN  UNL     1     -40.050 -49.284   9.575  1.00  0.00     0.166 HD
ENDBRANCH   8   9
ENDBRANCH   7   8
ENDBRANCH   5   7
ENDBRANCH   1   5
BRANCH   1  15
HETATM   15  C   UNL     1     -43.336 -53.215  15.462  1.00  0.00     0.253 C 
HETATM   16  O   UNL     1     -43.378 -53.380  16.685  1.00  0.00    -0.271 OA
HETATM   17  N   UNL     1     -42.254 -53.669  14.723  1.00  0.00    -0.346 N 
HETATM   18  C   UNL     1     -41.108 -54.249  15.433  1.00  0.00     0.152 C 
HETATM   19  C   UNL     1     -42.254 -53.977  13.289  1.00  0.00     0.152 C 
HETATM   20  C   UNL     1     -39.800 -53.866  14.731  1.00  0.00     0.187 C 
HETATM   21  O   UNL     1     -39.825 -54.218  13.337  1.00  0.00    -0.388 OA
HETATM   22  C   UNL     1     -40.917 -53.574  12.665  1.00  0.00     0.187 C 
ENDBRANCH   1  15
TORSDOF 6
ENDMDL
MODEL 7
REMARK VINA RESULT:      -4.8      2.696      5.347
REMARK  6 active torsions:
REMARK  status: ('A' for Active; 'I' for Inactive)
REMARK    1  A    between atoms: C_2  and  C_4 
REMARK    2  A    between atoms: C_4  and  N_5 
REMARK    3  A    between atoms: C_4  and  C_14 
REMARK    4  A    between atoms: N_5  and  C_6 
REMARK    5  A    between atoms: C_6  and  C_7 
REMARK    6  A    between atoms: C_7  and  N_8 
REMARK       I    between atoms: C_14  and  N_16 
ROOT
HETATM    1  C   UNL     1     -41.099 -50.892  12.547  1.00  0.00     0.315 C 
ENDROOT
BRANCH   1   2
HETATM    2  C   UNL     1     -40.312 -49.933  11.617  1.00  0.00     0.020 C 
HETATM    3  C   UNL     1     -41.228 -48.896  10.957  1.00  0.00     0.012 C 
HETATM    4  C   UNL     1     -39.128 -49.236  12.293  1.00  0.00     0.012 C 
ENDBRANCH   1   2
BRANCH   1   5
HETATM    5  N   UNL     1     -42.505 -51.145  12.122  1.00  0.00     0.099 N 
HETATM    6  H   UNL     1     -42.482 -51.651  11.237  1.00  0.00     0.317 HD
BRANCH   5   7
HETATM    7  C   UNL     1     -43.294 -51.875  13.112  1.00  0.00     0.290 C 
BRANCH   7   8
HETATM    8  C   UNL     1     -44.056 -53.032  12.453  1.00  0.00     0.159 C 
BRANCH   8   9
HETATM    9  N   UNL     1     -45.130 -53.513  13.298  1.00  0.00    -0.350 N 
HETATM   10  C   UNL     1     -45.181 -54.726  13.924  1.00  0.00     0.108 A 
HETATM   11  C   UNL     1     -46.389 -54.731  14.583  1.00  0.00     0.106 A 
HETATM   12  N   UNL     1     -47.062 -53.554  14.375  1.00  0.00    -0.361 N 
HETATM   13  C   UNL     1     -46.275 -52.836  13.606  1.00  0.00     0.182 A 
ATOM     14  HN  UNL     1     -47.977 -53.293  14.741  1.00  0.00     0.166 HD
ENDBRANCH   8   9
ENDBRANCH   7   8
ENDBRANCH   5   7
ENDBRANCH   1   5
BRANCH   1  15
HETATM   15  C   UNL     1     -40.416 -52.295  12.676  1.00  0.00     0.253 C 
HETATM   16  O   UNL     1     -40.506 -53.130  11.770  1.00  0.00    -0.271 OA
HETATM   17  N   UNL     1     -39.842 -52.630  13.893  1.00  0.00    -0.346 N 
HETATM   18  C   UNL     1     -39.444 -54.022  14.126  1.00  0.00     0.152 C 
HETATM   19  C   UNL     1     -39.246 -51.695  14.853  1.00  0.00     0.152 C 
HETATM   20  C   UNL     1     -39.700 -54.410  15.587  1.00  0.00     0.187 C 
HETATM   21  O   UNL     1     -39.069 -53.492  16.497  1.00  0.00    -0.388 OA
HETATM   22  C   UNL     1     -39.539 -52.153  16.283  1.00  0.00     0.187 C 
ENDBRANCH   1  15
TORSDOF 6
ENDMDL
MODEL 8
REMARK VINA RESULT:      -4.8      2.441      3.831
REMARK  6 active torsions:
REMARK  status: ('A' for Active; 'I' for Inactive)
REMARK    1  A    between atoms: C_2  and  C_4 
REMARK    2  A    between atoms: C_4  and  N_5 
REMARK    3  A    between atoms: C_4  and  C_14 
REMARK    4  A    between atoms: N_5  and  C_6 
REMARK    5  A    between atoms: C_6  and  C_7 
REMARK    6  A    between atoms: C_7  and  N_8 
REMARK       I    between atoms: C_14  and  N_16 
ROOT
HETATM    1  C   UNL     1     -42.840 -52.848  13.416  1.00  0.00     0.315 C 
ENDROOT
BRANCH   1   2
HETATM    2  C   UNL     1     -42.064 -54.185  13.540  1.00  0.00     0.020 C 
HETATM    3  C   UNL     1     -40.709 -54.129  12.825  1.00  0.00     0.012 C 
HETATM    4  C   UNL     1     -41.881 -54.671  14.980  1.00  0.00     0.012 C 
ENDBRANCH   1   2
BRANCH   1   5
HETATM    5  N   UNL     1     -42.491 -52.045  12.210  1.00  0.00     0.099 N 
HETATM    6  H   UNL     1     -43.356 -51.809  11.725  1.00  0.00     0.317 HD
BRANCH   5   7
HETATM    7  C   UNL     1     -41.725 -50.838  12.512  1.00  0.00     0.290 C 
BRANCH   7   8
HETATM    8  C   UNL     1     -42.548 -49.580  12.203  1.00  0.00     0.159 C 
BRANCH   8   9
HETATM    9  N   UNL     1     -41.724 -48.527  11.647  1.00  0.00    -0.350 N 
HETATM   10  C   UNL     1     -40.592 -48.007  12.209  1.00  0.00     0.108 A 
HETATM   11  C   UNL     1     -40.180 -47.030  11.333  1.00  0.00     0.106 A 
HETATM   12  N   UNL     1     -41.028 -46.951  10.258  1.00  0.00    -0.361 N 
HETATM   13  C   UNL     1     -41.943 -47.871  10.470  1.00  0.00     0.182 A 
ATOM     14  HN  UNL     1     -40.963 -46.315   9.464  1.00  0.00     0.166 HD
ENDBRANCH   8   9
ENDBRANCH   7   8
ENDBRANCH   5   7
ENDBRANCH   1   5
BRANCH   1  15
HETATM   15  C   UNL     1     -44.390 -53.057  13.375  1.00  0.00     0.253 C 
HETATM   16  O   UNL     1     -44.951 -53.449  12.347  1.00  0.00    -0.271 OA
HETATM   17  N   UNL     1     -45.131 -52.644  14.472  1.00  0.00    -0.346 N 
HETATM   18  C   UNL     1     -46.591 -52.575  14.352  1.00  0.00     0.152 C 
HETATM   19  C   UNL     1     -44.669 -52.609  15.864  1.00  0.00     0.152 C 
HETATM   20  C   UNL     1     -47.133 -51.376  15.140  1.00  0.00     0.187 C 
HETATM   21  O   UNL     1     -46.689 -51.398  16.508  1.00  0.00    -0.388 OA
HETATM   22  C   UNL     1     -45.256 -51.392  16.582  1.00  0.00     0.187 C 
ENDBRANCH   1  15
TORSDOF 6
ENDMDL
MODEL 9
REMARK VINA RESULT:      -4.8      3.134      4.428
REMARK  6 active torsions:
REMARK  status: ('A' for Active; 'I' for Inactive)
REMARK    1  A    between atoms: C_2  and  C_4 
REMARK    2  A    between atoms: C_4  and  N_5 
REMARK    3  A    between atoms: C_4  and  C_14 
REMARK    4  A    between atoms: N_5  and  C_6 
REMARK    5  A    between atoms: C_6  and  C_7 
REMARK    6  A    between atoms: C_7  and  N_8 
REMARK       I    between atoms: C_14  and  N_16 
ROOT
HETATM    1  C   UNL     1     -41.521 -48.459  12.700  1.00  0.00     0.315 C 
ENDROOT
BRANCH   1   2
HETATM    2  C   UNL     1     -41.895 -47.452  13.819  1.00  0.00     0.020 C 
HETATM    3  C   UNL     1     -42.696 -48.117  14.944  1.00  0.00     0.012 C 
HETATM    4  C   UNL     1     -40.701 -46.691  14.401  1.00  0.00     0.012 C 
ENDBRANCH   1   2
BRANCH   1   5
HETATM    5  N   UNL     1     -42.377 -48.372  11.484  1.00  0.00     0.099 N 
HETATM    6  H   UNL     1     -43.011 -49.170  11.483  1.00  0.00     0.317 HD
BRANCH   5   7
HETATM    7  C   UNL     1     -43.126 -47.121  11.383  1.00  0.00     0.290 C 
BRANCH   7   8
HETATM    8  C   UNL     1     -43.064 -46.564   9.954  1.00  0.00     0.159 C 
BRANCH   8   9
HETATM    9  N   UNL     1     -43.982 -47.256   9.073  1.00  0.00    -0.350 N 
HETATM   10  C   UNL     1     -45.303 -47.504   9.318  1.00  0.00     0.108 A 
HETATM   11  C   UNL     1     -45.742 -48.198   8.214  1.00  0.00     0.106 A 
HETATM   12  N   UNL     1     -44.724 -48.369   7.311  1.00  0.00    -0.361 N 
HETATM   13  C   UNL     1     -43.679 -47.783   7.850  1.00  0.00     0.182 A 
ATOM     14  HN  UNL     1     -44.770 -48.849   6.412  1.00  0.00     0.166 HD
ENDBRANCH   8   9
ENDBRANCH   7   8
ENDBRANCH   5   7
ENDBRANCH   1   5
BRANCH   1  15
HETATM   15  C   UNL     1     -40.043 -48.292  12.214  1.00  0.00     0.253 C 
HETATM   16  O   UNL     1     -39.730 -47.389  11.431  1.00  0.00    -0.271 OA
HETATM   17  N   UNL     1     -39.128 -49.274  12.565  1.00  0.00    -0.346 N 
HETATM   18  C   UNL     1     -37.820 -49.287  11.903  1.00  0.00     0.152 C 
HETATM   19  C   UNL     1     -39.164 -50.094  13.780  1.00  0.00     0.152 C 
HETATM   20  C   UNL     1     -37.355 -50.730  11.673  1.00  0.00     0.187 C 
HETATM   21  O   UNL     1     -37.368 -51.491  12.893  1.00  0.00    -0.388 OA
HETATM   22  C   UNL     1     -38.682 -51.513  13.470  1.00  0.00     0.187 C 
ENDBRANCH   1  15
TORSDOF 6
ENDMDL
