MODEL 1
REMARK VINA RESULT:      -5.7      0.000      0.000
REMARK  6 active torsions:
REMARK  status: ('A' for Active; 'I' for Inactive)
REMARK    1  A    between atoms: O_2  and  C_3 
REMARK    2  A    between atoms: C_3  and  C_4 
REMARK    3  A    between atoms: C_4  and  O_5 
REMARK    4  A    between atoms: O_5  and  C_6 
REMARK    5  A    between atoms: C_9  and  N_10 
REMARK       I    between atoms: N_10  and  C_11 
REMARK    6  A    between atoms: C_11  and  C_13 
ROOT
HETATM    1  C   UNL     1     -44.561 -52.929  12.751  1.00  0.00     0.141 A 
HETATM    2  C   UNL     1     -44.831 -51.682  13.279  1.00  0.00     0.058 A 
HETATM    3  C   UNL     1     -43.793 -50.756  13.340  1.00  0.00     0.035 A 
HETATM    4  C   UNL     1     -42.532 -51.083  12.840  1.00  0.00     0.050 A 
HETATM    5  C   UNL     1     -42.366 -52.373  12.346  1.00  0.00     0.119 A 
HETATM    6  N   UNL     1     -43.349 -53.302  12.287  1.00  0.00    -0.345 N 
ATOM      7  HN  UNL     1     -43.183 -54.235  11.910  1.00  0.00     0.167 HD
ENDROOT
BRANCH   4   8
HETATM    8  N   UNL     1     -41.446 -50.175  12.816  1.00  0.00    -0.326 N 
HETATM    9  C   UNL     1     -40.529 -50.041  13.843  1.00  0.00     0.228 C 
HETATM   10  O   UNL     1     -40.622 -50.601  14.930  1.00  0.00    -0.273 OA
HETATM   11  H   UNL     1     -41.453 -49.469  12.092  1.00  0.00     0.169 HD
BRANCH   9  12
HETATM   12  C   UNL     1     -39.406 -49.045  13.571  1.00  0.00     0.096 C 
HETATM   13  C   UNL     1     -39.005 -48.932  12.097  1.00  0.00     0.025 C 
HETATM   14  C   UNL     1     -38.386 -50.221  11.568  1.00  0.00     0.103 C 
HETATM   15  C   UNL     1     -37.368 -50.858  12.491  1.00  0.00     0.217 C 
HETATM   16  O   UNL     1     -36.545 -51.675  12.088  1.00  0.00    -0.274 OA
HETATM   17  N   UNL     1     -37.466 -50.575  13.821  1.00  0.00    -0.360 N 
HETATM   18  C   UNL     1     -38.163 -49.434  14.374  1.00  0.00     0.136 C 
HETATM   19  H   UNL     1     -36.816 -51.085  14.408  1.00  0.00     0.162 HD
ENDBRANCH   9  12
ENDBRANCH   4   8
BRANCH   1  20
HETATM   20  O   UNL     1     -45.623 -53.806  12.680  1.00  0.00    -0.334 OA
BRANCH  20  21
HETATM   21  C   UNL     1     -45.500 -54.865  13.626  1.00  0.00     0.203 C 
BRANCH  21  22
HETATM   22  C   UNL     1     -46.476 -54.621  14.768  1.00  0.00     0.193 C 
BRANCH  22  23
HETATM   23  O   UNL     1     -45.743 -54.559  15.990  1.00  0.00    -0.394 OA
HETATM   24  C   UNL     1     -45.831 -53.277  16.592  1.00  0.00     0.201 C 
ENDBRANCH  22  23
ENDBRANCH  21  22
ENDBRANCH  20  21
ENDBRANCH   1  20
TORSDOF 6
ENDMDL
MODEL 2
REMARK VINA RESULT:      -5.7      1.903      2.459
REMARK  6 active torsions:
REMARK  status: ('A' for Active; 'I' for Inactive)
REMARK    1  A    between atoms: O_2  and  C_3 
REMARK    2  A    between atoms: C_3  and  C_4 
REMARK    3  A    between atoms: C_4  and  O_5 
REMARK    4  A    between atoms: O_5  and  C_6 
REMARK    5  A    between atoms: C_9  and  N_10 
REMARK       I    between atoms: N_10  and  C_11 
REMARK    6  A    between atoms: C_11  and  C_13 
ROOT
HETATM    1  C   UNL     1     -43.424 -54.386  13.849  1.00  0.00     0.141 A 
HETATM    2  C   UNL     1     -42.125 -54.426  14.316  1.00  0.00     0.058 A 
HETATM    3  C   UNL     1     -41.175 -53.628  13.685  1.00  0.00     0.035 A 
HETATM    4  C   UNL     1     -41.551 -52.785  12.639  1.00  0.00     0.050 A 
HETATM    5  C   UNL     1     -42.882 -52.836  12.238  1.00  0.00     0.119 A 
HETATM    6  N   UNL     1     -43.828 -53.613  12.818  1.00  0.00    -0.345 N 
ATOM      7  HN  UNL     1     -44.794 -53.613  12.494  1.00  0.00     0.167 HD
ENDROOT
BRANCH   4   8
HETATM    8  N   UNL     1     -40.653 -51.904  11.989  1.00  0.00    -0.326 N 
HETATM    9  C   UNL     1     -40.456 -50.587  12.364  1.00  0.00     0.228 C 
HETATM   10  O   UNL     1     -41.119 -50.005  13.216  1.00  0.00    -0.273 OA
HETATM   11  H   UNL     1     -40.277 -52.205  11.099  1.00  0.00     0.169 HD
BRANCH   9  12
HETATM   12  C   UNL     1     -39.392 -49.847  11.560  1.00  0.00     0.096 C 
HETATM   13  C   UNL     1     -37.964 -50.350  11.785  1.00  0.00     0.025 C 
HETATM   14  C   UNL     1     -37.481 -50.096  13.209  1.00  0.00     0.103 C 
HETATM   15  C   UNL     1     -37.795 -48.716  13.746  1.00  0.00     0.217 C 
HETATM   16  O   UNL     1     -37.196 -48.237  14.705  1.00  0.00    -0.274 OA
HETATM   17  N   UNL     1     -38.853 -48.056  13.193  1.00  0.00    -0.360 N 
HETATM   18  C   UNL     1     -39.430 -48.355  11.901  1.00  0.00     0.136 C 
HETATM   19  H   UNL     1     -39.074 -47.172  13.636  1.00  0.00     0.162 HD
ENDBRANCH   9  12
ENDBRANCH   4   8
BRANCH   1  20
HETATM   20  O   UNL     1     -44.340 -55.169  14.520  1.00  0.00    -0.334 OA
BRANCH  20  21
HETATM   21  C   UNL     1     -45.640 -55.071  13.947  1.00  0.00     0.203 C 
BRANCH  21  22
HETATM   22  C   UNL     1     -46.464 -54.082  14.759  1.00  0.00     0.193 C 
BRANCH  22  23
HETATM   23  O   UNL     1     -46.702 -52.924  13.962  1.00  0.00    -0.394 OA
HETATM   24  C   UNL     1     -46.603 -51.731  14.725  1.00  0.00     0.201 C 
ENDBRANCH  22  23
ENDBRANCH  21  22
ENDBRANCH  20  21
ENDBRANCH   1  20
TORSDOF 6
ENDMDL
MODEL 3
REMARK VINA RESULT:      -5.6      4.337      8.131
REMARK  6 active torsions:
REMARK  status: ('A' for Active; 'I' for Inactive)
REMARK    1  A    between atoms: O_2  and  C_3 
REMARK    2  A    between atoms: C_3  and  C_4 
REMARK    3  A    between atoms: C_4  and  O_5 
REMARK    4  A    between atoms: O_5  and  C_6 
REMARK    5  A    between atoms: C_9  and  N_10 
REMARK       I    between atoms: N_10  and  C_11 
REMARK    6  A    between atoms: C_11  and  C_13 
ROOT
HETATM    1  C   UNL     1     -41.529 -46.320  10.392  1.00  0.00     0.141 A 
HETATM    2  C   UNL     1     -42.873 -46.567  10.592  1.00  0.00     0.058 A 
HETATM    3  C   UNL     1     -43.246 -47.816  11.080  1.00  0.00     0.035 A 
HETATM    4  C   UNL     1     -42.273 -48.766  11.393  1.00  0.00     0.050 A 
HETATM    5  C   UNL     1     -40.950 -48.418  11.137  1.00  0.00     0.119 A 
HETATM    6  N   UNL     1     -40.554 -47.220  10.648  1.00  0.00    -0.345 N 
ATOM      7  HN  UNL     1     -39.571 -47.006  10.481  1.00  0.00     0.167 HD
ENDROOT
BRANCH   4   8
HETATM    8  N   UNL     1     -42.573 -50.034  11.946  1.00  0.00    -0.326 N 
HETATM    9  C   UNL     1     -43.104 -50.219  13.209  1.00  0.00     0.228 C 
HETATM   10  O   UNL     1     -43.259 -49.323  14.032  1.00  0.00    -0.273 OA
HETATM   11  H   UNL     1     -42.212 -50.844  11.460  1.00  0.00     0.169 HD
BRANCH   9  12
HETATM   12  C   UNL     1     -43.406 -51.671  13.569  1.00  0.00     0.096 C 
HETATM   13  C   UNL     1     -44.594 -52.275  12.815  1.00  0.00     0.025 C 
HETATM   14  C   UNL     1     -45.912 -51.603  13.183  1.00  0.00     0.103 C 
HETATM   15  C   UNL     1     -46.111 -51.372  14.666  1.00  0.00     0.217 C 
HETATM   16  O   UNL     1     -47.221 -51.172  15.151  1.00  0.00    -0.274 OA
HETATM   17  N   UNL     1     -44.992 -51.281  15.440  1.00  0.00    -0.360 N 
HETATM   18  C   UNL     1     -43.688 -51.784  15.069  1.00  0.00     0.136 C 
HETATM   19  H   UNL     1     -45.170 -51.047  16.410  1.00  0.00     0.162 HD
ENDBRANCH   9  12
ENDBRANCH   4   8
BRANCH   1  20
HETATM   20  O   UNL     1     -41.199 -45.061   9.936  1.00  0.00    -0.334 OA
BRANCH  20  21
HETATM   21  C   UNL     1     -40.308 -44.393  10.824  1.00  0.00     0.203 C 
BRANCH  21  22
HETATM   22  C   UNL     1     -41.028 -43.206  11.446  1.00  0.00     0.193 C 
BRANCH  22  23
HETATM   23  O   UNL     1     -41.962 -42.692  10.500  1.00  0.00    -0.394 OA
HETATM   24  C   UNL     1     -43.242 -42.489  11.080  1.00  0.00     0.201 C 
ENDBRANCH  22  23
ENDBRANCH  21  22
ENDBRANCH  20  21
ENDBRANCH   1  20
TORSDOF 6
ENDMDL
MODEL 4
REMARK VINA RESULT:      -5.6      3.207      4.060
REMARK  6 active torsions:
REMARK  status: ('A' for Active; 'I' for Inactive)
REMARK    1  A    between atoms: O_2  and  C_3 
REMARK    2  A    between atoms: C_3  and  C_4 
REMARK    3  A    between atoms: C_4  and  O_5 
REMARK    4  A    between atoms: O_5  and  C_6 
REMARK    5  A    between atoms: C_9  and  N_10 
REMARK       I    between atoms: N_10  and  C_11 
REMARK    6  A    between atoms: C_11  and  C_13 
ROOT
HETATM    1  C   UNL     1     -43.792 -52.736  12.454  1.00  0.00     0.141 A 
HETATM    2  C   UNL     1     -44.359 -51.662  13.112  1.00  0.00     0.058 A 
HETATM    3  C   UNL     1     -43.593 -50.512  13.273  1.00  0.00     0.035 A 
HETATM    4  C   UNL     1     -42.304 -50.447  12.742  1.00  0.00     0.050 A 
HETATM    5  C   UNL     1     -41.825 -51.592  12.113  1.00  0.00     0.119 A 
HETATM    6  N   UNL     1     -42.537 -52.732  11.953  1.00  0.00    -0.345 N 
ATOM      7  HN  UNL     1     -42.147 -53.546  11.479  1.00  0.00     0.167 HD
ENDROOT
BRANCH   4   8
HETATM    8  N   UNL     1     -41.490 -49.291  12.817  1.00  0.00    -0.326 N 
HETATM    9  C   UNL     1     -41.349 -48.378  11.787  1.00  0.00     0.228 C 
HETATM   10  O   UNL     1     -41.812 -48.528  10.662  1.00  0.00    -0.273 OA
HETATM   11  H   UNL     1     -40.845 -49.234  13.594  1.00  0.00     0.169 HD
BRANCH   9  12
HETATM   12  C   UNL     1     -40.469 -47.176  12.117  1.00  0.00     0.096 C 
HETATM   13  C   UNL     1     -41.137 -46.130  13.014  1.00  0.00     0.025 C 
HETATM   14  C   UNL     1     -42.316 -45.449  12.326  1.00  0.00     0.103 C 
HETATM   15  C   UNL     1     -42.057 -45.033  10.893  1.00  0.00     0.217 C 
HETATM   16  O   UNL     1     -42.745 -44.191  10.325  1.00  0.00    -0.274 OA
HETATM   17  N   UNL     1     -41.091 -45.711  10.210  1.00  0.00    -0.360 N 
HETATM   18  C   UNL     1     -40.033 -46.484  10.823  1.00  0.00     0.136 C 
HETATM   19  H   UNL     1     -41.008 -45.453   9.233  1.00  0.00     0.162 HD
ENDBRANCH   9  12
ENDBRANCH   4   8
BRANCH   1  20
HETATM   20  O   UNL     1     -44.593 -53.846  12.289  1.00  0.00    -0.334 OA
BRANCH  20  21
HETATM   21  C   UNL     1     -45.513 -54.000  13.366  1.00  0.00     0.203 C 
BRANCH  21  22
HETATM   22  C   UNL     1     -45.158 -55.262  14.140  1.00  0.00     0.193 C 
BRANCH  22  23
HETATM   23  O   UNL     1     -44.399 -54.894  15.289  1.00  0.00    -0.394 OA
HETATM   24  C   UNL     1     -43.031 -55.250  15.152  1.00  0.00     0.201 C 
ENDBRANCH  22  23
ENDBRANCH  21  22
ENDBRANCH  20  21
ENDBRANCH   1  20
TORSDOF 6
ENDMDL
MODEL 5
REMARK VINA RESULT:      -5.6      2.405      3.240
REMARK  6 active torsions:
REMARK  status: ('A' for Active; 'I' for Inactive)
REMARK    1  A    between atoms: O_2  and  C_3 
REMARK    2  A    between atoms: C_3  and  C_4 
REMARK    3  A    between atoms: C_4  and  O_5 
REMARK    4  A    between atoms: O_5  and  C_6 
REMARK    5  A    between atoms: C_9  and  N_10 
REMARK       I    between atoms: N_10  and  C_11 
REMARK    6  A    between atoms: C_11  and  C_13 
ROOT
HETATM    1  C   UNL     1     -43.141 -54.042  15.440  1.00  0.00     0.141 A 
HETATM    2  C   UNL     1     -42.016 -54.781  15.130  1.00  0.00     0.058 A 
HETATM    3  C   UNL     1     -40.852 -54.096  14.796  1.00  0.00     0.035 A 
HETATM    4  C   UNL     1     -40.827 -52.701  14.818  1.00  0.00     0.050 A 
HETATM    5  C   UNL     1     -42.021 -52.057  15.127  1.00  0.00     0.119 A 
HETATM    6  N   UNL     1     -43.175 -52.691  15.441  1.00  0.00    -0.345 N 
ATOM      7  HN  UNL     1     -44.026 -52.177  15.668  1.00  0.00     0.167 HD
ENDROOT
BRANCH   4   8
HETATM    8  N   UNL     1     -39.666 -51.940  14.545  1.00  0.00    -0.326 N 
HETATM    9  C   UNL     1     -39.266 -51.568  13.274  1.00  0.00     0.228 C 
HETATM   10  O   UNL     1     -39.800 -51.957  12.241  1.00  0.00    -0.273 OA
HETATM   11  H   UNL     1     -39.007 -51.820  15.303  1.00  0.00     0.169 HD
BRANCH   9  12
HETATM   12  C   UNL     1     -38.016 -50.695  13.227  1.00  0.00     0.096 C 
HETATM   13  C   UNL     1     -38.113 -49.408  14.052  1.00  0.00     0.025 C 
HETATM   14  C   UNL     1     -39.161 -48.448  13.501  1.00  0.00     0.103 C 
HETATM   15  C   UNL     1     -39.132 -48.276  11.997  1.00  0.00     0.217 C 
HETATM   16  O   UNL     1     -39.651 -47.312  11.441  1.00  0.00    -0.274 OA
HETATM   17  N   UNL     1     -38.601 -49.294  11.262  1.00  0.00    -0.360 N 
HETATM   18  C   UNL     1     -37.709 -50.309  11.778  1.00  0.00     0.136 C 
HETATM   19  H   UNL     1     -38.675 -49.170  10.259  1.00  0.00     0.162 HD
ENDBRANCH   9  12
ENDBRANCH   4   8
BRANCH   1  20
HETATM   20  O   UNL     1     -44.265 -54.757  15.795  1.00  0.00    -0.334 OA
BRANCH  20  21
HETATM   21  C   UNL     1     -45.424 -54.301  15.103  1.00  0.00     0.203 C 
BRANCH  21  22
HETATM   22  C   UNL     1     -45.597 -55.125  13.835  1.00  0.00     0.193 C 
BRANCH  22  23
HETATM   23  O   UNL     1     -45.121 -54.363  12.728  1.00  0.00    -0.394 OA
HETATM   24  C   UNL     1     -45.595 -53.025  12.766  1.00  0.00     0.201 C 
ENDBRANCH  22  23
ENDBRANCH  21  22
ENDBRANCH  20  21
ENDBRANCH   1  20
TORSDOF 6
ENDMDL
MODEL 6
REMARK VINA RESULT:      -5.5      1.917      7.417
REMARK  6 active torsions:
REMARK  status: ('A' for Active; 'I' for Inactive)
REMARK    1  A    between atoms: O_2  and  C_3 
REMARK    2  A    between atoms: C_3  and  C_4 
REMARK    3  A    between atoms: C_4  and  O_5 
REMARK    4  A    between atoms: O_5  and  C_6 
REMARK    5  A    between atoms: C_9  and  N_10 
REMARK       I    between atoms: N_10  and  C_11 
REMARK    6  A    between atoms: C_11  and  C_13 
ROOT
HETATM    1  C   UNL     1     -39.531 -51.275  12.549  1.00  0.00     0.141 A 
HETATM    2  C   UNL     1     -40.045 -52.342  13.260  1.00  0.00     0.058 A 
HETATM    3  C   UNL     1     -41.429 -52.470  13.341  1.00  0.00     0.035 A 
HETATM    4  C   UNL     1     -42.258 -51.562  12.681  1.00  0.00     0.050 A 
HETATM    5  C   UNL     1     -41.634 -50.516  12.008  1.00  0.00     0.119 A 
HETATM    6  N   UNL     1     -40.292 -50.352  11.923  1.00  0.00    -0.345 N 
ATOM      7  HN  UNL     1     -39.879 -49.572  11.413  1.00  0.00     0.167 HD
ENDROOT
BRANCH   4   8
HETATM    8  N   UNL     1     -43.669 -51.662  12.672  1.00  0.00    -0.326 N 
HETATM    9  C   UNL     1     -44.494 -51.047  13.597  1.00  0.00     0.228 C 
HETATM   10  O   UNL     1     -44.093 -50.451  14.591  1.00  0.00    -0.273 OA
HETATM   11  H   UNL     1     -44.076 -52.364  12.068  1.00  0.00     0.169 HD
BRANCH   9  12
HETATM   12  C   UNL     1     -45.987 -51.243  13.352  1.00  0.00     0.096 C 
HETATM   13  C   UNL     1     -46.827 -51.360  14.627  1.00  0.00     0.025 C 
HETATM   14  C   UNL     1     -46.494 -52.618  15.423  1.00  0.00     0.103 C 
HETATM   15  C   UNL     1     -46.364 -53.876  14.591  1.00  0.00     0.217 C 
HETATM   16  O   UNL     1     -46.445 -54.996  15.086  1.00  0.00    -0.274 OA
HETATM   17  N   UNL     1     -46.040 -53.725  13.275  1.00  0.00    -0.360 N 
HETATM   18  C   UNL     1     -46.212 -52.506  12.516  1.00  0.00     0.136 C 
HETATM   19  H   UNL     1     -45.886 -54.594  12.778  1.00  0.00     0.162 HD
ENDBRANCH   9  12
ENDBRANCH   4   8
BRANCH   1  20
HETATM   20  O   UNL     1     -38.156 -51.200  12.467  1.00  0.00    -0.334 OA
BRANCH  20  21
HETATM   21  C   UNL     1     -37.690 -49.861  12.595  1.00  0.00     0.203 C 
BRANCH  21  22
HETATM   22  C   UNL     1     -37.704 -49.472  14.066  1.00  0.00     0.193 C 
BRANCH  22  23
HETATM   23  O   UNL     1     -37.685 -48.049  14.162  1.00  0.00    -0.394 OA
HETATM   24  C   UNL     1     -38.891 -47.473  13.682  1.00  0.00     0.201 C 
ENDBRANCH  22  23
ENDBRANCH  21  22
ENDBRANCH  20  21
ENDBRANCH   1  20
TORSDOF 6
ENDMDL
MODEL 7
REMARK VINA RESULT:      -5.4      4.347      7.528
REMARK  6 active torsions:
REMARK  status: ('A' for Active; 'I' for Inactive)
REMARK    1  A    between atoms: O_2  and  C_3 
REMARK    2  A    between atoms: C_3  and  C_4 
REMARK    3  A    between atoms: C_4  and  O_5 
REMARK    4  A    between atoms: O_5  and  C_6 
REMARK    5  A    between atoms: C_9  and  N_10 
REMARK       I    between atoms: N_10  and  C_11 
REMARK    6  A    between atoms: C_11  and  C_13 
ROOT
HETATM    1  C   UNL     1     -39.047 -55.232  15.284  1.00  0.00     0.141 A 
HETATM    2  C   UNL     1     -40.149 -54.974  16.076  1.00  0.00     0.058 A 
HETATM    3  C   UNL     1     -41.142 -54.141  15.568  1.00  0.00     0.035 A 
HETATM    4  C   UNL     1     -41.031 -53.624  14.277  1.00  0.00     0.050 A 
HETATM    5  C   UNL     1     -39.872 -53.935  13.573  1.00  0.00     0.119 A 
HETATM    6  N   UNL     1     -38.880 -54.727  14.042  1.00  0.00    -0.345 N 
ATOM      7  HN  UNL     1     -38.049 -54.933  13.488  1.00  0.00     0.167 HD
ENDROOT
BRANCH   4   8
HETATM    8  N   UNL     1     -42.027 -52.818  13.674  1.00  0.00    -0.326 N 
HETATM    9  C   UNL     1     -43.327 -53.235  13.453  1.00  0.00     0.228 C 
HETATM   10  O   UNL     1     -43.728 -54.378  13.640  1.00  0.00    -0.273 OA
HETATM   11  H   UNL     1     -41.718 -51.967  13.224  1.00  0.00     0.169 HD
BRANCH   9  12
HETATM   12  C   UNL     1     -44.243 -52.175  12.848  1.00  0.00     0.096 C 
HETATM   13  C   UNL     1     -44.518 -50.979  13.764  1.00  0.00     0.025 C 
HETATM   14  C   UNL     1     -45.310 -51.375  15.005  1.00  0.00     0.103 C 
HETATM   15  C   UNL     1     -46.482 -52.296  14.740  1.00  0.00     0.217 C 
HETATM   16  O   UNL     1     -47.403 -52.426  15.541  1.00  0.00    -0.274 OA
HETATM   17  N   UNL     1     -46.427 -53.069  13.619  1.00  0.00    -0.360 N 
HETATM   18  C   UNL     1     -45.586 -52.805  12.472  1.00  0.00     0.136 C 
HETATM   19  H   UNL     1     -47.193 -53.726  13.523  1.00  0.00     0.162 HD
ENDBRANCH   9  12
ENDBRANCH   4   8
BRANCH   1  20
HETATM   20  O   UNL     1     -38.101 -56.086  15.811  1.00  0.00    -0.334 OA
BRANCH  20  21
HETATM   21  C   UNL     1     -38.292 -56.291  17.208  1.00  0.00     0.203 C 
BRANCH  21  22
HETATM   22  C   UNL     1     -36.933 -56.331  17.891  1.00  0.00     0.193 C 
BRANCH  22  23
HETATM   23  O   UNL     1     -35.922 -56.118  16.909  1.00  0.00    -0.394 OA
HETATM   24  C   UNL     1     -34.621 -56.153  17.477  1.00  0.00     0.201 C 
ENDBRANCH  22  23
ENDBRANCH  21  22
ENDBRANCH  20  21
ENDBRANCH   1  20
TORSDOF 6
ENDMDL
MODEL 8
REMARK VINA RESULT:      -5.3      3.400      7.743
REMARK  6 active torsions:
REMARK  status: ('A' for Active; 'I' for Inactive)
REMARK    1  A    between atoms: O_2  and  C_3 
REMARK    2  A    between atoms: C_3  and  C_4 
REMARK    3  A    between atoms: C_4  and  O_5 
REMARK    4  A    between atoms: O_5  and  C_6 
REMARK    5  A    between atoms: C_9  and  N_10 
REMARK       I    between atoms: N_10  and  C_11 
REMARK    6  A    between atoms: C_11  and  C_13 
ROOT
HETATM    1  C   UNL     1     -40.445 -47.896  11.628  1.00  0.00     0.141 A 
HETATM    2  C   UNL     1     -41.763 -47.998  12.030  1.00  0.00     0.058 A 
HETATM    3  C   UNL     1     -42.326 -49.268  12.116  1.00  0.00     0.035 A 
HETATM    4  C   UNL     1     -41.555 -50.398  11.842  1.00  0.00     0.050 A 
HETATM    5  C   UNL     1     -40.244 -50.179  11.430  1.00  0.00     0.119 A 
HETATM    6  N   UNL     1     -39.670 -48.958  11.320  1.00  0.00    -0.345 N 
ATOM      7  HN  UNL     1     -38.702 -48.846  11.019  1.00  0.00     0.167 HD
ENDROOT
BRANCH   4   8
HETATM    8  N   UNL     1     -42.043 -51.721  11.964  1.00  0.00    -0.326 N 
HETATM    9  C   UNL     1     -42.097 -52.417  13.158  1.00  0.00     0.228 C 
HETATM   10  O   UNL     1     -41.619 -52.016  14.214  1.00  0.00    -0.273 OA
HETATM   11  H   UNL     1     -42.189 -52.238  11.107  1.00  0.00     0.169 HD
BRANCH   9  12
HETATM   12  C   UNL     1     -42.721 -53.806  13.061  1.00  0.00     0.096 C 
HETATM   13  C   UNL     1     -44.172 -53.814  12.574  1.00  0.00     0.025 C 
HETATM   14  C   UNL     1     -45.116 -53.140  13.565  1.00  0.00     0.103 C 
HETATM   15  C   UNL     1     -44.894 -53.526  15.012  1.00  0.00     0.217 C 
HETATM   16  O   UNL     1     -45.755 -53.359  15.871  1.00  0.00    -0.274 OA
HETATM   17  N   UNL     1     -43.652 -53.971  15.357  1.00  0.00    -0.360 N 
HETATM   18  C   UNL     1     -42.673 -54.492  14.428  1.00  0.00     0.136 C 
HETATM   19  H   UNL     1     -43.527 -54.142  16.348  1.00  0.00     0.162 HD
ENDBRANCH   9  12
ENDBRANCH   4   8
BRANCH   1  20
HETATM   20  O   UNL     1     -39.916 -46.624  11.585  1.00  0.00    -0.334 OA
BRANCH  20  21
HETATM   21  C   UNL     1     -40.557 -45.817  10.601  1.00  0.00     0.203 C 
BRANCH  21  22
HETATM   22  C   UNL     1     -39.809 -44.497  10.483  1.00  0.00     0.193 C 
BRANCH  22  23
HETATM   23  O   UNL     1     -40.754 -43.430  10.540  1.00  0.00    -0.394 OA
HETATM   24  C   UNL     1     -40.532 -42.591  11.664  1.00  0.00     0.201 C 
ENDBRANCH  22  23
ENDBRANCH  21  22
ENDBRANCH  20  21
ENDBRANCH   1  20
TORSDOF 6
ENDMDL
MODEL 9
REMARK VINA RESULT:      -5.2      3.933      6.344
REMARK  6 active torsions:
REMARK  status: ('A' for Active; 'I' for Inactive)
REMARK    1  A    between atoms: O_2  and  C_3 
REMARK    2  A    between atoms: C_3  and  C_4 
REMARK    3  A    between atoms: C_4  and  O_5 
REMARK    4  A    between atoms: O_5  and  C_6 
REMARK    5  A    between atoms: C_9  and  N_10 
REMARK       I    between atoms: N_10  and  C_11 
REMARK    6  A    between atoms: C_11  and  C_13 
ROOT
HETATM    1  C   UNL     1     -42.315 -47.678  11.183  1.00  0.00     0.141 A 
HETATM    2  C   UNL     1     -43.068 -48.428  12.066  1.00  0.00     0.058 A 
HETATM    3  C   UNL     1     -42.601 -49.690  12.420  1.00  0.00     0.035 A 
HETATM    4  C   UNL     1     -41.383 -50.154  11.919  1.00  0.00     0.050 A 
HETATM    5  C   UNL     1     -40.715 -49.324  11.024  1.00  0.00     0.119 A 
HETATM    6  N   UNL     1     -41.149 -48.098  10.647  1.00  0.00    -0.345 N 
ATOM      7  HN  UNL     1     -40.622 -47.521   9.991  1.00  0.00     0.167 HD
ENDROOT
BRANCH   4   8
HETATM    8  N   UNL     1     -40.819 -51.401  12.279  1.00  0.00    -0.326 N 
HETATM    9  C   UNL     1     -40.390 -51.715  13.557  1.00  0.00     0.228 C 
HETATM   10  O   UNL     1     -40.338 -50.914  14.484  1.00  0.00    -0.273 OA
HETATM   11  H   UNL     1     -40.554 -52.020  11.525  1.00  0.00     0.169 HD
BRANCH   9  12
HETATM   12  C   UNL     1     -39.875 -53.141  13.725  1.00  0.00     0.096 C 
HETATM   13  C   UNL     1     -40.800 -54.219  13.154  1.00  0.00     0.025 C 
HETATM   14  C   UNL     1     -42.125 -54.297  13.905  1.00  0.00     0.103 C 
HETATM   15  C   UNL     1     -42.001 -54.254  15.413  1.00  0.00     0.217 C 
HETATM   16  O   UNL     1     -42.898 -54.645  16.153  1.00  0.00    -0.274 OA
HETATM   17  N   UNL     1     -40.889 -53.657  15.932  1.00  0.00    -0.360 N 
HETATM   18  C   UNL     1     -39.655 -53.439  15.210  1.00  0.00     0.136 C 
HETATM   19  H   UNL     1     -40.886 -53.581  16.943  1.00  0.00     0.162 HD
ENDBRANCH   9  12
ENDBRANCH   4   8
BRANCH   1  20
HETATM   20  O   UNL     1     -42.796 -46.422  10.882  1.00  0.00    -0.334 OA
BRANCH  20  21
HETATM   21  C   UNL     1     -42.788 -46.173   9.480  1.00  0.00     0.203 C 
BRANCH  21  22
HETATM   22  C   UNL     1     -44.217 -46.232   8.959  1.00  0.00     0.193 C 
BRANCH  22  23
HETATM   23  O   UNL     1     -44.474 -47.551   8.480  1.00  0.00    -0.394 OA
HETATM   24  C   UNL     1     -43.482 -47.978   7.559  1.00  0.00     0.201 C 
ENDBRANCH  22  23
ENDBRANCH  21  22
ENDBRANCH  20  21
ENDBRANCH   1  20
TORSDOF 6
ENDMDL
