MODEL 1
REMARK VINA RESULT:      -6.5      0.000      0.000
REMARK  5 active torsions:
REMARK  status: ('A' for Active; 'I' for Inactive)
REMARK    1  A    between atoms: C_2  and  C_5 
REMARK    2  A    between atoms: C_8  and  C_9 
REMARK    3  A    between atoms: C_9  and  C_10 
REMARK    4  A    between atoms: C_10  and  N_11 
REMARK       I    between atoms: N_11  and  C_12 
REMARK    5  A    between atoms: C_12  and  C_14 
ROOT
HETATM    1  C   UNL     1     -42.309 -47.861  11.695  1.00  0.00     0.084 C 
ENDROOT
BRANCH   1   2
HETATM    2  C   UNL     1     -43.341 -47.500  10.670  1.00  0.00     0.052 A 
HETATM    3  S   UNL     1     -43.108 -46.105   9.691  1.00  0.00    -0.086 SA
HETATM    4  C   UNL     1     -44.582 -46.432   8.885  1.00  0.00     0.085 A 
HETATM    5  C   UNL     1     -45.176 -47.573   9.397  1.00  0.00     0.123 A 
HETATM    6  N   UNL     1     -44.453 -48.166  10.439  1.00  0.00    -0.350 N 
ATOM      7  HN  UNL     1     -44.748 -48.999  10.949  1.00  0.00     0.166 HD
BRANCH   5   8
HETATM    8  C   UNL     1     -46.471 -48.171   8.923  1.00  0.00     0.433 C 
HETATM    9  F   UNL     1     -46.386 -48.612   7.637  1.00  0.00    -0.165 F 
HETATM   10  F   UNL     1     -47.493 -47.277   8.956  1.00  0.00    -0.165 F 
HETATM   11  F   UNL     1     -46.850 -49.239   9.672  1.00  0.00    -0.165 F 
ENDBRANCH   5   8
ENDBRANCH   1   2
BRANCH   1  12
HETATM   12  C   UNL     1     -41.218 -48.772  11.133  1.00  0.00     0.129 C 
BRANCH  12  13
HETATM   13  N   UNL     1     -41.545 -50.178  11.315  1.00  0.00    -0.360 N 
HETATM   14  C   UNL     1     -40.636 -51.067  11.849  1.00  0.00     0.221 C 
HETATM   15  O   UNL     1     -39.490 -50.751  12.150  1.00  0.00    -0.273 OA
HETATM   16  H   UNL     1     -42.480 -50.493  11.092  1.00  0.00     0.162 HD
BRANCH  14  17
HETATM   17  C   UNL     1     -41.197 -52.469  12.029  1.00  0.00     0.078 C 
HETATM   18  C   UNL     1     -42.695 -52.447  12.364  1.00  0.00     0.014 C 
HETATM   19  C   UNL     1     -42.924 -53.529  13.417  1.00  0.00     0.001 C 
HETATM   20  C   UNL     1     -41.605 -54.276  13.543  1.00  0.00     0.001 C 
HETATM   21  C   UNL     1     -40.560 -53.232  13.189  1.00  0.00     0.014 C 
ENDBRANCH  14  17
ENDBRANCH  12  13
ENDBRANCH   1  12
TORSDOF 5
ENDMDL
MODEL 2
REMARK VINA RESULT:      -6.5      2.287      2.734
REMARK  5 active torsions:
REMARK  status: ('A' for Active; 'I' for Inactive)
REMARK    1  A    between atoms: C_2  and  C_5 
REMARK    2  A    between atoms: C_8  and  C_9 
REMARK    3  A    between atoms: C_9  and  C_10 
REMARK    4  A    between atoms: C_10  and  N_11 
REMARK       I    between atoms: N_11  and  C_12 
REMARK    5  A    between atoms: C_12  and  C_14 
ROOT
HETATM    1  C   UNL     1     -42.568 -47.884  11.948  1.00  0.00     0.084 C 
ENDROOT
BRANCH   1   2
HETATM    2  C   UNL     1     -43.476 -47.591  10.793  1.00  0.00     0.052 A 
HETATM    3  S   UNL     1     -43.032 -46.380   9.654  1.00  0.00    -0.086 SA
HETATM    4  C   UNL     1     -44.463 -46.694   8.771  1.00  0.00     0.085 A 
HETATM    5  C   UNL     1     -45.205 -47.691   9.380  1.00  0.00     0.123 A 
HETATM    6  N   UNL     1     -44.627 -48.184  10.556  1.00  0.00    -0.350 N 
ATOM      7  HN  UNL     1     -45.041 -48.904  11.148  1.00  0.00     0.166 HD
BRANCH   5   8
HETATM    8  C   UNL     1     -46.511 -48.239   8.879  1.00  0.00     0.433 C 
HETATM    9  F   UNL     1     -46.423 -48.661   7.586  1.00  0.00    -0.165 F 
HETATM   10  F   UNL     1     -47.504 -47.312   8.912  1.00  0.00    -0.165 F 
HETATM   11  F   UNL     1     -46.936 -49.305   9.604  1.00  0.00    -0.165 F 
ENDBRANCH   5   8
ENDBRANCH   1   2
BRANCH   1  12
HETATM   12  C   UNL     1     -42.091 -49.336  11.965  1.00  0.00     0.129 C 
BRANCH  12  13
HETATM   13  N   UNL     1     -43.095 -50.225  12.528  1.00  0.00    -0.360 N 
HETATM   14  C   UNL     1     -43.156 -50.481  13.881  1.00  0.00     0.221 C 
HETATM   15  O   UNL     1     -42.346 -50.029  14.683  1.00  0.00    -0.273 OA
HETATM   16  H   UNL     1     -43.796 -50.620  11.913  1.00  0.00     0.162 HD
BRANCH  14  17
HETATM   17  C   UNL     1     -44.323 -51.372  14.277  1.00  0.00     0.078 C 
HETATM   18  C   UNL     1     -45.380 -51.456  13.166  1.00  0.00     0.014 C 
HETATM   19  C   UNL     1     -46.742 -51.425  13.855  1.00  0.00     0.001 C 
HETATM   20  C   UNL     1     -46.458 -51.506  15.347  1.00  0.00     0.001 C 
HETATM   21  C   UNL     1     -45.092 -50.860  15.493  1.00  0.00     0.014 C 
ENDBRANCH  14  17
ENDBRANCH  12  13
ENDBRANCH   1  12
TORSDOF 5
ENDMDL
MODEL 3
REMARK VINA RESULT:      -6.1      2.549      3.430
REMARK  5 active torsions:
REMARK  status: ('A' for Active; 'I' for Inactive)
REMARK    1  A    between atoms: C_2  and  C_5 
REMARK    2  A    between atoms: C_8  and  C_9 
REMARK    3  A    between atoms: C_9  and  C_10 
REMARK    4  A    between atoms: C_10  and  N_11 
REMARK       I    between atoms: N_11  and  C_12 
REMARK    5  A    between atoms: C_12  and  C_14 
ROOT
HETATM    1  C   UNL     1     -40.842 -49.589  12.164  1.00  0.00     0.084 C 
ENDROOT
BRANCH   1   2
HETATM    2  C   UNL     1     -41.660 -48.576  11.423  1.00  0.00     0.052 A 
HETATM    3  S   UNL     1     -42.076 -47.096  12.194  1.00  0.00    -0.086 SA
HETATM    4  C   UNL     1     -42.896 -46.594  10.779  1.00  0.00     0.085 A 
HETATM    5  C   UNL     1     -42.818 -47.569   9.798  1.00  0.00     0.123 A 
HETATM    6  N   UNL     1     -42.116 -48.713  10.195  1.00  0.00    -0.350 N 
ATOM      7  HN  UNL     1     -41.976 -49.539   9.613  1.00  0.00     0.166 HD
BRANCH   5   8
HETATM    8  C   UNL     1     -43.408 -47.469   8.419  1.00  0.00     0.433 C 
HETATM    9  F   UNL     1     -44.743 -47.740   8.417  1.00  0.00    -0.165 F 
HETATM   10  F   UNL     1     -42.837 -48.346   7.552  1.00  0.00    -0.165 F 
HETATM   11  F   UNL     1     -43.265 -46.229   7.885  1.00  0.00    -0.165 F 
ENDBRANCH   5   8
ENDBRANCH   1   2
BRANCH   1  12
HETATM   12  C   UNL     1     -41.299 -51.022  11.895  1.00  0.00     0.129 C 
BRANCH  12  13
HETATM   13  N   UNL     1     -42.615 -51.282  12.457  1.00  0.00    -0.360 N 
HETATM   14  C   UNL     1     -42.951 -52.518  12.970  1.00  0.00     0.221 C 
HETATM   15  O   UNL     1     -42.195 -53.482  12.935  1.00  0.00    -0.273 OA
HETATM   16  H   UNL     1     -43.277 -50.519  12.520  1.00  0.00     0.162 HD
BRANCH  14  17
HETATM   17  C   UNL     1     -44.343 -52.561  13.580  1.00  0.00     0.078 C 
HETATM   18  C   UNL     1     -45.433 -52.701  12.507  1.00  0.00     0.014 C 
HETATM   19  C   UNL     1     -46.590 -51.803  12.940  1.00  0.00     0.001 C 
HETATM   20  C   UNL     1     -46.233 -51.302  14.330  1.00  0.00     0.001 C 
HETATM   21  C   UNL     1     -44.715 -51.286  14.334  1.00  0.00     0.014 C 
ENDBRANCH  14  17
ENDBRANCH  12  13
ENDBRANCH   1  12
TORSDOF 5
ENDMDL
MODEL 4
REMARK VINA RESULT:      -6.1      1.885      2.540
REMARK  5 active torsions:
REMARK  status: ('A' for Active; 'I' for Inactive)
REMARK    1  A    between atoms: C_2  and  C_5 
REMARK    2  A    between atoms: C_8  and  C_9 
REMARK    3  A    between atoms: C_9  and  C_10 
REMARK    4  A    between atoms: C_10  and  N_11 
REMARK       I    between atoms: N_11  and  C_12 
REMARK    5  A    between atoms: C_12  and  C_14 
ROOT
HETATM    1  C   UNL     1     -40.826 -49.446  12.300  1.00  0.00     0.084 C 
ENDROOT
BRANCH   1   2
HETATM    2  C   UNL     1     -41.441 -48.405  11.415  1.00  0.00     0.052 A 
HETATM    3  S   UNL     1     -41.058 -46.747  11.669  1.00  0.00    -0.086 SA
HETATM    4  C   UNL     1     -42.063 -46.319  10.352  1.00  0.00     0.085 A 
HETATM    5  C   UNL     1     -42.639 -47.445   9.791  1.00  0.00     0.123 A 
HETATM    6  N   UNL     1     -42.282 -48.639  10.430  1.00  0.00    -0.350 N 
ATOM      7  HN  UNL     1     -42.625 -49.563  10.168  1.00  0.00     0.166 HD
BRANCH   5   8
HETATM    8  C   UNL     1     -43.567 -47.456   8.609  1.00  0.00     0.433 C 
HETATM    9  F   UNL     1     -43.769 -46.204   8.111  1.00  0.00    -0.165 F 
HETATM   10  F   UNL     1     -44.794 -47.947   8.922  1.00  0.00    -0.165 F 
HETATM   11  F   UNL     1     -43.086 -48.205   7.583  1.00  0.00    -0.165 F 
ENDBRANCH   5   8
ENDBRANCH   1   2
BRANCH   1  12
HETATM   12  C   UNL     1     -40.465 -50.722  11.540  1.00  0.00     0.129 C 
BRANCH  12  13
HETATM   13  N   UNL     1     -41.361 -51.818  11.873  1.00  0.00    -0.360 N 
HETATM   14  C   UNL     1     -40.931 -52.905  12.606  1.00  0.00     0.221 C 
HETATM   15  O   UNL     1     -39.770 -53.046  12.972  1.00  0.00    -0.273 OA
HETATM   16  H   UNL     1     -42.334 -51.751  11.603  1.00  0.00     0.162 HD
BRANCH  14  17
HETATM   17  C   UNL     1     -42.038 -53.901  12.913  1.00  0.00     0.078 C 
HETATM   18  C   UNL     1     -43.428 -53.319  12.623  1.00  0.00     0.014 C 
HETATM   19  C   UNL     1     -44.346 -53.796  13.748  1.00  0.00     0.001 C 
HETATM   20  C   UNL     1     -43.527 -54.782  14.565  1.00  0.00     0.001 C 
HETATM   21  C   UNL     1     -42.096 -54.307  14.385  1.00  0.00     0.014 C 
ENDBRANCH  14  17
ENDBRANCH  12  13
ENDBRANCH   1  12
TORSDOF 5
ENDMDL
MODEL 5
REMARK VINA RESULT:      -6.0      3.181      6.040
REMARK  5 active torsions:
REMARK  status: ('A' for Active; 'I' for Inactive)
REMARK    1  A    between atoms: C_2  and  C_5 
REMARK    2  A    between atoms: C_8  and  C_9 
REMARK    3  A    between atoms: C_9  and  C_10 
REMARK    4  A    between atoms: C_10  and  N_11 
REMARK       I    between atoms: N_11  and  C_12 
REMARK    5  A    between atoms: C_12  and  C_14 
ROOT
HETATM    1  C   UNL     1     -41.785 -49.950  13.221  1.00  0.00     0.084 C 
ENDROOT
BRANCH   1   2
HETATM    2  C   UNL     1     -42.919 -50.924  13.119  1.00  0.00     0.052 A 
HETATM    3  S   UNL     1     -42.604 -52.538  12.613  1.00  0.00    -0.086 SA
HETATM    4  C   UNL     1     -44.265 -52.910  12.786  1.00  0.00     0.085 A 
HETATM    5  C   UNL     1     -44.973 -51.800  13.212  1.00  0.00     0.123 A 
HETATM    6  N   UNL     1     -44.181 -50.658  13.381  1.00  0.00    -0.350 N 
ATOM      7  HN  UNL     1     -44.533 -49.745  13.669  1.00  0.00     0.166 HD
BRANCH   5   8
HETATM    8  C   UNL     1     -46.450 -51.757  13.485  1.00  0.00     0.433 C 
HETATM    9  F   UNL     1     -46.745 -50.980  14.565  1.00  0.00    -0.165 F 
HETATM   10  F   UNL     1     -46.960 -52.988  13.748  1.00  0.00    -0.165 F 
HETATM   11  F   UNL     1     -47.154 -51.247  12.441  1.00  0.00    -0.165 F 
ENDBRANCH   5   8
ENDBRANCH   1   2
BRANCH   1  12
HETATM   12  C   UNL     1     -41.191 -49.597  11.857  1.00  0.00     0.129 C 
BRANCH  12  13
HETATM   13  N   UNL     1     -42.203 -49.088  10.945  1.00  0.00    -0.360 N 
HETATM   14  C   UNL     1     -42.100 -47.835  10.378  1.00  0.00     0.221 C 
HETATM   15  O   UNL     1     -41.193 -47.055  10.644  1.00  0.00    -0.273 OA
HETATM   16  H   UNL     1     -42.971 -49.694  10.682  1.00  0.00     0.162 HD
BRANCH  14  17
HETATM   17  C   UNL     1     -43.217 -47.523   9.395  1.00  0.00     0.078 C 
HETATM   18  C   UNL     1     -43.196 -46.052   8.955  1.00  0.00     0.014 C 
HETATM   19  C   UNL     1     -44.653 -45.595   8.887  1.00  0.00     0.001 C 
HETATM   20  C   UNL     1     -45.493 -46.843   9.109  1.00  0.00     0.001 C 
HETATM   21  C   UNL     1     -44.614 -47.724   9.979  1.00  0.00     0.014 C 
ENDBRANCH  14  17
ENDBRANCH  12  13
ENDBRANCH   1  12
TORSDOF 5
ENDMDL
MODEL 6
REMARK VINA RESULT:      -5.9      2.299      2.993
REMARK  5 active torsions:
REMARK  status: ('A' for Active; 'I' for Inactive)
REMARK    1  A    between atoms: C_2  and  C_5 
REMARK    2  A    between atoms: C_8  and  C_9 
REMARK    3  A    between atoms: C_9  and  C_10 
REMARK    4  A    between atoms: C_10  and  N_11 
REMARK       I    between atoms: N_11  and  C_12 
REMARK    5  A    between atoms: C_12  and  C_14 
ROOT
HETATM    1  C   UNL     1     -42.661 -47.440  11.931  1.00  0.00     0.084 C 
ENDROOT
BRANCH   1   2
HETATM    2  C   UNL     1     -43.593 -47.282  10.768  1.00  0.00     0.052 A 
HETATM    3  S   UNL     1     -43.280 -46.063   9.594  1.00  0.00    -0.086 SA
HETATM    4  C   UNL     1     -44.666 -46.558   8.720  1.00  0.00     0.085 A 
HETATM    5  C   UNL     1     -45.295 -47.613   9.359  1.00  0.00     0.123 A 
HETATM    6  N   UNL     1     -44.670 -48.005  10.548  1.00  0.00    -0.350 N 
ATOM      7  HN  UNL     1     -45.004 -48.749  11.161  1.00  0.00     0.166 HD
BRANCH   5   8
HETATM    8  C   UNL     1     -46.532 -48.315   8.873  1.00  0.00     0.433 C 
HETATM    9  F   UNL     1     -47.629 -47.508   8.927  1.00  0.00    -0.165 F 
HETATM   10  F   UNL     1     -46.826 -49.412   9.619  1.00  0.00    -0.165 F 
HETATM   11  F   UNL     1     -46.419 -48.726   7.584  1.00  0.00    -0.165 F 
ENDBRANCH   5   8
ENDBRANCH   1   2
BRANCH   1  12
HETATM   12  C   UNL     1     -42.340 -48.904  12.230  1.00  0.00     0.129 C 
BRANCH  12  13
HETATM   13  N   UNL     1     -40.906 -49.149  12.238  1.00  0.00    -0.360 N 
HETATM   14  C   UNL     1     -40.180 -49.148  13.410  1.00  0.00     0.221 C 
HETATM   15  O   UNL     1     -40.674 -48.888  14.502  1.00  0.00    -0.273 OA
HETATM   16  H   UNL     1     -40.447 -49.379  11.366  1.00  0.00     0.162 HD
BRANCH  14  17
HETATM   17  C   UNL     1     -38.714 -49.503  13.213  1.00  0.00     0.078 C 
HETATM   18  C   UNL     1     -38.232 -49.173  11.793  1.00  0.00     0.014 C 
HETATM   19  C   UNL     1     -37.314 -50.316  11.366  1.00  0.00     0.001 C 
HETATM   20  C   UNL     1     -37.135 -51.190  12.598  1.00  0.00     0.001 C 
HETATM   21  C   UNL     1     -38.424 -50.994  13.375  1.00  0.00     0.014 C 
ENDBRANCH  14  17
ENDBRANCH  12  13
ENDBRANCH   1  12
TORSDOF 5
ENDMDL
MODEL 7
REMARK VINA RESULT:      -5.7      3.381      6.180
REMARK  5 active torsions:
REMARK  status: ('A' for Active; 'I' for Inactive)
REMARK    1  A    between atoms: C_2  and  C_5 
REMARK    2  A    between atoms: C_8  and  C_9 
REMARK    3  A    between atoms: C_9  and  C_10 
REMARK    4  A    between atoms: C_10  and  N_11 
REMARK       I    between atoms: N_11  and  C_12 
REMARK    5  A    between atoms: C_12  and  C_14 
ROOT
HETATM    1  C   UNL     1     -41.584 -52.389  11.882  1.00  0.00     0.084 C 
ENDROOT
BRANCH   1   2
HETATM    2  C   UNL     1     -42.815 -52.696  12.680  1.00  0.00     0.052 A 
HETATM    3  S   UNL     1     -42.763 -53.941  13.866  1.00  0.00    -0.086 SA
HETATM    4  C   UNL     1     -44.399 -53.627  14.259  1.00  0.00     0.085 A 
HETATM    5  C   UNL     1     -44.902 -52.603  13.474  1.00  0.00     0.123 A 
HETATM    6  N   UNL     1     -43.977 -52.091  12.556  1.00  0.00    -0.350 N 
ATOM      7  HN  UNL     1     -44.176 -51.350  11.884  1.00  0.00     0.166 HD
BRANCH   5   8
HETATM    8  C   UNL     1     -46.296 -52.048  13.550  1.00  0.00     0.433 C 
HETATM    9  F   UNL     1     -47.178 -52.957  14.051  1.00  0.00    -0.165 F 
HETATM   10  F   UNL     1     -46.772 -51.684  12.331  1.00  0.00    -0.165 F 
HETATM   11  F   UNL     1     -46.373 -50.955  14.352  1.00  0.00    -0.165 F 
ENDBRANCH   5   8
ENDBRANCH   1   2
BRANCH   1  12
HETATM   12  C   UNL     1     -40.903 -51.096  12.330  1.00  0.00     0.129 C 
BRANCH  12  13
HETATM   13  N   UNL     1     -41.119 -50.017  11.380  1.00  0.00    -0.360 N 
HETATM   14  C   UNL     1     -42.141 -49.105  11.542  1.00  0.00     0.221 C 
HETATM   15  O   UNL     1     -42.959 -49.175  12.453  1.00  0.00    -0.273 OA
HETATM   16  H   UNL     1     -40.467 -49.905  10.613  1.00  0.00     0.162 HD
BRANCH  14  17
HETATM   17  C   UNL     1     -42.148 -48.011  10.487  1.00  0.00     0.078 C 
HETATM   18  C   UNL     1     -41.118 -46.915  10.793  1.00  0.00     0.014 C 
HETATM   19  C   UNL     1     -41.777 -45.583  10.439  1.00  0.00     0.001 C 
HETATM   20  C   UNL     1     -43.097 -45.935   9.772  1.00  0.00     0.001 C 
HETATM   21  C   UNL     1     -43.479 -47.265  10.396  1.00  0.00     0.014 C 
ENDBRANCH  14  17
ENDBRANCH  12  13
ENDBRANCH   1  12
TORSDOF 5
ENDMDL
MODEL 8
REMARK VINA RESULT:      -5.7      5.590      7.096
REMARK  5 active torsions:
REMARK  status: ('A' for Active; 'I' for Inactive)
REMARK    1  A    between atoms: C_2  and  C_5 
REMARK    2  A    between atoms: C_8  and  C_9 
REMARK    3  A    between atoms: C_9  and  C_10 
REMARK    4  A    between atoms: C_10  and  N_11 
REMARK       I    between atoms: N_11  and  C_12 
REMARK    5  A    between atoms: C_12  and  C_14 
ROOT
HETATM    1  C   UNL     1     -41.242 -53.242  14.107  1.00  0.00     0.084 C 
ENDROOT
BRANCH   1   2
HETATM    2  C   UNL     1     -40.608 -52.159  13.288  1.00  0.00     0.052 A 
HETATM    3  S   UNL     1     -41.599 -51.155  12.303  1.00  0.00    -0.086 SA
HETATM    4  C   UNL     1     -40.211 -50.288  11.802  1.00  0.00     0.085 A 
HETATM    5  C   UNL     1     -39.072 -50.800  12.400  1.00  0.00     0.123 A 
HETATM    6  N   UNL     1     -39.320 -51.891  13.241  1.00  0.00    -0.350 N 
ATOM      7  HN  UNL     1     -38.602 -52.408  13.748  1.00  0.00     0.166 HD
BRANCH   5   8
HETATM    8  C   UNL     1     -37.676 -50.280  12.208  1.00  0.00     0.433 C 
HETATM    9  F   UNL     1     -37.437 -49.173  12.966  1.00  0.00    -0.165 F 
HETATM   10  F   UNL     1     -37.433 -49.923  10.920  1.00  0.00    -0.165 F 
HETATM   11  F   UNL     1     -36.733 -51.195  12.554  1.00  0.00    -0.165 F 
ENDBRANCH   5   8
ENDBRANCH   1   2
BRANCH   1  12
HETATM   12  C   UNL     1     -42.221 -54.092  13.297  1.00  0.00     0.129 C 
BRANCH  12  13
HETATM   13  N   UNL     1     -43.595 -53.651  13.479  1.00  0.00    -0.360 N 
HETATM   14  C   UNL     1     -44.490 -54.373  14.240  1.00  0.00     0.221 C 
HETATM   15  O   UNL     1     -44.210 -55.448  14.760  1.00  0.00    -0.273 OA
HETATM   16  H   UNL     1     -43.879 -52.766  13.080  1.00  0.00     0.162 HD
BRANCH  14  17
HETATM   17  C   UNL     1     -45.850 -53.705  14.371  1.00  0.00     0.078 C 
HETATM   18  C   UNL     1     -45.983 -52.494  13.436  1.00  0.00     0.014 C 
HETATM   19  C   UNL     1     -46.728 -51.415  14.221  1.00  0.00     0.001 C 
HETATM   20  C   UNL     1     -47.169 -52.072  15.519  1.00  0.00     0.001 C 
HETATM   21  C   UNL     1     -46.116 -53.138  15.764  1.00  0.00     0.014 C 
ENDBRANCH  14  17
ENDBRANCH  12  13
ENDBRANCH   1  12
TORSDOF 5
ENDMDL
MODEL 9
REMARK VINA RESULT:      -5.6      4.460      5.778
REMARK  5 active torsions:
REMARK  status: ('A' for Active; 'I' for Inactive)
REMARK    1  A    between atoms: C_2  and  C_5 
REMARK    2  A    between atoms: C_8  and  C_9 
REMARK    3  A    between atoms: C_9  and  C_10 
REMARK    4  A    between atoms: C_10  and  N_11 
REMARK       I    between atoms: N_11  and  C_12 
REMARK    5  A    between atoms: C_12  and  C_14 
ROOT
HETATM    1  C   UNL     1     -42.039 -54.235  13.369  1.00  0.00     0.084 C 
ENDROOT
BRANCH   1   2
HETATM    2  C   UNL     1     -43.488 -53.873  13.491  1.00  0.00     0.052 A 
HETATM    3  S   UNL     1     -44.553 -54.923  14.341  1.00  0.00    -0.086 SA
HETATM    4  C   UNL     1     -45.847 -53.844  14.040  1.00  0.00     0.085 A 
HETATM    5  C   UNL     1     -45.412 -52.750  13.311  1.00  0.00     0.123 A 
HETATM    6  N   UNL     1     -44.051 -52.794  12.989  1.00  0.00    -0.350 N 
ATOM      7  HN  UNL     1     -43.562 -52.086  12.441  1.00  0.00     0.166 HD
BRANCH   5   8
HETATM    8  C   UNL     1     -46.267 -51.593  12.878  1.00  0.00     0.433 C 
HETATM    9  F   UNL     1     -47.088 -51.928  11.843  1.00  0.00    -0.165 F 
HETATM   10  F   UNL     1     -45.526 -50.537  12.454  1.00  0.00    -0.165 F 
HETATM   11  F   UNL     1     -47.070 -51.143  13.876  1.00  0.00    -0.165 F 
ENDBRANCH   5   8
ENDBRANCH   1   2
BRANCH   1  12
HETATM   12  C   UNL     1     -41.216 -53.770  14.570  1.00  0.00     0.129 C 
BRANCH  12  13
HETATM   13  N   UNL     1     -40.558 -52.499  14.311  1.00  0.00    -0.360 N 
HETATM   14  C   UNL     1     -39.271 -52.439  13.819  1.00  0.00     0.221 C 
HETATM   15  O   UNL     1     -38.584 -53.435  13.624  1.00  0.00    -0.273 OA
HETATM   16  H   UNL     1     -41.081 -51.643  14.446  1.00  0.00     0.162 HD
BRANCH  14  17
HETATM   17  C   UNL     1     -38.795 -51.021  13.543  1.00  0.00     0.078 C 
HETATM   18  C   UNL     1     -39.860 -50.193  12.811  1.00  0.00     0.014 C 
HETATM   19  C   UNL     1     -39.121 -49.348  11.775  1.00  0.00     0.001 C 
HETATM   20  C   UNL     1     -37.640 -49.561  12.041  1.00  0.00     0.001 C 
HETATM   21  C   UNL     1     -37.572 -50.959  12.629  1.00  0.00     0.014 C 
ENDBRANCH  14  17
ENDBRANCH  12  13
ENDBRANCH   1  12
TORSDOF 5
ENDMDL
