MODEL 1
REMARK VINA RESULT:      -6.2      0.000      0.000
REMARK  4 active torsions:
REMARK  status: ('A' for Active; 'I' for Inactive)
REMARK    1  A    between atoms: O_2  and  C_3 
REMARK    2  A    between atoms: C_3  and  C_4 
REMARK    3  A    between atoms: C_4  and  N_5 
REMARK    4  A    between atoms: C_6  and  N_18 
ROOT
HETATM    1  N   UNL     1     -40.721 -48.666  12.016  1.00  0.00    -0.170 N 
HETATM    2  C   UNL     1     -41.737 -49.602  12.192  1.00  0.00     0.708 A 
HETATM    3  N   UNL     1     -42.805 -49.279  11.470  1.00  0.00    -0.172 N 
ATOM      4  HN  UNL     1     -43.662 -49.819  11.357  1.00  0.00     0.186 HD
HETATM    5  C   UNL     1     -42.504 -48.066  10.914  1.00  0.00     0.160 A 
HETATM    6  N   UNL     1     -43.331 -47.281  10.126  1.00  0.00    -0.287 N 
HETATM    7  C   UNL     1     -44.702 -47.628   9.834  1.00  0.00     0.163 C 
HETATM    8  C   UNL     1     -42.835 -46.091   9.602  1.00  0.00     0.330 A 
HETATM    9  O   UNL     1     -43.493 -45.334   8.888  1.00  0.00    -0.246 OA
HETATM   10  N   UNL     1     -41.531 -45.756   9.912  1.00  0.00    -0.273 N 
HETATM   11  C   UNL     1     -40.664 -46.464  10.707  1.00  0.00     0.280 A 
HETATM   12  O   UNL     1     -39.529 -46.048  10.923  1.00  0.00    -0.265 OA
HETATM   13  C   UNL     1     -41.229 -47.673  11.210  1.00  0.00     0.164 A 
HETATM   14  H   UNL     1     -41.193 -44.890   9.527  1.00  0.00     0.173 HD
ENDROOT
BRANCH   2  15
HETATM   15  N   UNL     1     -41.631 -50.758  12.994  1.00  0.00    -0.090 N 
HETATM   16  N   UNL     1     -41.319 -51.919  12.369  1.00  0.00    -0.284 N 
HETATM   17  C   UNL     1     -41.363 -52.863  13.306  1.00  0.00     0.031 A 
ATOM     18  HN  UNL     1     -41.096 -52.044  11.381  1.00  0.00     0.188 HD
HETATM   19  C   UNL     1     -41.101 -54.281  12.946  1.00  0.00     0.070 C 
HETATM   20  C   UNL     1     -41.692 -52.329  14.573  1.00  0.00    -0.013 A 
HETATM   21  C   UNL     1     -41.882 -53.081  15.840  1.00  0.00     0.052 C 
HETATM   22  C   UNL     1     -41.817 -50.963  14.354  1.00  0.00     0.056 A 
HETATM   23  C   UNL     1     -42.184 -49.888  15.310  1.00  0.00     0.072 C 
ENDBRANCH   2  15
BRANCH   1  24
HETATM   24  C   UNL     1     -39.330 -48.777  12.427  1.00  0.00     0.174 C 
BRANCH  24  25
HETATM   25  C   UNL     1     -38.520 -49.701  11.520  1.00  0.00     0.187 C 
BRANCH  25  26
HETATM   26  O   UNL     1     -38.439 -51.002  12.102  1.00  0.00    -0.394 OA
HETATM   27  C   UNL     1     -37.970 -50.932  13.443  1.00  0.00     0.201 C 
ENDBRANCH  25  26
ENDBRANCH  24  25
ENDBRANCH   1  24
TORSDOF 4
ENDMDL
MODEL 2
REMARK VINA RESULT:      -5.8      2.505      5.945
REMARK  4 active torsions:
REMARK  status: ('A' for Active; 'I' for Inactive)
REMARK    1  A    between atoms: O_2  and  C_3 
REMARK    2  A    between atoms: C_3  and  C_4 
REMARK    3  A    between atoms: C_4  and  N_5 
REMARK    4  A    between atoms: C_6  and  N_18 
ROOT
HETATM    1  N   UNL     1     -41.531 -50.383  11.993  1.00  0.00    -0.170 N 
HETATM    2  C   UNL     1     -42.657 -49.569  12.077  1.00  0.00     0.708 A 
HETATM    3  N   UNL     1     -43.618 -50.165  12.774  1.00  0.00    -0.172 N 
ATOM      4  HN  UNL     1     -44.519 -49.774  13.048  1.00  0.00     0.186 HD
HETATM    5  C   UNL     1     -43.136 -51.418  13.045  1.00  0.00     0.160 A 
HETATM    6  N   UNL     1     -43.801 -52.444  13.696  1.00  0.00    -0.287 N 
HETATM    7  C   UNL     1     -45.173 -52.343  14.133  1.00  0.00     0.163 C 
HETATM    8  C   UNL     1     -43.131 -53.643  13.928  1.00  0.00     0.330 A 
HETATM    9  O   UNL     1     -43.637 -54.606  14.504  1.00  0.00    -0.246 OA
HETATM   10  N   UNL     1     -41.828 -53.738  13.481  1.00  0.00    -0.273 N 
HETATM   11  C   UNL     1     -41.115 -52.779  12.804  1.00  0.00     0.280 A 
HETATM   12  O   UNL     1     -39.962 -52.994  12.441  1.00  0.00    -0.265 OA
HETATM   13  C   UNL     1     -41.854 -51.575  12.600  1.00  0.00     0.164 A 
HETATM   14  H   UNL     1     -41.363 -54.613  13.654  1.00  0.00     0.173 HD
ENDROOT
BRANCH   2  15
HETATM   15  N   UNL     1     -42.750 -48.271  11.531  1.00  0.00    -0.090 N 
HETATM   16  N   UNL     1     -43.180 -48.169  10.250  1.00  0.00    -0.284 N 
HETATM   17  C   UNL     1     -43.101 -46.877   9.940  1.00  0.00     0.031 A 
ATOM     18  HN  UNL     1     -43.499 -48.927   9.646  1.00  0.00     0.188 HD
HETATM   19  C   UNL     1     -43.470 -46.415   8.576  1.00  0.00     0.070 C 
HETATM   20  C   UNL     1     -42.630 -46.105  11.026  1.00  0.00    -0.013 A 
HETATM   21  C   UNL     1     -42.365 -44.643  11.039  1.00  0.00     0.052 C 
HETATM   22  C   UNL     1     -42.453 -47.022  12.055  1.00  0.00     0.056 A 
HETATM   23  C   UNL     1     -41.943 -46.803  13.432  1.00  0.00     0.072 C 
ENDBRANCH   2  15
BRANCH   1  24
HETATM   24  C   UNL     1     -40.200 -50.015  11.535  1.00  0.00     0.174 C 
BRANCH  24  25
HETATM   25  C   UNL     1     -39.330 -49.444  12.653  1.00  0.00     0.187 C 
BRANCH  25  26
HETATM   26  O   UNL     1     -38.049 -50.074  12.641  1.00  0.00    -0.394 OA
HETATM   27  C   UNL     1     -37.465 -50.015  11.346  1.00  0.00     0.201 C 
ENDBRANCH  25  26
ENDBRANCH  24  25
ENDBRANCH   1  24
TORSDOF 4
ENDMDL
MODEL 3
REMARK VINA RESULT:      -5.8      2.985      6.166
REMARK  4 active torsions:
REMARK  status: ('A' for Active; 'I' for Inactive)
REMARK    1  A    between atoms: O_2  and  C_3 
REMARK    2  A    between atoms: C_3  and  C_4 
REMARK    3  A    between atoms: C_4  and  N_5 
REMARK    4  A    between atoms: C_6  and  N_18 
ROOT
HETATM    1  N   UNL     1     -42.210 -51.074  13.142  1.00  0.00    -0.170 N 
HETATM    2  C   UNL     1     -43.280 -50.202  12.958  1.00  0.00     0.708 A 
HETATM    3  N   UNL     1     -44.433 -50.813  13.209  1.00  0.00    -0.172 N 
ATOM      4  HN  UNL     1     -45.365 -50.398  13.220  1.00  0.00     0.186 HD
HETATM    5  C   UNL     1     -44.099 -52.118  13.450  1.00  0.00     0.160 A 
HETATM    6  N   UNL     1     -44.967 -53.169  13.699  1.00  0.00    -0.287 N 
HETATM    7  C   UNL     1     -46.403 -53.029  13.665  1.00  0.00     0.163 C 
HETATM    8  C   UNL     1     -44.442 -54.429  13.973  1.00  0.00     0.330 A 
HETATM    9  O   UNL     1     -45.134 -55.419  14.211  1.00  0.00    -0.246 OA
HETATM   10  N   UNL     1     -43.066 -54.556  13.974  1.00  0.00    -0.273 N 
HETATM   11  C   UNL     1     -42.146 -53.572  13.709  1.00  0.00     0.280 A 
HETATM   12  O   UNL     1     -40.943 -53.818  13.722  1.00  0.00    -0.265 OA
HETATM   13  C   UNL     1     -42.745 -52.306  13.438  1.00  0.00     0.164 A 
HETATM   14  H   UNL     1     -42.707 -55.474  14.170  1.00  0.00     0.173 HD
ENDROOT
BRANCH   2  15
HETATM   15  N   UNL     1     -43.155 -48.844  12.594  1.00  0.00    -0.090 N 
HETATM   16  N   UNL     1     -43.232 -48.548  11.275  1.00  0.00    -0.284 N 
HETATM   17  C   UNL     1     -43.002 -47.240  11.179  1.00  0.00     0.031 A 
ATOM     18  HN  UNL     1     -43.426 -49.194  10.510  1.00  0.00     0.188 HD
HETATM   19  C   UNL     1     -42.979 -46.584   9.846  1.00  0.00     0.070 C 
HETATM   20  C   UNL     1     -42.785 -46.652  12.446  1.00  0.00    -0.013 A 
HETATM   21  C   UNL     1     -42.450 -45.234  12.730  1.00  0.00     0.052 C 
HETATM   22  C   UNL     1     -42.933 -47.700  13.347  1.00  0.00     0.056 A 
HETATM   23  C   UNL     1     -42.785 -47.697  14.824  1.00  0.00     0.072 C 
ENDBRANCH   2  15
BRANCH   1  24
HETATM   24  C   UNL     1     -40.795 -50.742  13.204  1.00  0.00     0.174 C 
BRANCH  24  25
HETATM   25  C   UNL     1     -40.118 -50.796  11.836  1.00  0.00     0.187 C 
BRANCH  25  26
HETATM   26  O   UNL     1     -40.242 -49.533  11.183  1.00  0.00    -0.394 OA
HETATM   27  C   UNL     1     -39.538 -48.522  11.892  1.00  0.00     0.201 C 
ENDBRANCH  25  26
ENDBRANCH  24  25
ENDBRANCH   1  24
TORSDOF 4
ENDMDL
MODEL 4
REMARK VINA RESULT:      -5.6      2.185      3.107
REMARK  4 active torsions:
REMARK  status: ('A' for Active; 'I' for Inactive)
REMARK    1  A    between atoms: O_2  and  C_3 
REMARK    2  A    between atoms: C_3  and  C_4 
REMARK    3  A    between atoms: C_4  and  N_5 
REMARK    4  A    between atoms: C_6  and  N_18 
ROOT
HETATM    1  N   UNL     1     -42.194 -48.467  13.130  1.00  0.00    -0.170 N 
HETATM    2  C   UNL     1     -42.263 -49.421  12.118  1.00  0.00     0.708 A 
HETATM    3  N   UNL     1     -42.426 -48.841  10.934  1.00  0.00    -0.172 N 
ATOM      4  HN  UNL     1     -42.439 -49.291  10.020  1.00  0.00     0.186 HD
HETATM    5  C   UNL     1     -42.570 -47.508  11.209  1.00  0.00     0.160 A 
HETATM    6  N   UNL     1     -42.830 -46.492  10.302  1.00  0.00    -0.287 N 
HETATM    7  C   UNL     1     -43.061 -46.731   8.897  1.00  0.00     0.163 C 
HETATM    8  C   UNL     1     -42.895 -45.179  10.759  1.00  0.00     0.330 A 
HETATM    9  O   UNL     1     -43.115 -44.213  10.028  1.00  0.00    -0.246 OA
HETATM   10  N   UNL     1     -42.701 -44.967  12.110  1.00  0.00    -0.273 N 
HETATM   11  C   UNL     1     -42.470 -45.920  13.070  1.00  0.00     0.280 A 
HETATM   12  O   UNL     1     -42.332 -45.604  14.249  1.00  0.00    -0.265 OA
HETATM   13  C   UNL     1     -42.411 -47.244  12.541  1.00  0.00     0.164 A 
HETATM   14  H   UNL     1     -42.757 -44.012  12.420  1.00  0.00     0.173 HD
ENDROOT
BRANCH   2  15
HETATM   15  N   UNL     1     -42.137 -50.813  12.318  1.00  0.00    -0.090 N 
HETATM   16  N   UNL     1     -43.282 -51.533  12.391  1.00  0.00    -0.284 N 
HETATM   17  C   UNL     1     -42.912 -52.782  12.665  1.00  0.00     0.031 A 
ATOM     18  HN  UNL     1     -44.234 -51.189  12.262  1.00  0.00     0.188 HD
HETATM   19  C   UNL     1     -43.940 -53.840  12.848  1.00  0.00     0.070 C 
HETATM   20  C   UNL     1     -41.507 -52.903  12.761  1.00  0.00    -0.013 A 
HETATM   21  C   UNL     1     -40.734 -54.125  13.101  1.00  0.00     0.052 C 
HETATM   22  C   UNL     1     -41.027 -51.628  12.489  1.00  0.00     0.056 A 
HETATM   23  C   UNL     1     -39.628 -51.132  12.478  1.00  0.00     0.072 C 
ENDBRANCH   2  15
BRANCH   1  24
HETATM   24  C   UNL     1     -41.786 -48.666  14.512  1.00  0.00     0.174 C 
BRANCH  24  25
HETATM   25  C   UNL     1     -42.960 -49.007  15.428  1.00  0.00     0.187 C 
BRANCH  25  26
HETATM   26  O   UNL     1     -43.211 -50.412  15.392  1.00  0.00    -0.394 OA
HETATM   27  C   UNL     1     -44.591 -50.687  15.595  1.00  0.00     0.201 C 
ENDBRANCH  25  26
ENDBRANCH  24  25
ENDBRANCH   1  24
TORSDOF 4
ENDMDL
MODEL 5
REMARK VINA RESULT:      -5.6      2.802      5.915
REMARK  4 active torsions:
REMARK  status: ('A' for Active; 'I' for Inactive)
REMARK    1  A    between atoms: O_2  and  C_3 
REMARK    2  A    between atoms: C_3  and  C_4 
REMARK    3  A    between atoms: C_4  and  N_5 
REMARK    4  A    between atoms: C_6  and  N_18 
ROOT
HETATM    1  N   UNL     1     -41.784 -50.361  12.634  1.00  0.00    -0.170 N 
HETATM    2  C   UNL     1     -42.836 -49.450  12.672  1.00  0.00     0.708 A 
HETATM    3  N   UNL     1     -43.998 -50.079  12.807  1.00  0.00    -0.172 N 
ATOM      4  HN  UNL     1     -44.919 -49.660  12.930  1.00  0.00     0.186 HD
HETATM    5  C   UNL     1     -43.691 -51.411  12.745  1.00  0.00     0.160 A 
HETATM    6  N   UNL     1     -44.579 -52.475  12.772  1.00  0.00    -0.287 N 
HETATM    7  C   UNL     1     -46.012 -52.304  12.803  1.00  0.00     0.163 C 
HETATM    8  C   UNL     1     -44.079 -53.774  12.749  1.00  0.00     0.330 A 
HETATM    9  O   UNL     1     -44.790 -54.778  12.776  1.00  0.00    -0.246 OA
HETATM   10  N   UNL     1     -42.707 -53.924  12.691  1.00  0.00    -0.273 N 
HETATM   11  C   UNL     1     -41.769 -52.924  12.631  1.00  0.00     0.280 A 
HETATM   12  O   UNL     1     -40.572 -53.189  12.563  1.00  0.00    -0.265 OA
HETATM   13  C   UNL     1     -42.342 -51.618  12.661  1.00  0.00     0.164 A 
HETATM   14  H   UNL     1     -42.366 -54.870  12.671  1.00  0.00     0.173 HD
ENDROOT
BRANCH   2  15
HETATM   15  N   UNL     1     -42.685 -48.048  12.616  1.00  0.00    -0.090 N 
HETATM   16  N   UNL     1     -42.821 -47.365  13.778  1.00  0.00    -0.284 N 
HETATM   17  C   UNL     1     -42.724 -46.077  13.459  1.00  0.00     0.031 A 
ATOM     18  HN  UNL     1     -42.968 -47.758  14.708  1.00  0.00     0.188 HD
HETATM   19  C   UNL     1     -42.866 -45.037  14.512  1.00  0.00     0.070 C 
HETATM   20  C   UNL     1     -42.506 -45.895  12.075  1.00  0.00    -0.013 A 
HETATM   21  C   UNL     1     -42.397 -44.605  11.346  1.00  0.00     0.052 C 
HETATM   22  C   UNL     1     -42.439 -47.183  11.559  1.00  0.00     0.056 A 
HETATM   23  C   UNL     1     -42.260 -47.625  10.154  1.00  0.00     0.072 C 
ENDBRANCH   2  15
BRANCH   1  24
HETATM   24  C   UNL     1     -40.360 -50.079  12.738  1.00  0.00     0.174 C 
BRANCH  24  25
HETATM   25  C   UNL     1     -39.696 -49.897  11.374  1.00  0.00     0.187 C 
BRANCH  25  26
HETATM   26  O   UNL     1     -38.284 -50.066  11.495  1.00  0.00    -0.394 OA
HETATM   27  C   UNL     1     -37.956 -50.765  12.689  1.00  0.00     0.201 C 
ENDBRANCH  25  26
ENDBRANCH  24  25
ENDBRANCH   1  24
TORSDOF 4
ENDMDL
MODEL 6
REMARK VINA RESULT:      -5.5      1.954      2.114
REMARK  4 active torsions:
REMARK  status: ('A' for Active; 'I' for Inactive)
REMARK    1  A    between atoms: O_2  and  C_3 
REMARK    2  A    between atoms: C_3  and  C_4 
REMARK    3  A    between atoms: C_4  and  N_5 
REMARK    4  A    between atoms: C_6  and  N_18 
ROOT
HETATM    1  N   UNL     1     -41.271 -49.557  12.952  1.00  0.00    -0.170 N 
HETATM    2  C   UNL     1     -42.605 -49.868  12.701  1.00  0.00     0.708 A 
HETATM    3  N   UNL     1     -43.123 -49.033  11.807  1.00  0.00    -0.172 N 
ATOM      4  HN  UNL     1     -44.052 -49.070  11.390  1.00  0.00     0.186 HD
HETATM    5  C   UNL     1     -42.138 -48.113  11.568  1.00  0.00     0.160 A 
HETATM    6  N   UNL     1     -42.220 -46.996  10.752  1.00  0.00    -0.287 N 
HETATM    7  C   UNL     1     -43.432 -46.604  10.072  1.00  0.00     0.163 C 
HETATM    8  C   UNL     1     -41.093 -46.194  10.588  1.00  0.00     0.330 A 
HETATM    9  O   UNL     1     -41.070 -45.188   9.880  1.00  0.00    -0.246 OA
HETATM   10  N   UNL     1     -39.948 -46.564  11.266  1.00  0.00    -0.273 N 
HETATM   11  C   UNL     1     -39.799 -47.635  12.112  1.00  0.00     0.280 A 
HETATM   12  O   UNL     1     -38.728 -47.847  12.673  1.00  0.00    -0.265 OA
HETATM   13  C   UNL     1     -40.985 -48.418  12.236  1.00  0.00     0.164 A 
HETATM   14  H   UNL     1     -39.147 -45.970  11.138  1.00  0.00     0.173 HD
ENDROOT
BRANCH   2  15
HETATM   15  N   UNL     1     -43.300 -50.948  13.285  1.00  0.00    -0.090 N 
HETATM   16  N   UNL     1     -43.439 -52.071  12.539  1.00  0.00    -0.284 N 
HETATM   17  C   UNL     1     -44.191 -52.899  13.260  1.00  0.00     0.031 A 
ATOM     18  HN  UNL     1     -43.047 -52.245  11.614  1.00  0.00     0.188 HD
HETATM   19  C   UNL     1     -44.569 -54.228  12.712  1.00  0.00     0.070 C 
HETATM   20  C   UNL     1     -44.547 -52.334  14.506  1.00  0.00    -0.013 A 
HETATM   21  C   UNL     1     -45.415 -52.938  15.549  1.00  0.00     0.052 C 
HETATM   22  C   UNL     1     -43.923 -51.093  14.517  1.00  0.00     0.056 A 
HETATM   23  C   UNL     1     -43.961 -50.031  15.554  1.00  0.00     0.072 C 
ENDBRANCH   2  15
BRANCH   1  24
HETATM   24  C   UNL     1     -40.292 -50.359  13.669  1.00  0.00     0.174 C 
BRANCH  24  25
HETATM   25  C   UNL     1     -39.734 -51.501  12.822  1.00  0.00     0.187 C 
BRANCH  25  26
HETATM   26  O   UNL     1     -38.464 -51.908  13.332  1.00  0.00    -0.394 OA
HETATM   27  C   UNL     1     -37.431 -51.048  12.868  1.00  0.00     0.201 C 
ENDBRANCH  25  26
ENDBRANCH  24  25
ENDBRANCH   1  24
TORSDOF 4
ENDMDL
MODEL 7
REMARK VINA RESULT:      -5.4      2.978      4.388
REMARK  4 active torsions:
REMARK  status: ('A' for Active; 'I' for Inactive)
REMARK    1  A    between atoms: O_2  and  C_3 
REMARK    2  A    between atoms: C_3  and  C_4 
REMARK    3  A    between atoms: C_4  and  N_5 
REMARK    4  A    between atoms: C_6  and  N_18 
ROOT
HETATM    1  N   UNL     1     -41.553 -50.292  13.906  1.00  0.00    -0.170 N 
HETATM    2  C   UNL     1     -42.814 -49.703  13.936  1.00  0.00     0.708 A 
HETATM    3  N   UNL     1     -42.721 -48.383  13.814  1.00  0.00    -0.172 N 
ATOM      4  HN  UNL     1     -43.485 -47.712  13.737  1.00  0.00     0.186 HD
HETATM    5  C   UNL     1     -41.378 -48.121  13.816  1.00  0.00     0.160 A 
HETATM    6  N   UNL     1     -40.771 -46.875  13.777  1.00  0.00    -0.287 N 
HETATM    7  C   UNL     1     -41.513 -45.636  13.799  1.00  0.00     0.163 C 
HETATM    8  C   UNL     1     -39.382 -46.801  13.735  1.00  0.00     0.330 A 
HETATM    9  O   UNL     1     -38.757 -45.741  13.692  1.00  0.00    -0.246 OA
HETATM   10  N   UNL     1     -38.683 -47.992  13.743  1.00  0.00    -0.273 N 
HETATM   11  C   UNL     1     -39.210 -49.258  13.811  1.00  0.00     0.280 A 
HETATM   12  O   UNL     1     -38.477 -50.243  13.831  1.00  0.00    -0.265 OA
HETATM   13  C   UNL     1     -40.636 -49.268  13.849  1.00  0.00     0.164 A 
HETATM   14  H   UNL     1     -37.680 -47.917  13.717  1.00  0.00     0.173 HD
ENDROOT
BRANCH   2  15
HETATM   15  N   UNL     1     -44.029 -50.414  14.040  1.00  0.00    -0.090 N 
HETATM   16  N   UNL     1     -44.634 -50.776  12.883  1.00  0.00    -0.284 N 
HETATM   17  C   UNL     1     -45.784 -51.347  13.234  1.00  0.00     0.031 A 
ATOM     18  HN  UNL     1     -44.281 -50.640  11.936  1.00  0.00     0.188 HD
HETATM   19  C   UNL     1     -46.722 -51.835  12.190  1.00  0.00     0.070 C 
HETATM   20  C   UNL     1     -45.944 -51.382  14.638  1.00  0.00    -0.013 A 
HETATM   21  C   UNL     1     -47.115 -51.894  15.394  1.00  0.00     0.052 C 
HETATM   22  C   UNL     1     -44.778 -50.815  15.137  1.00  0.00     0.056 A 
HETATM   23  C   UNL     1     -44.388 -50.551  16.545  1.00  0.00     0.072 C 
ENDBRANCH   2  15
BRANCH   1  24
HETATM   24  C   UNL     1     -41.235 -51.705  13.767  1.00  0.00     0.174 C 
BRANCH  24  25
HETATM   25  C   UNL     1     -41.346 -52.193  12.324  1.00  0.00     0.187 C 
BRANCH  25  26
HETATM   26  O   UNL     1     -42.607 -52.832  12.124  1.00  0.00    -0.394 OA
HETATM   27  C   UNL     1     -42.839 -53.824  13.116  1.00  0.00     0.201 C 
ENDBRANCH  25  26
ENDBRANCH  24  25
ENDBRANCH   1  24
TORSDOF 4
ENDMDL
MODEL 8
REMARK VINA RESULT:      -5.4      4.634      6.479
REMARK  4 active torsions:
REMARK  status: ('A' for Active; 'I' for Inactive)
REMARK    1  A    between atoms: O_2  and  C_3 
REMARK    2  A    between atoms: C_3  and  C_4 
REMARK    3  A    between atoms: C_4  and  N_5 
REMARK    4  A    between atoms: C_6  and  N_18 
ROOT
HETATM    1  N   UNL     1     -41.026 -53.087  14.439  1.00  0.00    -0.170 N 
HETATM    2  C   UNL     1     -41.190 -51.917  13.703  1.00  0.00     0.708 A 
HETATM    3  N   UNL     1     -42.455 -51.775  13.321  1.00  0.00    -0.172 N 
ATOM      4  HN  UNL     1     -42.870 -50.983  12.832  1.00  0.00     0.186 HD
HETATM    5  C   UNL     1     -43.080 -52.923  13.728  1.00  0.00     0.160 A 
HETATM    6  N   UNL     1     -44.400 -53.280  13.502  1.00  0.00    -0.287 N 
HETATM    7  C   UNL     1     -45.308 -52.480  12.715  1.00  0.00     0.163 C 
HETATM    8  C   UNL     1     -44.878 -54.473  14.037  1.00  0.00     0.330 A 
HETATM    9  O   UNL     1     -46.036 -54.868  13.894  1.00  0.00    -0.246 OA
HETATM   10  N   UNL     1     -43.992 -55.242  14.764  1.00  0.00    -0.273 N 
HETATM   11  C   UNL     1     -42.668 -54.972  15.004  1.00  0.00     0.280 A 
HETATM   12  O   UNL     1     -41.975 -55.751  15.653  1.00  0.00    -0.265 OA
HETATM   13  C   UNL     1     -42.238 -53.736  14.433  1.00  0.00     0.164 A 
HETATM   14  H   UNL     1     -44.356 -56.102  15.137  1.00  0.00     0.173 HD
ENDROOT
BRANCH   2  15
HETATM   15  N   UNL     1     -40.163 -50.987  13.433  1.00  0.00    -0.090 N 
HETATM   16  N   UNL     1     -39.453 -51.164  12.293  1.00  0.00    -0.284 N 
HETATM   17  C   UNL     1     -38.503 -50.232  12.306  1.00  0.00     0.031 A 
ATOM     18  HN  UNL     1     -39.612 -51.868  11.573  1.00  0.00     0.188 HD
HETATM   19  C   UNL     1     -37.511 -50.165  11.200  1.00  0.00     0.070 C 
HETATM   20  C   UNL     1     -38.587 -49.413  13.455  1.00  0.00    -0.013 A 
HETATM   21  C   UNL     1     -37.672 -48.307  13.836  1.00  0.00     0.052 C 
HETATM   22  C   UNL     1     -39.694 -49.893  14.145  1.00  0.00     0.056 A 
HETATM   23  C   UNL     1     -40.255 -49.449  15.445  1.00  0.00     0.072 C 
ENDBRANCH   2  15
BRANCH   1  24
HETATM   24  C   UNL     1     -39.871 -53.483  15.231  1.00  0.00     0.174 C 
BRANCH  24  25
HETATM   25  C   UNL     1     -38.916 -54.394  14.463  1.00  0.00     0.187 C 
BRANCH  25  26
HETATM   26  O   UNL     1     -38.722 -55.611  15.183  1.00  0.00    -0.394 OA
HETATM   27  C   UNL     1     -38.309 -55.352  16.519  1.00  0.00     0.201 C 
ENDBRANCH  25  26
ENDBRANCH  24  25
ENDBRANCH   1  24
TORSDOF 4
ENDMDL
MODEL 9
REMARK VINA RESULT:      -5.3      1.666      1.799
REMARK  4 active torsions:
REMARK  status: ('A' for Active; 'I' for Inactive)
REMARK    1  A    between atoms: O_2  and  C_3 
REMARK    2  A    between atoms: C_3  and  C_4 
REMARK    3  A    between atoms: C_4  and  N_5 
REMARK    4  A    between atoms: C_6  and  N_18 
ROOT
HETATM    1  N   UNL     1     -40.830 -49.147  13.150  1.00  0.00    -0.170 N 
HETATM    2  C   UNL     1     -41.697 -50.016  12.494  1.00  0.00     0.708 A 
HETATM    3  N   UNL     1     -42.176 -49.456  11.388  1.00  0.00    -0.172 N 
ATOM      4  HN  UNL     1     -42.774 -49.887  10.684  1.00  0.00     0.186 HD
HETATM    5  C   UNL     1     -41.692 -48.176  11.399  1.00  0.00     0.160 A 
HETATM    6  N   UNL     1     -41.967 -47.172  10.484  1.00  0.00    -0.287 N 
HETATM    7  C   UNL     1     -42.895 -47.335   9.390  1.00  0.00     0.163 C 
HETATM    8  C   UNL     1     -41.341 -45.937  10.628  1.00  0.00     0.330 A 
HETATM    9  O   UNL     1     -41.518 -44.989   9.862  1.00  0.00    -0.246 OA
HETATM   10  N   UNL     1     -40.478 -45.784  11.695  1.00  0.00    -0.273 N 
HETATM   11  C   UNL     1     -40.179 -46.717  12.656  1.00  0.00     0.280 A 
HETATM   12  O   UNL     1     -39.405 -46.451  13.571  1.00  0.00    -0.265 OA
HETATM   13  C   UNL     1     -40.848 -47.961  12.453  1.00  0.00     0.164 A 
HETATM   14  H   UNL     1     -40.039 -44.883  11.784  1.00  0.00     0.173 HD
ENDROOT
BRANCH   2  15
HETATM   15  N   UNL     1     -41.995 -51.327  12.922  1.00  0.00    -0.090 N 
HETATM   16  N   UNL     1     -41.024 -52.261  12.775  1.00  0.00    -0.284 N 
HETATM   17  C   UNL     1     -41.563 -53.414  13.162  1.00  0.00     0.031 A 
ATOM     18  HN  UNL     1     -40.073 -52.110  12.436  1.00  0.00     0.188 HD
HETATM   19  C   UNL     1     -40.768 -54.668  13.093  1.00  0.00     0.070 C 
HETATM   20  C   UNL     1     -42.901 -53.250  13.586  1.00  0.00    -0.013 A 
HETATM   21  C   UNL     1     -43.835 -54.314  14.037  1.00  0.00     0.052 C 
HETATM   22  C   UNL     1     -43.142 -51.887  13.464  1.00  0.00     0.056 A 
HETATM   23  C   UNL     1     -44.388 -51.125  13.732  1.00  0.00     0.072 C 
ENDBRANCH   2  15
BRANCH   1  24
HETATM   24  C   UNL     1     -39.924 -49.455  14.246  1.00  0.00     0.174 C 
BRANCH  24  25
HETATM   25  C   UNL     1     -38.556 -49.930  13.761  1.00  0.00     0.187 C 
BRANCH  25  26
HETATM   26  O   UNL     1     -38.406 -51.326  14.022  1.00  0.00    -0.394 OA
HETATM   27  C   UNL     1     -38.678 -51.621  15.386  1.00  0.00     0.201 C 
ENDBRANCH  25  26
ENDBRANCH  24  25
ENDBRANCH   1  24
TORSDOF 4
ENDMDL
