MODEL 1
REMARK VINA RESULT:      -6.0      0.000      0.000
REMARK  3 active torsions:
REMARK  status: ('A' for Active; 'I' for Inactive)
REMARK       I    between atoms: C_2  and  N_3 
REMARK    1  A    between atoms: C_2  and  C_7 
REMARK    2  A    between atoms: N_3  and  C_4 
REMARK    3  A    between atoms: C_10  and  N_14 
ROOT
HETATM    1  C   UNL     1     -45.565 -46.824   9.296  1.00  0.00     0.216 C 
HETATM    2  C   UNL     1     -46.241 -48.010   8.757  1.00  0.00    -0.098 C 
HETATM    3  C   UNL     1     -46.808 -48.962   8.296  1.00  0.00     0.014 C 
ENDROOT
BRANCH   1   4
HETATM    4  N   UNL     1     -44.391 -47.203  10.048  1.00  0.00    -0.346 N 
HETATM    5  C   UNL     1     -43.162 -46.705   9.675  1.00  0.00     0.253 C 
HETATM    6  O   UNL     1     -43.015 -45.903   8.760  1.00  0.00    -0.268 OA
HETATM    7  H   UNL     1     -44.451 -48.025  10.634  1.00  0.00     0.163 HD
BRANCH   5   8
HETATM    8  C   UNL     1     -41.974 -47.220  10.392  1.00  0.00     0.047 A 
HETATM    9  C   UNL     1     -41.947 -48.542  10.814  1.00  0.00     0.022 A 
HETATM   10  C   UNL     1     -40.811 -49.038  11.465  1.00  0.00     0.049 A 
HETATM   11  C   UNL     1     -39.702 -48.223  11.696  1.00  0.00     0.103 A 
HETATM   12  N   UNL     1     -39.739 -46.935  11.277  1.00  0.00    -0.351 N 
HETATM   13  C   UNL     1     -40.843 -46.465  10.632  1.00  0.00     0.106 A 
ATOM     14  HN  UNL     1     -38.944 -46.319  11.444  1.00  0.00     0.166 HD
BRANCH  11  15
HETATM   15  N   UNL     1     -38.559 -48.679  12.310  1.00  0.00    -0.363 N 
HETATM   16  C   UNL     1     -37.655 -49.715  11.798  1.00  0.00     0.150 C 
HETATM   17  C   UNL     1     -37.647 -50.913  12.762  1.00  0.00     0.187 C 
HETATM   18  O   UNL     1     -37.278 -50.512  14.092  1.00  0.00    -0.388 OA
HETATM   19  C   UNL     1     -38.200 -49.524  14.592  1.00  0.00     0.187 C 
HETATM   20  C   UNL     1     -38.246 -48.276  13.692  1.00  0.00     0.150 C 
ENDBRANCH  11  15
ENDBRANCH   5   8
ENDBRANCH   1   4
TORSDOF 3
ENDMDL
MODEL 2
REMARK VINA RESULT:      -5.4      3.075      6.168
REMARK  3 active torsions:
REMARK  status: ('A' for Active; 'I' for Inactive)
REMARK       I    between atoms: C_2  and  N_3 
REMARK    1  A    between atoms: C_2  and  C_7 
REMARK    2  A    between atoms: N_3  and  C_4 
REMARK    3  A    between atoms: C_10  and  N_14 
ROOT
HETATM    1  C   UNL     1     -40.904 -53.788  13.014  1.00  0.00     0.216 C 
HETATM    2  C   UNL     1     -42.117 -54.186  13.740  1.00  0.00    -0.098 C 
HETATM    3  C   UNL     1     -43.091 -54.533  14.348  1.00  0.00     0.014 C 
ENDROOT
BRANCH   1   4
HETATM    4  N   UNL     1     -41.069 -52.479  12.426  1.00  0.00    -0.346 N 
HETATM    5  C   UNL     1     -40.025 -51.582  12.475  1.00  0.00     0.253 C 
HETATM    6  O   UNL     1     -38.929 -51.857  12.951  1.00  0.00    -0.268 OA
HETATM    7  H   UNL     1     -42.011 -52.155  12.250  1.00  0.00     0.163 HD
BRANCH   5   8
HETATM    8  C   UNL     1     -40.281 -50.213  11.975  1.00  0.00     0.047 A 
HETATM    9  C   UNL     1     -41.586 -49.790  11.771  1.00  0.00     0.022 A 
HETATM   10  C   UNL     1     -41.830 -48.485  11.327  1.00  0.00     0.049 A 
HETATM   11  C   UNL     1     -40.779 -47.599  11.088  1.00  0.00     0.103 A 
HETATM   12  N   UNL     1     -39.508 -48.022  11.294  1.00  0.00    -0.351 N 
HETATM   13  C   UNL     1     -39.282 -49.289  11.739  1.00  0.00     0.106 A 
ATOM     14  HN  UNL     1     -38.725 -47.395  11.116  1.00  0.00     0.166 HD
BRANCH  11  15
HETATM   15  N   UNL     1     -40.978 -46.302  10.675  1.00  0.00    -0.363 N 
HETATM   16  C   UNL     1     -39.932 -45.319  10.373  1.00  0.00     0.150 C 
HETATM   17  C   UNL     1     -40.036 -44.139  11.352  1.00  0.00     0.187 C 
HETATM   18  O   UNL     1     -41.342 -43.538  11.311  1.00  0.00    -0.388 OA
HETATM   19  C   UNL     1     -42.351 -44.508  11.648  1.00  0.00     0.187 C 
HETATM   20  C   UNL     1     -42.329 -45.715  10.693  1.00  0.00     0.150 C 
ENDBRANCH  11  15
ENDBRANCH   5   8
ENDBRANCH   1   4
TORSDOF 3
ENDMDL
MODEL 3
REMARK VINA RESULT:      -5.4      3.242      4.981
REMARK  3 active torsions:
REMARK  status: ('A' for Active; 'I' for Inactive)
REMARK       I    between atoms: C_2  and  N_3 
REMARK    1  A    between atoms: C_2  and  C_7 
REMARK    2  A    between atoms: N_3  and  C_4 
REMARK    3  A    between atoms: C_10  and  N_14 
ROOT
HETATM    1  C   UNL     1     -39.814 -44.896  10.308  1.00  0.00     0.216 C 
HETATM    2  C   UNL     1     -38.894 -44.750   9.173  1.00  0.00    -0.098 C 
HETATM    3  C   UNL     1     -38.138 -44.601   8.254  1.00  0.00     0.014 C 
ENDROOT
BRANCH   1   4
HETATM    4  N   UNL     1     -40.017 -46.292  10.623  1.00  0.00    -0.346 N 
HETATM    5  C   UNL     1     -41.299 -46.761  10.808  1.00  0.00     0.253 C 
HETATM    6  O   UNL     1     -42.295 -46.060  10.664  1.00  0.00    -0.268 OA
HETATM    7  H   UNL     1     -39.227 -46.816  10.975  1.00  0.00     0.163 HD
BRANCH   5   8
HETATM    8  C   UNL     1     -41.451 -48.163  11.256  1.00  0.00     0.047 A 
HETATM    9  C   UNL     1     -40.354 -49.012  11.239  1.00  0.00     0.022 A 
HETATM   10  C   UNL     1     -40.490 -50.330  11.690  1.00  0.00     0.049 A 
HETATM   11  C   UNL     1     -41.715 -50.805  12.160  1.00  0.00     0.103 A 
HETATM   12  N   UNL     1     -42.780 -49.966  12.174  1.00  0.00    -0.351 N 
HETATM   13  C   UNL     1     -42.633 -48.681  11.746  1.00  0.00     0.106 A 
ATOM     14  HN  UNL     1     -43.687 -50.295  12.503  1.00  0.00     0.166 HD
BRANCH  11  15
HETATM   15  N   UNL     1     -41.885 -52.085  12.635  1.00  0.00    -0.363 N 
HETATM   16  C   UNL     1     -42.871 -52.516  13.631  1.00  0.00     0.150 C 
HETATM   17  C   UNL     1     -42.146 -53.045  14.878  1.00  0.00     0.187 C 
HETATM   18  O   UNL     1     -41.244 -54.114  14.545  1.00  0.00    -0.388 OA
HETATM   19  C   UNL     1     -40.259 -53.660  13.597  1.00  0.00     0.187 C 
HETATM   20  C   UNL     1     -40.908 -53.136  12.303  1.00  0.00     0.150 C 
ENDBRANCH  11  15
ENDBRANCH   5   8
ENDBRANCH   1   4
TORSDOF 3
ENDMDL
MODEL 4
REMARK VINA RESULT:      -5.3      3.844      6.590
REMARK  3 active torsions:
REMARK  status: ('A' for Active; 'I' for Inactive)
REMARK       I    between atoms: C_2  and  N_3 
REMARK    1  A    between atoms: C_2  and  C_7 
REMARK    2  A    between atoms: N_3  and  C_4 
REMARK    3  A    between atoms: C_10  and  N_14 
ROOT
HETATM    1  C   UNL     1     -42.888 -54.309  13.954  1.00  0.00     0.216 C 
HETATM    2  C   UNL     1     -44.273 -54.793  13.909  1.00  0.00    -0.098 C 
HETATM    3  C   UNL     1     -45.400 -55.203  13.899  1.00  0.00     0.014 C 
ENDROOT
BRANCH   1   4
HETATM    4  N   UNL     1     -42.725 -53.148  13.110  1.00  0.00    -0.346 N 
HETATM    5  C   UNL     1     -42.111 -52.025  13.619  1.00  0.00     0.253 C 
HETATM    6  O   UNL     1     -41.640 -51.975  14.750  1.00  0.00    -0.268 OA
HETATM    7  H   UNL     1     -43.303 -53.082  12.282  1.00  0.00     0.163 HD
BRANCH   5   8
HETATM    8  C   UNL     1     -42.081 -50.819  12.762  1.00  0.00     0.047 A 
HETATM    9  C   UNL     1     -40.947 -50.535  12.016  1.00  0.00     0.022 A 
HETATM   10  C   UNL     1     -40.930 -49.411  11.182  1.00  0.00     0.049 A 
HETATM   11  C   UNL     1     -42.039 -48.569  11.087  1.00  0.00     0.103 A 
HETATM   12  N   UNL     1     -43.142 -48.858  11.820  1.00  0.00    -0.351 N 
HETATM   13  C   UNL     1     -43.154 -49.962  12.618  1.00  0.00     0.106 A 
ATOM     14  HN  UNL     1     -43.960 -48.251  11.774  1.00  0.00     0.166 HD
BRANCH  11  15
HETATM   15  N   UNL     1     -42.070 -47.469  10.262  1.00  0.00    -0.363 N 
HETATM   16  C   UNL     1     -41.419 -46.179  10.514  1.00  0.00     0.150 C 
HETATM   17  C   UNL     1     -42.486 -45.079  10.632  1.00  0.00     0.187 C 
HETATM   18  O   UNL     1     -43.313 -45.024   9.456  1.00  0.00    -0.388 OA
HETATM   19  C   UNL     1     -43.973 -46.286   9.248  1.00  0.00     0.187 C 
HETATM   20  C   UNL     1     -42.967 -47.441   9.094  1.00  0.00     0.150 C 
ENDBRANCH  11  15
ENDBRANCH   5   8
ENDBRANCH   1   4
TORSDOF 3
ENDMDL
MODEL 5
REMARK VINA RESULT:      -5.3      2.512      3.890
REMARK  3 active torsions:
REMARK  status: ('A' for Active; 'I' for Inactive)
REMARK       I    between atoms: C_2  and  N_3 
REMARK    1  A    between atoms: C_2  and  C_7 
REMARK    2  A    between atoms: N_3  and  C_4 
REMARK    3  A    between atoms: C_10  and  N_14 
ROOT
HETATM    1  C   UNL     1     -42.680 -43.164  11.209  1.00  0.00     0.216 C 
HETATM    2  C   UNL     1     -41.843 -41.987  11.466  1.00  0.00    -0.098 C 
HETATM    3  C   UNL     1     -41.184 -41.007  11.680  1.00  0.00     0.014 C 
ENDROOT
BRANCH   1   4
HETATM    4  N   UNL     1     -41.921 -44.380  11.392  1.00  0.00    -0.346 N 
HETATM    5  C   UNL     1     -42.078 -45.414  10.496  1.00  0.00     0.253 C 
HETATM    6  O   UNL     1     -42.797 -45.337   9.505  1.00  0.00    -0.268 OA
HETATM    7  H   UNL     1     -41.521 -44.553  12.305  1.00  0.00     0.163 HD
BRANCH   5   8
HETATM    8  C   UNL     1     -41.380 -46.684  10.795  1.00  0.00     0.047 A 
HETATM    9  C   UNL     1     -40.271 -46.678  11.629  1.00  0.00     0.022 A 
HETATM   10  C   UNL     1     -39.629 -47.884  11.936  1.00  0.00     0.049 A 
HETATM   11  C   UNL     1     -40.088 -49.095  11.417  1.00  0.00     0.103 A 
HETATM   12  N   UNL     1     -41.173 -49.088  10.605  1.00  0.00    -0.351 N 
HETATM   13  C   UNL     1     -41.800 -47.912  10.323  1.00  0.00     0.106 A 
ATOM     14  HN  UNL     1     -41.519 -49.960  10.206  1.00  0.00     0.166 HD
BRANCH  11  15
HETATM   15  N   UNL     1     -39.500 -50.302  11.714  1.00  0.00    -0.363 N 
HETATM   16  C   UNL     1     -40.190 -51.511  12.175  1.00  0.00     0.150 C 
HETATM   17  C   UNL     1     -39.702 -51.877  13.586  1.00  0.00     0.187 C 
HETATM   18  O   UNL     1     -38.275 -52.048  13.619  1.00  0.00    -0.388 OA
HETATM   19  C   UNL     1     -37.615 -50.839  13.201  1.00  0.00     0.187 C 
HETATM   20  C   UNL     1     -38.033 -50.419  11.780  1.00  0.00     0.150 C 
ENDBRANCH  11  15
ENDBRANCH   5   8
ENDBRANCH   1   4
TORSDOF 3
ENDMDL
MODEL 6
REMARK VINA RESULT:      -5.2      5.122      7.900
REMARK  3 active torsions:
REMARK  status: ('A' for Active; 'I' for Inactive)
REMARK       I    between atoms: C_2  and  N_3 
REMARK    1  A    between atoms: C_2  and  C_7 
REMARK    2  A    between atoms: N_3  and  C_4 
REMARK    3  A    between atoms: C_10  and  N_14 
ROOT
HETATM    1  C   UNL     1     -37.758 -49.539  12.344  1.00  0.00     0.216 C 
HETATM    2  C   UNL     1     -37.264 -49.924  11.017  1.00  0.00    -0.098 C 
HETATM    3  C   UNL     1     -36.831 -50.234   9.942  1.00  0.00     0.014 C 
ENDROOT
BRANCH   1   4
HETATM    4  N   UNL     1     -39.112 -50.004  12.539  1.00  0.00    -0.346 N 
HETATM    5  C   UNL     1     -39.327 -51.302  12.949  1.00  0.00     0.253 C 
HETATM    6  O   UNL     1     -38.416 -52.079  13.214  1.00  0.00    -0.268 OA
HETATM    7  H   UNL     1     -39.859 -49.476  12.108  1.00  0.00     0.163 HD
BRANCH   5   8
HETATM    8  C   UNL     1     -40.729 -51.771  13.011  1.00  0.00     0.047 A 
HETATM    9  C   UNL     1     -41.695 -50.970  13.602  1.00  0.00     0.022 A 
HETATM   10  C   UNL     1     -43.027 -51.401  13.634  1.00  0.00     0.049 A 
HETATM   11  C   UNL     1     -43.400 -52.626  13.078  1.00  0.00     0.103 A 
HETATM   12  N   UNL     1     -42.447 -53.398  12.502  1.00  0.00    -0.351 N 
HETATM   13  C   UNL     1     -41.156 -52.964  12.463  1.00  0.00     0.106 A 
ATOM     14  HN  UNL     1     -42.695 -54.301  12.099  1.00  0.00     0.166 HD
BRANCH  11  15
HETATM   15  N   UNL     1     -44.700 -53.073  13.068  1.00  0.00    -0.363 N 
HETATM   16  C   UNL     1     -45.900 -52.242  12.924  1.00  0.00     0.150 C 
HETATM   17  C   UNL     1     -46.756 -52.348  14.197  1.00  0.00     0.187 C 
HETATM   18  O   UNL     1     -47.100 -53.714  14.484  1.00  0.00    -0.388 OA
HETATM   19  C   UNL     1     -45.909 -54.505  14.660  1.00  0.00     0.187 C 
HETATM   20  C   UNL     1     -45.008 -54.472  13.413  1.00  0.00     0.150 C 
ENDBRANCH  11  15
ENDBRANCH   5   8
ENDBRANCH   1   4
TORSDOF 3
ENDMDL
MODEL 7
REMARK VINA RESULT:      -5.1      2.910      3.484
REMARK  3 active torsions:
REMARK  status: ('A' for Active; 'I' for Inactive)
REMARK       I    between atoms: C_2  and  N_3 
REMARK    1  A    between atoms: C_2  and  C_7 
REMARK    2  A    between atoms: N_3  and  C_4 
REMARK    3  A    between atoms: C_10  and  N_14 
ROOT
HETATM    1  C   UNL     1     -44.005 -47.101   9.746  1.00  0.00     0.216 C 
HETATM    2  C   UNL     1     -45.365 -47.466   9.333  1.00  0.00    -0.098 C 
HETATM    3  C   UNL     1     -46.475 -47.742   8.972  1.00  0.00     0.014 C 
ENDROOT
BRANCH   1   4
HETATM    4  N   UNL     1     -43.418 -48.148  10.551  1.00  0.00    -0.346 N 
HETATM    5  C   UNL     1     -42.067 -48.116  10.819  1.00  0.00     0.253 C 
HETATM    6  O   UNL     1     -41.334 -47.204  10.451  1.00  0.00    -0.268 OA
HETATM    7  H   UNL     1     -43.938 -49.009  10.657  1.00  0.00     0.163 HD
BRANCH   5   8
HETATM    8  C   UNL     1     -41.488 -49.273  11.536  1.00  0.00     0.047 A 
HETATM    9  C   UNL     1     -40.134 -49.550  11.413  1.00  0.00     0.022 A 
HETATM   10  C   UNL     1     -39.580 -50.627  12.115  1.00  0.00     0.049 A 
HETATM   11  C   UNL     1     -40.370 -51.428  12.941  1.00  0.00     0.103 A 
HETATM   12  N   UNL     1     -41.691 -51.147  13.055  1.00  0.00    -0.351 N 
HETATM   13  C   UNL     1     -42.217 -50.088  12.379  1.00  0.00     0.106 A 
ATOM     14  HN  UNL     1     -42.288 -51.725  13.645  1.00  0.00     0.166 HD
BRANCH  11  15
HETATM   15  N   UNL     1     -39.859 -52.480  13.666  1.00  0.00    -0.363 N 
HETATM   16  C   UNL     1     -40.253 -53.887  13.544  1.00  0.00     0.150 C 
HETATM   17  C   UNL     1     -40.871 -54.365  14.868  1.00  0.00     0.187 C 
HETATM   18  O   UNL     1     -39.966 -54.172  15.968  1.00  0.00    -0.388 OA
HETATM   19  C   UNL     1     -39.622 -52.779  16.096  1.00  0.00     0.187 C 
HETATM   20  C   UNL     1     -38.970 -52.230  14.814  1.00  0.00     0.150 C 
ENDBRANCH  11  15
ENDBRANCH   5   8
ENDBRANCH   1   4
TORSDOF 3
ENDMDL
MODEL 8
REMARK VINA RESULT:      -5.0      8.297      8.975
REMARK  3 active torsions:
REMARK  status: ('A' for Active; 'I' for Inactive)
REMARK       I    between atoms: C_2  and  N_3 
REMARK    1  A    between atoms: C_2  and  C_7 
REMARK    2  A    between atoms: N_3  and  C_4 
REMARK    3  A    between atoms: C_10  and  N_14 
ROOT
HETATM    1  C   UNL     1     -48.214 -49.157  19.307  1.00  0.00     0.216 C 
HETATM    2  C   UNL     1     -48.714 -47.851  18.862  1.00  0.00    -0.098 C 
HETATM    3  C   UNL     1     -49.126 -46.775  18.527  1.00  0.00     0.014 C 
ENDROOT
BRANCH   1   4
HETATM    4  N   UNL     1     -47.490 -49.816  18.245  1.00  0.00    -0.346 N 
HETATM    5  C   UNL     1     -47.873 -51.080  17.851  1.00  0.00     0.253 C 
HETATM    6  O   UNL     1     -48.843 -51.662  18.324  1.00  0.00    -0.268 OA
HETATM    7  H   UNL     1     -46.569 -49.468  18.015  1.00  0.00     0.163 HD
BRANCH   5   8
HETATM    8  C   UNL     1     -47.025 -51.766  16.851  1.00  0.00     0.047 A 
HETATM    9  C   UNL     1     -47.064 -51.361  15.525  1.00  0.00     0.022 A 
HETATM   10  C   UNL     1     -46.240 -51.990  14.584  1.00  0.00     0.049 A 
HETATM   11  C   UNL     1     -45.376 -53.019  14.959  1.00  0.00     0.103 A 
HETATM   12  N   UNL     1     -45.346 -53.405  16.258  1.00  0.00    -0.351 N 
HETATM   13  C   UNL     1     -46.141 -52.777  17.169  1.00  0.00     0.106 A 
ATOM     14  HN  UNL     1     -44.730 -54.162  16.553  1.00  0.00     0.166 HD
BRANCH  11  15
HETATM   15  N   UNL     1     -44.534 -53.645  14.070  1.00  0.00    -0.363 N 
HETATM   16  C   UNL     1     -43.614 -54.746  14.378  1.00  0.00     0.150 C 
HETATM   17  C   UNL     1     -42.166 -54.289  14.137  1.00  0.00     0.187 C 
HETATM   18  O   UNL     1     -41.983 -53.818  12.791  1.00  0.00    -0.388 OA
HETATM   19  C   UNL     1     -42.866 -52.713  12.522  1.00  0.00     0.187 C 
HETATM   20  C   UNL     1     -44.344 -53.099  12.716  1.00  0.00     0.150 C 
ENDBRANCH  11  15
ENDBRANCH   5   8
ENDBRANCH   1   4
TORSDOF 3
ENDMDL
MODEL 9
REMARK VINA RESULT:      -4.9      5.001      7.910
REMARK  3 active torsions:
REMARK  status: ('A' for Active; 'I' for Inactive)
REMARK       I    between atoms: C_2  and  N_3 
REMARK    1  A    between atoms: C_2  and  C_7 
REMARK    2  A    between atoms: N_3  and  C_4 
REMARK    3  A    between atoms: C_10  and  N_14 
ROOT
HETATM    1  C   UNL     1     -37.808 -48.835  13.403  1.00  0.00     0.216 C 
HETATM    2  C   UNL     1     -37.358 -48.337  14.708  1.00  0.00    -0.098 C 
HETATM    3  C   UNL     1     -36.972 -47.908  15.760  1.00  0.00     0.014 C 
ENDROOT
BRANCH   1   4
HETATM    4  N   UNL     1     -39.020 -49.611  13.543  1.00  0.00    -0.346 N 
HETATM    5  C   UNL     1     -39.144 -50.797  12.854  1.00  0.00     0.253 C 
HETATM    6  O   UNL     1     -38.247 -51.264  12.160  1.00  0.00    -0.268 OA
HETATM    7  H   UNL     1     -39.840 -49.143  13.904  1.00  0.00     0.163 HD
BRANCH   5   8
HETATM    8  C   UNL     1     -40.448 -51.492  12.926  1.00  0.00     0.047 A 
HETATM    9  C   UNL     1     -40.609 -52.560  13.796  1.00  0.00     0.022 A 
HETATM   10  C   UNL     1     -41.852 -53.198  13.887  1.00  0.00     0.049 A 
HETATM   11  C   UNL     1     -42.936 -52.775  13.116  1.00  0.00     0.103 A 
HETATM   12  N   UNL     1     -42.766 -51.728  12.271  1.00  0.00    -0.351 N 
HETATM   13  C   UNL     1     -41.557 -51.105  12.200  1.00  0.00     0.106 A 
ATOM     14  HN  UNL     1     -43.541 -51.409  11.691  1.00  0.00     0.166 HD
BRANCH  11  15
HETATM   15  N   UNL     1     -44.178 -53.359  13.194  1.00  0.00    -0.363 N 
HETATM   16  C   UNL     1     -45.420 -52.831  12.620  1.00  0.00     0.150 C 
HETATM   17  C   UNL     1     -46.418 -52.523  13.748  1.00  0.00     0.187 C 
HETATM   18  O   UNL     1     -46.671 -53.685  14.556  1.00  0.00    -0.388 OA
HETATM   19  C   UNL     1     -45.446 -54.164  15.141  1.00  0.00     0.187 C 
HETATM   20  C   UNL     1     -44.399 -54.522  14.070  1.00  0.00     0.150 C 
ENDBRANCH  11  15
ENDBRANCH   5   8
ENDBRANCH   1   4
TORSDOF 3
ENDMDL
