MODEL 1
REMARK VINA RESULT:      -5.5      0.000      0.000
REMARK  6 active torsions:
REMARK  status: ('A' for Active; 'I' for Inactive)
REMARK    1  A    between atoms: O_2  and  C_3 
REMARK    2  A    between atoms: C_3  and  C_4 
REMARK    3  A    between atoms: C_4  and  N_6 
REMARK       I    between atoms: N_6  and  C_7 
REMARK    4  A    between atoms: C_7  and  C_9 
REMARK    5  A    between atoms: C_9  and  C_10 
REMARK    6  A    between atoms: C_13  and  N_16 
ROOT
HETATM    1  C   UNL     1     -41.312 -51.236  12.109  1.00  0.00     0.026 A 
HETATM    2  C   UNL     1     -40.482 -52.223  12.600  1.00  0.00     0.078 A 
HETATM    3  S   UNL     1     -41.413 -53.577  13.095  1.00  0.00    -0.064 SA
HETATM    4  C   UNL     1     -42.850 -52.719  12.721  1.00  0.00     0.153 A 
HETATM    5  N   UNL     1     -42.663 -51.544  12.171  1.00  0.00    -0.339 N 
ATOM      6  HN  UNL     1     -43.410 -50.938  11.834  1.00  0.00     0.168 HD
ENDROOT
BRANCH   1   7
HETATM    7  C   UNL     1     -40.914 -49.913  11.539  1.00  0.00     0.160 C 
BRANCH   7   8
HETATM    8  C   UNL     1     -42.064 -48.931  11.381  1.00  0.00     0.223 C 
HETATM    9  N   UNL     1     -42.223 -48.362  10.142  1.00  0.00    -0.354 N 
HETATM   10  H   UNL     1     -41.492 -48.531   9.446  1.00  0.00     0.162 HD
HETATM   11  O   UNL     1     -42.774 -48.633  12.344  1.00  0.00    -0.273 OA
BRANCH   9  12
HETATM   12  C   UNL     1     -43.254 -47.375   9.846  1.00  0.00     0.104 C 
HETATM   13  C   UNL     1     -43.574 -47.400   8.351  1.00  0.00     0.034 C 
BRANCH  12  14
HETATM   14  C   UNL     1     -42.844 -45.965  10.311  1.00  0.00     0.191 C 
BRANCH  14  15
HETATM   15  O   UNL     1     -41.639 -45.571   9.646  1.00  0.00    -0.394 OA
HETATM   16  C   UNL     1     -40.629 -45.182  10.567  1.00  0.00     0.201 C 
ENDBRANCH  14  15
ENDBRANCH  12  14
ENDBRANCH   9  12
ENDBRANCH   7   8
ENDBRANCH   1   7
BRANCH   4  17
HETATM   17  N   UNL     1     -44.063 -53.273  13.084  1.00  0.00    -0.298 N 
HETATM   18  C   UNL     1     -44.324 -54.632  13.486  1.00  0.00     0.134 C 
HETATM   19  C   UNL     1     -45.772 -54.663  13.931  1.00  0.00     0.029 C 
HETATM   20  C   UNL     1     -46.168 -53.210  14.111  1.00  0.00     0.105 C 
HETATM   21  C   UNL     1     -45.145 -52.425  13.330  1.00  0.00     0.225 C 
HETATM   22  O   UNL     1     -45.276 -51.235  13.087  1.00  0.00    -0.273 OA
ENDBRANCH   4  17
TORSDOF 6
ENDMDL
MODEL 2
REMARK VINA RESULT:      -5.3      2.613      3.833
REMARK  6 active torsions:
REMARK  status: ('A' for Active; 'I' for Inactive)
REMARK    1  A    between atoms: O_2  and  C_3 
REMARK    2  A    between atoms: C_3  and  C_4 
REMARK    3  A    between atoms: C_4  and  N_6 
REMARK       I    between atoms: N_6  and  C_7 
REMARK    4  A    between atoms: C_7  and  C_9 
REMARK    5  A    between atoms: C_9  and  C_10 
REMARK    6  A    between atoms: C_13  and  N_16 
ROOT
HETATM    1  C   UNL     1     -41.302 -53.384  14.672  1.00  0.00     0.026 A 
HETATM    2  C   UNL     1     -41.656 -54.492  15.417  1.00  0.00     0.078 A 
HETATM    3  S   UNL     1     -43.364 -54.652  15.450  1.00  0.00    -0.064 SA
HETATM    4  C   UNL     1     -43.513 -53.189  14.565  1.00  0.00     0.153 A 
HETATM    5  N   UNL     1     -42.378 -52.661  14.180  1.00  0.00    -0.339 N 
ATOM      6  HN  UNL     1     -42.296 -51.830  13.595  1.00  0.00     0.168 HD
ENDROOT
BRANCH   1   7
HETATM    7  C   UNL     1     -39.922 -52.904  14.357  1.00  0.00     0.160 C 
BRANCH   7   8
HETATM    8  C   UNL     1     -39.826 -52.081  13.082  1.00  0.00     0.223 C 
HETATM    9  N   UNL     1     -39.124 -50.904  13.160  1.00  0.00    -0.354 N 
HETATM   10  H   UNL     1     -38.823 -50.592  14.088  1.00  0.00     0.162 HD
HETATM   11  O   UNL     1     -40.401 -52.443  12.053  1.00  0.00    -0.273 OA
BRANCH   9  12
HETATM   12  C   UNL     1     -38.976 -49.989  12.035  1.00  0.00     0.104 C 
HETATM   13  C   UNL     1     -37.551 -50.073  11.488  1.00  0.00     0.034 C 
BRANCH  12  14
HETATM   14  C   UNL     1     -39.346 -48.545  12.423  1.00  0.00     0.191 C 
BRANCH  14  15
HETATM   15  O   UNL     1     -40.131 -47.953  11.381  1.00  0.00    -0.394 OA
HETATM   16  C   UNL     1     -41.228 -48.777  11.012  1.00  0.00     0.201 C 
ENDBRANCH  14  15
ENDBRANCH  12  14
ENDBRANCH   9  12
ENDBRANCH   7   8
ENDBRANCH   1   7
BRANCH   4  17
HETATM   17  N   UNL     1     -44.773 -52.647  14.395  1.00  0.00    -0.298 N 
HETATM   18  C   UNL     1     -45.513 -51.833  15.324  1.00  0.00     0.134 C 
HETATM   19  C   UNL     1     -46.751 -51.375  14.581  1.00  0.00     0.029 C 
HETATM   20  C   UNL     1     -46.468 -51.654  13.118  1.00  0.00     0.105 C 
HETATM   21  C   UNL     1     -45.346 -52.661  13.122  1.00  0.00     0.225 C 
HETATM   22  O   UNL     1     -45.002 -53.265  12.117  1.00  0.00    -0.273 OA
ENDBRANCH   4  17
TORSDOF 6
ENDMDL
MODEL 3
REMARK VINA RESULT:      -5.3      1.844      6.624
REMARK  6 active torsions:
REMARK  status: ('A' for Active; 'I' for Inactive)
REMARK    1  A    between atoms: O_2  and  C_3 
REMARK    2  A    between atoms: C_3  and  C_4 
REMARK    3  A    between atoms: C_4  and  N_6 
REMARK       I    between atoms: N_6  and  C_7 
REMARK    4  A    between atoms: C_7  and  C_9 
REMARK    5  A    between atoms: C_9  and  C_10 
REMARK    6  A    between atoms: C_13  and  N_16 
ROOT
HETATM    1  C   UNL     1     -40.678 -51.012  11.881  1.00  0.00     0.026 A 
HETATM    2  C   UNL     1     -39.340 -50.801  12.153  1.00  0.00     0.078 A 
HETATM    3  S   UNL     1     -38.989 -49.123  12.093  1.00  0.00    -0.064 SA
HETATM    4  C   UNL     1     -40.605 -48.807  11.609  1.00  0.00     0.153 A 
HETATM    5  N   UNL     1     -41.388 -49.857  11.588  1.00  0.00    -0.339 N 
ATOM      6  HN  UNL     1     -42.387 -49.830  11.384  1.00  0.00     0.168 HD
ENDROOT
BRANCH   1   7
HETATM    7  C   UNL     1     -41.409 -52.315  11.869  1.00  0.00     0.160 C 
BRANCH   7   8
HETATM    8  C   UNL     1     -42.626 -52.354  12.780  1.00  0.00     0.223 C 
HETATM    9  N   UNL     1     -43.641 -53.204  12.416  1.00  0.00    -0.354 N 
HETATM   10  H   UNL     1     -43.575 -53.656  11.499  1.00  0.00     0.162 HD
HETATM   11  O   UNL     1     -42.702 -51.613  13.762  1.00  0.00    -0.273 OA
BRANCH   9  12
HETATM   12  C   UNL     1     -44.886 -53.324  13.165  1.00  0.00     0.104 C 
HETATM   13  C   UNL     1     -45.176 -54.799  13.446  1.00  0.00     0.034 C 
BRANCH  12  14
HETATM   14  C   UNL     1     -46.060 -52.649  12.431  1.00  0.00     0.191 C 
BRANCH  14  15
HETATM   15  O   UNL     1     -46.330 -51.375  13.027  1.00  0.00    -0.394 OA
HETATM   16  C   UNL     1     -46.663 -51.495  14.402  1.00  0.00     0.201 C 
ENDBRANCH  14  15
ENDBRANCH  12  14
ENDBRANCH   9  12
ENDBRANCH   7   8
ENDBRANCH   1   7
BRANCH   4  17
HETATM   17  N   UNL     1     -40.936 -47.525  11.214  1.00  0.00    -0.298 N 
HETATM   18  C   UNL     1     -40.046 -46.415  10.993  1.00  0.00     0.134 C 
HETATM   19  C   UNL     1     -40.900 -45.304  10.417  1.00  0.00     0.029 C 
HETATM   20  C   UNL     1     -42.192 -45.973   9.987  1.00  0.00     0.105 C 
HETATM   21  C   UNL     1     -42.227 -47.278  10.741  1.00  0.00     0.225 C 
HETATM   22  O   UNL     1     -43.225 -47.980  10.792  1.00  0.00    -0.273 OA
ENDBRANCH   4  17
TORSDOF 6
ENDMDL
MODEL 4
REMARK VINA RESULT:      -5.1      3.295      7.120
REMARK  6 active torsions:
REMARK  status: ('A' for Active; 'I' for Inactive)
REMARK    1  A    between atoms: O_2  and  C_3 
REMARK    2  A    between atoms: C_3  and  C_4 
REMARK    3  A    between atoms: C_4  and  N_6 
REMARK       I    between atoms: N_6  and  C_7 
REMARK    4  A    between atoms: C_7  and  C_9 
REMARK    5  A    between atoms: C_9  and  C_10 
REMARK    6  A    between atoms: C_13  and  N_16 
ROOT
HETATM    1  C   UNL     1     -42.552 -53.193  12.789  1.00  0.00     0.026 A 
HETATM    2  C   UNL     1     -41.871 -54.205  13.436  1.00  0.00     0.078 A 
HETATM    3  S   UNL     1     -40.301 -53.667  13.871  1.00  0.00    -0.064 SA
HETATM    4  C   UNL     1     -40.600 -52.173  13.082  1.00  0.00     0.153 A 
HETATM    5  N   UNL     1     -41.814 -52.033  12.610  1.00  0.00    -0.339 N 
ATOM      6  HN  UNL     1     -42.169 -51.184  12.171  1.00  0.00     0.168 HD
ENDROOT
BRANCH   1   7
HETATM    7  C   UNL     1     -43.956 -53.224  12.279  1.00  0.00     0.160 C 
BRANCH   7   8
HETATM    8  C   UNL     1     -44.981 -53.688  13.302  1.00  0.00     0.223 C 
HETATM    9  N   UNL     1     -45.270 -52.817  14.323  1.00  0.00    -0.354 N 
HETATM   10  H   UNL     1     -44.693 -51.975  14.406  1.00  0.00     0.162 HD
HETATM   11  O   UNL     1     -45.476 -54.815  13.232  1.00  0.00    -0.273 OA
BRANCH   9  12
HETATM   12  C   UNL     1     -46.201 -53.133  15.400  1.00  0.00     0.104 C 
HETATM   13  C   UNL     1     -47.181 -51.975  15.588  1.00  0.00     0.034 C 
BRANCH  12  14
HETATM   14  C   UNL     1     -45.463 -53.466  16.711  1.00  0.00     0.191 C 
BRANCH  14  15
HETATM   15  O   UNL     1     -44.682 -54.652  16.535  1.00  0.00    -0.394 OA
HETATM   16  C   UNL     1     -43.331 -54.459  16.931  1.00  0.00     0.201 C 
ENDBRANCH  14  15
ENDBRANCH  12  14
ENDBRANCH   9  12
ENDBRANCH   7   8
ENDBRANCH   1   7
BRANCH   4  17
HETATM   17  N   UNL     1     -39.552 -51.284  12.935  1.00  0.00    -0.298 N 
HETATM   18  C   UNL     1     -38.278 -51.307  13.606  1.00  0.00     0.134 C 
HETATM   19  C   UNL     1     -37.449 -50.215  12.962  1.00  0.00     0.029 C 
HETATM   20  C   UNL     1     -38.178 -49.859  11.681  1.00  0.00     0.105 C 
HETATM   21  C   UNL     1     -39.580 -50.380  11.871  1.00  0.00     0.225 C 
HETATM   22  O   UNL     1     -40.497 -50.087  11.119  1.00  0.00    -0.273 OA
ENDBRANCH   4  17
TORSDOF 6
ENDMDL
MODEL 5
REMARK VINA RESULT:      -5.1      1.805      2.519
REMARK  6 active torsions:
REMARK  status: ('A' for Active; 'I' for Inactive)
REMARK    1  A    between atoms: O_2  and  C_3 
REMARK    2  A    between atoms: C_3  and  C_4 
REMARK    3  A    between atoms: C_4  and  N_6 
REMARK       I    between atoms: N_6  and  C_7 
REMARK    4  A    between atoms: C_7  and  C_9 
REMARK    5  A    between atoms: C_9  and  C_10 
REMARK    6  A    between atoms: C_13  and  N_16 
ROOT
HETATM    1  C   UNL     1     -41.837 -50.602  12.161  1.00  0.00     0.026 A 
HETATM    2  C   UNL     1     -41.265 -51.852  12.296  1.00  0.00     0.078 A 
HETATM    3  S   UNL     1     -42.354 -52.910  13.095  1.00  0.00    -0.064 SA
HETATM    4  C   UNL     1     -43.459 -51.613  13.296  1.00  0.00     0.153 A 
HETATM    5  N   UNL     1     -43.099 -50.490  12.725  1.00  0.00    -0.339 N 
ATOM      6  HN  UNL     1     -43.670 -49.646  12.698  1.00  0.00     0.168 HD
ENDROOT
BRANCH   1   7
HETATM    7  C   UNL     1     -41.251 -49.402  11.492  1.00  0.00     0.160 C 
BRANCH   7   8
HETATM    8  C   UNL     1     -42.280 -48.385  11.023  1.00  0.00     0.223 C 
HETATM    9  N   UNL     1     -42.374 -48.183   9.669  1.00  0.00    -0.354 N 
HETATM   10  H   UNL     1     -41.668 -48.625   9.073  1.00  0.00     0.162 HD
HETATM   11  O   UNL     1     -42.950 -47.746  11.837  1.00  0.00    -0.273 OA
BRANCH   9  12
HETATM   12  C   UNL     1     -43.285 -47.215   9.070  1.00  0.00     0.104 C 
HETATM   13  C   UNL     1     -42.903 -45.805   9.517  1.00  0.00     0.034 C 
BRANCH  12  14
HETATM   14  C   UNL     1     -44.755 -47.534   9.403  1.00  0.00     0.191 C 
BRANCH  14  15
HETATM   15  O   UNL     1     -45.399 -48.091   8.253  1.00  0.00    -0.394 OA
HETATM   16  C   UNL     1     -46.651 -48.677   8.581  1.00  0.00     0.201 C 
ENDBRANCH  14  15
ENDBRANCH  12  14
ENDBRANCH   9  12
ENDBRANCH   7   8
ENDBRANCH   1   7
BRANCH   4  17
HETATM   17  N   UNL     1     -44.575 -51.814  14.086  1.00  0.00    -0.298 N 
HETATM   18  C   UNL     1     -44.616 -52.066  15.503  1.00  0.00     0.134 C 
HETATM   19  C   UNL     1     -46.082 -52.045  15.886  1.00  0.00     0.029 C 
HETATM   20  C   UNL     1     -46.795 -51.404  14.712  1.00  0.00     0.105 C 
HETATM   21  C   UNL     1     -45.835 -51.526  13.556  1.00  0.00     0.225 C 
HETATM   22  O   UNL     1     -46.164 -51.299  12.402  1.00  0.00    -0.273 OA
ENDBRANCH   4  17
TORSDOF 6
ENDMDL
MODEL 6
REMARK VINA RESULT:      -4.8      3.543      4.526
REMARK  6 active torsions:
REMARK  status: ('A' for Active; 'I' for Inactive)
REMARK    1  A    between atoms: O_2  and  C_3 
REMARK    2  A    between atoms: C_3  and  C_4 
REMARK    3  A    between atoms: C_4  and  N_6 
REMARK       I    between atoms: N_6  and  C_7 
REMARK    4  A    between atoms: C_7  and  C_9 
REMARK    5  A    between atoms: C_9  and  C_10 
REMARK    6  A    between atoms: C_13  and  N_16 
ROOT
HETATM    1  C   UNL     1     -42.490 -52.859  12.861  1.00  0.00     0.026 A 
HETATM    2  C   UNL     1     -42.447 -54.087  13.492  1.00  0.00     0.078 A 
HETATM    3  S   UNL     1     -43.819 -54.271  14.506  1.00  0.00    -0.064 SA
HETATM    4  C   UNL     1     -44.315 -52.675  14.116  1.00  0.00     0.153 A 
HETATM    5  N   UNL     1     -43.575 -52.073  13.218  1.00  0.00    -0.339 N 
ATOM      6  HN  UNL     1     -43.770 -51.149  12.834  1.00  0.00     0.168 HD
ENDROOT
BRANCH   1   7
HETATM    7  C   UNL     1     -41.517 -52.314  11.867  1.00  0.00     0.160 C 
BRANCH   7   8
HETATM    8  C   UNL     1     -40.590 -51.246  12.425  1.00  0.00     0.223 C 
HETATM    9  N   UNL     1     -39.331 -51.177  11.882  1.00  0.00    -0.354 N 
HETATM   10  H   UNL     1     -39.053 -51.920  11.235  1.00  0.00     0.162 HD
HETATM   11  O   UNL     1     -40.951 -50.522  13.357  1.00  0.00    -0.273 OA
BRANCH   9  12
HETATM   12  C   UNL     1     -38.318 -50.233  12.337  1.00  0.00     0.104 C 
HETATM   13  C   UNL     1     -37.415 -49.844  11.167  1.00  0.00     0.034 C 
BRANCH  12  14
HETATM   14  C   UNL     1     -37.502 -50.798  13.515  1.00  0.00     0.191 C 
BRANCH  14  15
HETATM   15  O   UNL     1     -37.894 -50.146  14.729  1.00  0.00    -0.394 OA
HETATM   16  C   UNL     1     -38.300 -51.078  15.721  1.00  0.00     0.201 C 
ENDBRANCH  14  15
ENDBRANCH  12  14
ENDBRANCH   9  12
ENDBRANCH   7   8
ENDBRANCH   1   7
BRANCH   4  17
HETATM   17  N   UNL     1     -45.377 -52.126  14.810  1.00  0.00    -0.298 N 
HETATM   18  C   UNL     1     -46.671 -52.713  15.046  1.00  0.00     0.134 C 
HETATM   19  C   UNL     1     -47.389 -51.772  15.991  1.00  0.00     0.029 C 
HETATM   20  C   UNL     1     -46.311 -50.862  16.548  1.00  0.00     0.105 C 
HETATM   21  C   UNL     1     -45.158 -50.985  15.584  1.00  0.00     0.225 C 
HETATM   22  O   UNL     1     -44.196 -50.232  15.611  1.00  0.00    -0.273 OA
ENDBRANCH   4  17
TORSDOF 6
ENDMDL
MODEL 7
REMARK VINA RESULT:      -4.6     13.558     14.509
REMARK  6 active torsions:
REMARK  status: ('A' for Active; 'I' for Inactive)
REMARK    1  A    between atoms: O_2  and  C_3 
REMARK    2  A    between atoms: C_3  and  C_4 
REMARK    3  A    between atoms: C_4  and  N_6 
REMARK       I    between atoms: N_6  and  C_7 
REMARK    4  A    between atoms: C_7  and  C_9 
REMARK    5  A    between atoms: C_9  and  C_10 
REMARK    6  A    between atoms: C_13  and  N_16 
ROOT
HETATM    1  C   UNL     1     -48.650 -48.179  -0.451  1.00  0.00     0.026 A 
HETATM    2  C   UNL     1     -49.058 -47.894   0.838  1.00  0.00     0.078 A 
HETATM    3  S   UNL     1     -50.016 -49.181   1.445  1.00  0.00    -0.064 SA
HETATM    4  C   UNL     1     -49.907 -49.973  -0.073  1.00  0.00     0.153 A 
HETATM    5  N   UNL     1     -49.133 -49.380  -0.948  1.00  0.00    -0.339 N 
ATOM      6  HN  UNL     1     -48.914 -49.752  -1.872  1.00  0.00     0.168 HD
ENDROOT
BRANCH   1   7
HETATM    7  C   UNL     1     -47.773 -47.350  -1.331  1.00  0.00     0.160 C 
BRANCH   7   8
HETATM    8  C   UNL     1     -46.409 -47.963  -1.605  1.00  0.00     0.223 C 
HETATM    9  N   UNL     1     -45.337 -47.106  -1.611  1.00  0.00    -0.354 N 
HETATM   10  H   UNL     1     -45.533 -46.102  -1.560  1.00  0.00     0.162 HD
HETATM   11  O   UNL     1     -46.298 -49.165  -1.861  1.00  0.00    -0.273 OA
BRANCH   9  12
HETATM   12  C   UNL     1     -43.974 -47.536  -1.896  1.00  0.00     0.104 C 
HETATM   13  C   UNL     1     -42.995 -46.759  -1.016  1.00  0.00     0.034 C 
BRANCH  12  14
HETATM   14  C   UNL     1     -43.630 -47.386  -3.390  1.00  0.00     0.191 C 
BRANCH  14  15
HETATM   15  O   UNL     1     -43.877 -48.624  -4.067  1.00  0.00    -0.394 OA
HETATM   16  C   UNL     1     -44.902 -48.498  -5.042  1.00  0.00     0.201 C 
ENDBRANCH  14  15
ENDBRANCH  12  14
ENDBRANCH   9  12
ENDBRANCH   7   8
ENDBRANCH   1   7
BRANCH   4  17
HETATM   17  N   UNL     1     -50.680 -51.099  -0.287  1.00  0.00    -0.298 N 
HETATM   18  C   UNL     1     -52.079 -51.154  -0.627  1.00  0.00     0.134 C 
HETATM   19  C   UNL     1     -52.381 -52.612  -0.906  1.00  0.00     0.029 C 
HETATM   20  C   UNL     1     -51.029 -53.278  -1.073  1.00  0.00     0.105 C 
HETATM   21  C   UNL     1     -50.045 -52.334  -0.429  1.00  0.00     0.225 C 
HETATM   22  O   UNL     1     -48.887 -52.649  -0.199  1.00  0.00    -0.273 OA
ENDBRANCH   4  17
TORSDOF 6
ENDMDL
MODEL 8
REMARK VINA RESULT:      -4.6      7.065     10.435
REMARK  6 active torsions:
REMARK  status: ('A' for Active; 'I' for Inactive)
REMARK    1  A    between atoms: O_2  and  C_3 
REMARK    2  A    between atoms: C_3  and  C_4 
REMARK    3  A    between atoms: C_4  and  N_6 
REMARK       I    between atoms: N_6  and  C_7 
REMARK    4  A    between atoms: C_7  and  C_9 
REMARK    5  A    between atoms: C_9  and  C_10 
REMARK    6  A    between atoms: C_13  and  N_16 
ROOT
HETATM    1  C   UNL     1     -39.748 -55.314  16.290  1.00  0.00     0.026 A 
HETATM    2  C   UNL     1     -38.865 -55.065  15.258  1.00  0.00     0.078 A 
HETATM    3  S   UNL     1     -39.684 -54.293  13.963  1.00  0.00    -0.064 SA
HETATM    4  C   UNL     1     -41.164 -54.438  14.819  1.00  0.00     0.153 A 
HETATM    5  N   UNL     1     -41.055 -54.934  16.026  1.00  0.00    -0.339 N 
ATOM      6  HN  UNL     1     -41.828 -55.028  16.685  1.00  0.00     0.168 HD
ENDROOT
BRANCH   1   7
HETATM    7  C   UNL     1     -39.445 -55.933  17.616  1.00  0.00     0.160 C 
BRANCH   7   8
HETATM    8  C   UNL     1     -39.454 -57.454  17.610  1.00  0.00     0.223 C 
HETATM    9  N   UNL     1     -38.629 -58.079  18.511  1.00  0.00    -0.354 N 
HETATM   10  H   UNL     1     -37.971 -57.496  19.035  1.00  0.00     0.162 HD
HETATM   11  O   UNL     1     -40.136 -58.077  16.792  1.00  0.00    -0.273 OA
BRANCH   9  12
HETATM   12  C   UNL     1     -38.499 -59.529  18.600  1.00  0.00     0.104 C 
HETATM   13  C   UNL     1     -39.492 -60.071  19.627  1.00  0.00     0.034 C 
BRANCH  12  14
HETATM   14  C   UNL     1     -37.056 -59.952  18.932  1.00  0.00     0.191 C 
BRANCH  14  15
HETATM   15  O   UNL     1     -36.915 -60.107  20.348  1.00  0.00    -0.394 OA
HETATM   16  C   UNL     1     -35.754 -59.451  20.839  1.00  0.00     0.201 C 
ENDBRANCH  14  15
ENDBRANCH  12  14
ENDBRANCH   9  12
ENDBRANCH   7   8
ENDBRANCH   1   7
BRANCH   4  17
HETATM   17  N   UNL     1     -42.338 -54.108  14.167  1.00  0.00    -0.298 N 
HETATM   18  C   UNL     1     -42.487 -53.324  12.968  1.00  0.00     0.134 C 
HETATM   19  C   UNL     1     -43.954 -53.407  12.598  1.00  0.00     0.029 C 
HETATM   20  C   UNL     1     -44.510 -54.557  13.414  1.00  0.00     0.105 C 
HETATM   21  C   UNL     1     -43.516 -54.763  14.529  1.00  0.00     0.225 C 
HETATM   22  O   UNL     1     -43.750 -55.475  15.494  1.00  0.00    -0.273 OA
ENDBRANCH   4  17
TORSDOF 6
ENDMDL
MODEL 9
REMARK VINA RESULT:      -4.4      2.877      4.642
REMARK  6 active torsions:
REMARK  status: ('A' for Active; 'I' for Inactive)
REMARK    1  A    between atoms: O_2  and  C_3 
REMARK    2  A    between atoms: C_3  and  C_4 
REMARK    3  A    between atoms: C_4  and  N_6 
REMARK       I    between atoms: N_6  and  C_7 
REMARK    4  A    between atoms: C_7  and  C_9 
REMARK    5  A    between atoms: C_9  and  C_10 
REMARK    6  A    between atoms: C_13  and  N_16 
ROOT
HETATM    1  C   UNL     1     -43.344 -53.353  13.594  1.00  0.00     0.026 A 
HETATM    2  C   UNL     1     -44.207 -53.475  12.522  1.00  0.00     0.078 A 
HETATM    3  S   UNL     1     -45.667 -52.635  12.849  1.00  0.00    -0.064 SA
HETATM    4  C   UNL     1     -45.092 -52.259  14.422  1.00  0.00     0.153 A 
HETATM    5  N   UNL     1     -43.862 -52.639  14.664  1.00  0.00    -0.339 N 
ATOM      6  HN  UNL     1     -43.354 -52.438  15.524  1.00  0.00     0.168 HD
ENDROOT
BRANCH   1   7
HETATM    7  C   UNL     1     -41.957 -53.895  13.709  1.00  0.00     0.160 C 
BRANCH   7   8
HETATM    8  C   UNL     1     -40.901 -53.061  13.001  1.00  0.00     0.223 C 
HETATM    9  N   UNL     1     -40.527 -51.891  13.612  1.00  0.00    -0.354 N 
HETATM   10  H   UNL     1     -41.066 -51.589  14.428  1.00  0.00     0.162 HD
HETATM   11  O   UNL     1     -40.454 -53.410  11.905  1.00  0.00    -0.273 OA
BRANCH   9  12
HETATM   12  C   UNL     1     -39.556 -50.967  13.037  1.00  0.00     0.104 C 
HETATM   13  C   UNL     1     -38.189 -51.191  13.683  1.00  0.00     0.034 C 
BRANCH  12  14
HETATM   14  C   UNL     1     -40.012 -49.502  13.177  1.00  0.00     0.191 C 
BRANCH  14  15
HETATM   15  O   UNL     1     -41.268 -49.324  12.513  1.00  0.00    -0.394 OA
HETATM   16  C   UNL     1     -41.100 -48.924  11.161  1.00  0.00     0.201 C 
ENDBRANCH  14  15
ENDBRANCH  12  14
ENDBRANCH   9  12
ENDBRANCH   7   8
ENDBRANCH   1   7
BRANCH   4  17
HETATM   17  N   UNL     1     -45.964 -51.670  15.319  1.00  0.00    -0.298 N 
HETATM   18  C   UNL     1     -47.315 -52.066  15.621  1.00  0.00     0.134 C 
HETATM   19  C   UNL     1     -47.754 -51.197  16.781  1.00  0.00     0.029 C 
HETATM   20  C   UNL     1     -46.479 -50.590  17.334  1.00  0.00     0.105 C 
HETATM   21  C   UNL     1     -45.466 -50.733  16.226  1.00  0.00     0.225 C 
HETATM   22  O   UNL     1     -44.383 -50.167  16.249  1.00  0.00    -0.273 OA
ENDBRANCH   4  17
TORSDOF 6
ENDMDL
