MODEL 1
REMARK VINA RESULT:      -6.2      0.000      0.000
REMARK  5 active torsions:
REMARK  status: ('A' for Active; 'I' for Inactive)
REMARK    1  A    between atoms: N_4  and  C_5 
REMARK    2  A    between atoms: C_5  and  C_6 
REMARK    3  A    between atoms: C_6  and  N_7 
REMARK       I    between atoms: N_7  and  C_8 
REMARK    4  A    between atoms: C_8  and  C_10 
REMARK    5  A    between atoms: C_10  and  N_11 
ROOT
HETATM    1  N   UNL     1     -40.735 -51.375  11.406  1.00  0.00    -0.358 N 
HETATM    2  C   UNL     1     -41.290 -50.177  11.803  1.00  0.00     0.237 C 
HETATM    3  O   UNL     1     -42.283 -50.105  12.526  1.00  0.00    -0.272 OA
HETATM    4  H   UNL     1     -39.952 -51.342  10.753  1.00  0.00     0.162 HD
ENDROOT
BRANCH   1   5
HETATM    5  C   UNL     1     -41.250 -52.663  11.831  1.00  0.00     0.152 C 
BRANCH   5   6
HETATM    6  C   UNL     1     -40.677 -53.154  13.178  1.00  0.00     0.292 C 
BRANCH   6   7
HETATM    7  N   UNL     1     -41.708 -53.541  14.161  1.00  0.00     0.095 N 
HETATM    8  C   UNL     1     -41.261 -54.620  15.065  1.00  0.00     0.303 C 
HETATM    9  C   UNL     1     -42.366 -55.032  16.062  1.00  0.00     0.146 C 
HETATM   10  C   UNL     1     -42.655 -53.951  17.105  1.00  0.00     0.041 C 
HETATM   11  O   UNL     1     -43.561 -55.431  15.372  1.00  0.00    -0.378 OA
HETATM   12  C   UNL     1     -44.034 -54.426  14.460  1.00  0.00     0.146 C 
HETATM   13  C   UNL     1     -42.931 -54.006  13.463  1.00  0.00     0.303 C 
HETATM   14  C   UNL     1     -45.237 -55.011  13.729  1.00  0.00     0.041 C 
ENDBRANCH   6   7
ENDBRANCH   5   6
ENDBRANCH   1   5
BRANCH   2  15
HETATM   15  C   UNL     1     -40.538 -48.940  11.365  1.00  0.00     0.251 C 
BRANCH  15  16
HETATM   16  N   UNL     1     -41.417 -47.960  10.757  1.00  0.00    -0.288 N 
HETATM   17  N   UNL     1     -42.547 -48.392  10.150  1.00  0.00    -0.303 N 
HETATM   18  C   UNL     1     -43.102 -47.276   9.663  1.00  0.00     0.024 A 
ATOM     19  HN  UNL     1     -42.894 -49.347  10.079  1.00  0.00     0.186 HD
HETATM   20  C   UNL     1     -44.371 -47.328   8.897  1.00  0.00     0.070 C 
HETATM   21  C   UNL     1     -42.337 -46.134   9.978  1.00  0.00     0.052 A 
HETATM   22  C   UNL     1     -41.250 -46.600  10.686  1.00  0.00     0.027 A 
HETATM   23  C   UNL     1     -40.101 -45.874  11.280  1.00  0.00     0.070 C 
ENDBRANCH  15  16
ENDBRANCH   2  15
TORSDOF 5
ENDMDL
MODEL 2
REMARK VINA RESULT:      -6.0      2.178      2.647
REMARK  5 active torsions:
REMARK  status: ('A' for Active; 'I' for Inactive)
REMARK    1  A    between atoms: N_4  and  C_5 
REMARK    2  A    between atoms: C_5  and  C_6 
REMARK    3  A    between atoms: C_6  and  N_7 
REMARK       I    between atoms: N_7  and  C_8 
REMARK    4  A    between atoms: C_8  and  C_10 
REMARK    5  A    between atoms: C_10  and  N_11 
ROOT
HETATM    1  N   UNL     1     -41.732 -49.611  12.633  1.00  0.00    -0.358 N 
HETATM    2  C   UNL     1     -40.868 -49.152  11.662  1.00  0.00     0.237 C 
HETATM    3  O   UNL     1     -40.189 -49.901  10.961  1.00  0.00    -0.272 OA
HETATM    4  H   UNL     1     -42.206 -48.917  13.213  1.00  0.00     0.162 HD
ENDROOT
BRANCH   1   5
HETATM    5  C   UNL     1     -41.948 -51.021  12.896  1.00  0.00     0.152 C 
BRANCH   5   6
HETATM    6  C   UNL     1     -42.708 -51.305  14.209  1.00  0.00     0.292 C 
BRANCH   6   7
HETATM    7  N   UNL     1     -43.933 -52.107  14.030  1.00  0.00     0.095 N 
HETATM    8  C   UNL     1     -43.658 -53.471  13.535  1.00  0.00     0.303 C 
HETATM    9  C   UNL     1     -44.957 -54.280  13.322  1.00  0.00     0.146 C 
HETATM   10  C   UNL     1     -45.652 -54.639  14.637  1.00  0.00     0.041 C 
HETATM   11  O   UNL     1     -45.848 -53.601  12.424  1.00  0.00    -0.378 OA
HETATM   12  C   UNL     1     -46.137 -52.257  12.845  1.00  0.00     0.146 C 
HETATM   13  C   UNL     1     -44.842 -51.443  13.063  1.00  0.00     0.303 C 
HETATM   14  C   UNL     1     -47.004 -51.623  11.762  1.00  0.00     0.041 C 
ENDBRANCH   6   7
ENDBRANCH   5   6
ENDBRANCH   1   5
BRANCH   2  15
HETATM   15  C   UNL     1     -40.873 -47.655  11.447  1.00  0.00     0.251 C 
BRANCH  15  16
HETATM   16  N   UNL     1     -41.872 -47.251  10.476  1.00  0.00    -0.288 N 
HETATM   17  N   UNL     1     -42.235 -48.133   9.516  1.00  0.00    -0.303 N 
HETATM   18  C   UNL     1     -43.117 -47.459   8.770  1.00  0.00     0.024 A 
ATOM     19  HN  UNL     1     -41.910 -49.091   9.390  1.00  0.00     0.186 HD
HETATM   20  C   UNL     1     -43.747 -48.083   7.583  1.00  0.00     0.070 C 
HETATM   21  C   UNL     1     -43.330 -46.155   9.268  1.00  0.00     0.052 A 
HETATM   22  C   UNL     1     -42.513 -46.043  10.373  1.00  0.00     0.027 A 
HETATM   23  C   UNL     1     -42.301 -44.910  11.305  1.00  0.00     0.070 C 
ENDBRANCH  15  16
ENDBRANCH   2  15
TORSDOF 5
ENDMDL
MODEL 3
REMARK VINA RESULT:      -6.0      1.921      7.639
REMARK  5 active torsions:
REMARK  status: ('A' for Active; 'I' for Inactive)
REMARK    1  A    between atoms: N_4  and  C_5 
REMARK    2  A    between atoms: C_5  and  C_6 
REMARK    3  A    between atoms: C_6  and  N_7 
REMARK       I    between atoms: N_7  and  C_8 
REMARK    4  A    between atoms: C_8  and  C_10 
REMARK    5  A    between atoms: C_10  and  N_11 
ROOT
HETATM    1  N   UNL     1     -40.814 -51.431  11.381  1.00  0.00    -0.358 N 
HETATM    2  C   UNL     1     -40.738 -52.191  12.528  1.00  0.00     0.237 C 
HETATM    3  O   UNL     1     -40.261 -51.770  13.581  1.00  0.00    -0.272 OA
HETATM    4  H   UNL     1     -41.164 -51.881  10.535  1.00  0.00     0.162 HD
ENDROOT
BRANCH   1   5
HETATM    5  C   UNL     1     -40.370 -50.051  11.318  1.00  0.00     0.152 C 
BRANCH   5   6
HETATM    6  C   UNL     1     -41.437 -49.028  11.763  1.00  0.00     0.292 C 
BRANCH   6   7
HETATM    7  N   UNL     1     -41.387 -47.751  11.024  1.00  0.00     0.095 N 
HETATM    8  C   UNL     1     -41.151 -46.589  11.904  1.00  0.00     0.303 C 
HETATM    9  C   UNL     1     -41.136 -45.262  11.114  1.00  0.00     0.146 C 
HETATM   10  C   UNL     1     -39.912 -45.127  10.206  1.00  0.00     0.041 C 
HETATM   11  O   UNL     1     -42.358 -45.084  10.380  1.00  0.00    -0.378 OA
HETATM   12  C   UNL     1     -42.652 -46.197   9.519  1.00  0.00     0.146 C 
HETATM   13  C   UNL     1     -42.663 -47.528  10.303  1.00  0.00     0.303 C 
HETATM   14  C   UNL     1     -44.010 -45.927   8.882  1.00  0.00     0.041 C 
ENDBRANCH   6   7
ENDBRANCH   5   6
ENDBRANCH   1   5
BRANCH   2  15
HETATM   15  C   UNL     1     -41.369 -53.563  12.437  1.00  0.00     0.251 C 
BRANCH  15  16
HETATM   16  N   UNL     1     -42.747 -53.556  12.886  1.00  0.00    -0.288 N 
HETATM   17  N   UNL     1     -43.673 -52.929  12.123  1.00  0.00    -0.303 N 
HETATM   18  C   UNL     1     -44.810 -53.059  12.816  1.00  0.00     0.024 A 
ATOM     19  HN  UNL     1     -43.536 -52.464  11.226  1.00  0.00     0.186 HD
HETATM   20  C   UNL     1     -46.079 -52.479  12.315  1.00  0.00     0.070 C 
HETATM   21  C   UNL     1     -44.611 -53.785  14.009  1.00  0.00     0.052 A 
HETATM   22  C   UNL     1     -43.268 -54.096  14.034  1.00  0.00     0.027 A 
HETATM   23  C   UNL     1     -42.468 -54.842  15.035  1.00  0.00     0.070 C 
ENDBRANCH  15  16
ENDBRANCH   2  15
TORSDOF 5
ENDMDL
MODEL 4
REMARK VINA RESULT:      -5.8      2.784      6.396
REMARK  5 active torsions:
REMARK  status: ('A' for Active; 'I' for Inactive)
REMARK    1  A    between atoms: N_4  and  C_5 
REMARK    2  A    between atoms: C_5  and  C_6 
REMARK    3  A    between atoms: C_6  and  N_7 
REMARK       I    between atoms: N_7  and  C_8 
REMARK    4  A    between atoms: C_8  and  C_10 
REMARK    5  A    between atoms: C_10  and  N_11 
ROOT
HETATM    1  N   UNL     1     -41.593 -53.774  14.140  1.00  0.00    -0.358 N 
HETATM    2  C   UNL     1     -42.736 -53.527  13.410  1.00  0.00     0.237 C 
HETATM    3  O   UNL     1     -42.716 -53.100  12.257  1.00  0.00    -0.272 OA
HETATM    4  H   UNL     1     -41.703 -54.065  15.112  1.00  0.00     0.162 HD
ENDROOT
BRANCH   1   5
HETATM    5  C   UNL     1     -40.258 -53.587  13.603  1.00  0.00     0.152 C 
BRANCH   5   6
HETATM    6  C   UNL     1     -39.576 -52.280  14.061  1.00  0.00     0.292 C 
BRANCH   6   7
HETATM    7  N   UNL     1     -39.253 -51.355  12.957  1.00  0.00     0.095 N 
HETATM    8  C   UNL     1     -38.192 -50.391  13.309  1.00  0.00     0.303 C 
HETATM    9  C   UNL     1     -37.895 -49.413  12.151  1.00  0.00     0.146 C 
HETATM   10  C   UNL     1     -37.214 -50.092  10.962  1.00  0.00     0.041 C 
HETATM   11  O   UNL     1     -39.083 -48.713  11.748  1.00  0.00    -0.378 OA
HETATM   12  C   UNL     1     -40.160 -49.603  11.411  1.00  0.00     0.146 C 
HETATM   13  C   UNL     1     -40.459 -50.587  12.564  1.00  0.00     0.303 C 
HETATM   14  C   UNL     1     -41.378 -48.739  11.101  1.00  0.00     0.041 C 
ENDBRANCH   6   7
ENDBRANCH   5   6
ENDBRANCH   1   5
BRANCH   2  15
HETATM   15  C   UNL     1     -44.032 -53.904  14.092  1.00  0.00     0.251 C 
BRANCH  15  16
HETATM   16  N   UNL     1     -45.103 -52.982  13.767  1.00  0.00    -0.288 N 
HETATM   17  N   UNL     1     -45.590 -52.974  12.504  1.00  0.00    -0.303 N 
HETATM   18  C   UNL     1     -46.513 -52.006  12.516  1.00  0.00     0.024 A 
ATOM     19  HN  UNL     1     -45.316 -53.570  11.723  1.00  0.00     0.186 HD
HETATM   20  C   UNL     1     -47.277 -51.666  11.292  1.00  0.00     0.070 C 
HETATM   21  C   UNL     1     -46.627 -51.412  13.791  1.00  0.00     0.052 A 
HETATM   22  C   UNL     1     -45.704 -52.059  14.585  1.00  0.00     0.027 A 
HETATM   23  C   UNL     1     -45.361 -51.871  16.015  1.00  0.00     0.070 C 
ENDBRANCH  15  16
ENDBRANCH   2  15
TORSDOF 5
ENDMDL
MODEL 5
REMARK VINA RESULT:      -5.8      2.810      6.760
REMARK  5 active torsions:
REMARK  status: ('A' for Active; 'I' for Inactive)
REMARK    1  A    between atoms: N_4  and  C_5 
REMARK    2  A    between atoms: C_5  and  C_6 
REMARK    3  A    between atoms: C_6  and  N_7 
REMARK       I    between atoms: N_7  and  C_8 
REMARK    4  A    between atoms: C_8  and  C_10 
REMARK    5  A    between atoms: C_10  and  N_11 
ROOT
HETATM    1  N   UNL     1     -43.248 -53.885  13.819  1.00  0.00    -0.358 N 
HETATM    2  C   UNL     1     -44.065 -54.849  14.369  1.00  0.00     0.237 C 
HETATM    3  O   UNL     1     -43.651 -55.729  15.121  1.00  0.00    -0.272 OA
HETATM    4  H   UNL     1     -43.664 -53.232  13.153  1.00  0.00     0.162 HD
ENDROOT
BRANCH   1   5
HETATM    5  C   UNL     1     -41.828 -53.796  14.104  1.00  0.00     0.152 C 
BRANCH   5   6
HETATM    6  C   UNL     1     -40.933 -53.823  12.847  1.00  0.00     0.292 C 
BRANCH   6   7
HETATM    7  N   UNL     1     -40.192 -52.568  12.613  1.00  0.00     0.095 N 
HETATM    8  C   UNL     1     -39.591 -52.019  13.845  1.00  0.00     0.303 C 
HETATM    9  C   UNL     1     -38.851 -50.690  13.583  1.00  0.00     0.146 C 
HETATM   10  C   UNL     1     -37.576 -50.875  12.758  1.00  0.00     0.041 C 
HETATM   11  O   UNL     1     -39.726 -49.719  12.988  1.00  0.00    -0.378 OA
HETATM   12  C   UNL     1     -40.358 -50.205  11.792  1.00  0.00     0.146 C 
HETATM   13  C   UNL     1     -41.097 -51.538  12.047  1.00  0.00     0.303 C 
HETATM   14  C   UNL     1     -41.327 -49.126  11.323  1.00  0.00     0.041 C 
ENDBRANCH   6   7
ENDBRANCH   5   6
ENDBRANCH   1   5
BRANCH   2  15
HETATM   15  C   UNL     1     -45.538 -54.702  14.058  1.00  0.00     0.251 C 
BRANCH  15  16
HETATM   16  N   UNL     1     -46.063 -53.430  14.516  1.00  0.00    -0.288 N 
HETATM   17  N   UNL     1     -46.273 -53.256  15.841  1.00  0.00    -0.303 N 
HETATM   18  C   UNL     1     -46.791 -52.026  15.931  1.00  0.00     0.024 A 
ATOM     19  HN  UNL     1     -46.080 -53.911  16.598  1.00  0.00     0.186 HD
HETATM   20  C   UNL     1     -47.183 -51.457  17.242  1.00  0.00     0.070 C 
HETATM   21  C   UNL     1     -46.892 -51.411  14.664  1.00  0.00     0.052 A 
HETATM   22  C   UNL     1     -46.416 -52.339  13.763  1.00  0.00     0.027 A 
HETATM   23  C   UNL     1     -46.277 -52.269  12.289  1.00  0.00     0.070 C 
ENDBRANCH  15  16
ENDBRANCH   2  15
TORSDOF 5
ENDMDL
MODEL 6
REMARK VINA RESULT:      -5.8      2.765      7.073
REMARK  5 active torsions:
REMARK  status: ('A' for Active; 'I' for Inactive)
REMARK    1  A    between atoms: N_4  and  C_5 
REMARK    2  A    between atoms: C_5  and  C_6 
REMARK    3  A    between atoms: C_6  and  N_7 
REMARK       I    between atoms: N_7  and  C_8 
REMARK    4  A    between atoms: C_8  and  C_10 
REMARK    5  A    between atoms: C_10  and  N_11 
ROOT
HETATM    1  N   UNL     1     -42.744 -52.585  11.849  1.00  0.00    -0.358 N 
HETATM    2  C   UNL     1     -43.139 -53.392  12.893  1.00  0.00     0.237 C 
HETATM    3  O   UNL     1     -42.381 -53.733  13.801  1.00  0.00    -0.272 OA
HETATM    4  H   UNL     1     -43.420 -52.407  11.104  1.00  0.00     0.162 HD
ENDROOT
BRANCH   1   5
HETATM    5  C   UNL     1     -41.407 -52.032  11.739  1.00  0.00     0.152 C 
BRANCH   5   6
HETATM    6  C   UNL     1     -41.179 -50.767  12.594  1.00  0.00     0.292 C 
BRANCH   6   7
HETATM    7  N   UNL     1     -41.812 -49.553  12.045  1.00  0.00     0.095 N 
HETATM    8  C   UNL     1     -40.923 -48.806  11.133  1.00  0.00     0.303 C 
HETATM    9  C   UNL     1     -41.594 -47.522  10.597  1.00  0.00     0.146 C 
HETATM   10  C   UNL     1     -42.740 -47.813   9.627  1.00  0.00     0.041 C 
HETATM   11  O   UNL     1     -42.019 -46.672  11.675  1.00  0.00    -0.378 OA
HETATM   12  C   UNL     1     -42.873 -47.353  12.609  1.00  0.00     0.146 C 
HETATM   13  C   UNL     1     -42.210 -48.641  13.145  1.00  0.00     0.303 C 
HETATM   14  C   UNL     1     -43.166 -46.378  13.744  1.00  0.00     0.041 C 
ENDBRANCH   6   7
ENDBRANCH   5   6
ENDBRANCH   1   5
BRANCH   2  15
HETATM   15  C   UNL     1     -44.604 -53.765  12.905  1.00  0.00     0.251 C 
BRANCH  15  16
HETATM   16  N   UNL     1     -45.389 -52.851  13.711  1.00  0.00    -0.288 N 
HETATM   17  N   UNL     1     -45.183 -52.826  15.048  1.00  0.00    -0.303 N 
HETATM   18  C   UNL     1     -46.071 -51.934  15.499  1.00  0.00     0.024 A 
ATOM     19  HN  UNL     1     -44.506 -53.364  15.588  1.00  0.00     0.186 HD
HETATM   20  C   UNL     1     -46.178 -51.628  16.946  1.00  0.00     0.070 C 
HETATM   21  C   UNL     1     -46.829 -51.376  14.447  1.00  0.00     0.052 A 
HETATM   22  C   UNL     1     -46.370 -51.985  13.298  1.00  0.00     0.027 A 
HETATM   23  C   UNL     1     -46.782 -51.813  11.884  1.00  0.00     0.070 C 
ENDBRANCH  15  16
ENDBRANCH   2  15
TORSDOF 5
ENDMDL
MODEL 7
REMARK VINA RESULT:      -5.8      2.130      2.967
REMARK  5 active torsions:
REMARK  status: ('A' for Active; 'I' for Inactive)
REMARK    1  A    between atoms: N_4  and  C_5 
REMARK    2  A    between atoms: C_5  and  C_6 
REMARK    3  A    between atoms: C_6  and  N_7 
REMARK       I    between atoms: N_7  and  C_8 
REMARK    4  A    between atoms: C_8  and  C_10 
REMARK    5  A    between atoms: C_10  and  N_11 
ROOT
HETATM    1  N   UNL     1     -42.247 -50.504  11.844  1.00  0.00    -0.358 N 
HETATM    2  C   UNL     1     -41.554 -49.339  11.598  1.00  0.00     0.237 C 
HETATM    3  O   UNL     1     -40.342 -49.229  11.774  1.00  0.00    -0.272 OA
HETATM    4  H   UNL     1     -43.262 -50.487  11.733  1.00  0.00     0.162 HD
ENDROOT
BRANCH   1   5
HETATM    5  C   UNL     1     -41.605 -51.723  12.300  1.00  0.00     0.152 C 
BRANCH   5   6
HETATM    6  C   UNL     1     -41.901 -52.074  13.774  1.00  0.00     0.292 C 
BRANCH   6   7
HETATM    7  N   UNL     1     -43.201 -52.743  13.980  1.00  0.00     0.095 N 
HETATM    8  C   UNL     1     -43.630 -53.533  12.809  1.00  0.00     0.303 C 
HETATM    9  C   UNL     1     -45.007 -54.196  13.034  1.00  0.00     0.146 C 
HETATM   10  C   UNL     1     -44.961 -55.317  14.074  1.00  0.00     0.041 C 
HETATM   11  O   UNL     1     -46.006 -53.216  13.360  1.00  0.00    -0.378 OA
HETATM   12  C   UNL     1     -45.632 -52.401  14.483  1.00  0.00     0.146 C 
HETATM   13  C   UNL     1     -44.253 -51.738  14.266  1.00  0.00     0.303 C 
HETATM   14  C   UNL     1     -46.722 -51.348  14.658  1.00  0.00     0.041 C 
ENDBRANCH   6   7
ENDBRANCH   5   6
ENDBRANCH   1   5
BRANCH   2  15
HETATM   15  C   UNL     1     -42.372 -48.213  11.005  1.00  0.00     0.251 C 
BRANCH  15  16
HETATM   16  N   UNL     1     -41.693 -46.937  11.109  1.00  0.00    -0.288 N 
HETATM   17  N   UNL     1     -40.757 -46.624  10.184  1.00  0.00    -0.303 N 
HETATM   18  C   UNL     1     -40.295 -45.431  10.576  1.00  0.00     0.024 A 
ATOM     19  HN  UNL     1     -40.469 -47.171   9.373  1.00  0.00     0.186 HD
HETATM   20  C   UNL     1     -39.223 -44.742   9.819  1.00  0.00     0.070 C 
HETATM   21  C   UNL     1     -40.952 -44.977  11.739  1.00  0.00     0.052 A 
HETATM   22  C   UNL     1     -41.852 -45.968  12.068  1.00  0.00     0.027 A 
HETATM   23  C   UNL     1     -42.819 -46.061  13.187  1.00  0.00     0.070 C 
ENDBRANCH  15  16
ENDBRANCH   2  15
TORSDOF 5
ENDMDL
MODEL 8
REMARK VINA RESULT:      -5.7      2.785      7.435
REMARK  5 active torsions:
REMARK  status: ('A' for Active; 'I' for Inactive)
REMARK    1  A    between atoms: N_4  and  C_5 
REMARK    2  A    between atoms: C_5  and  C_6 
REMARK    3  A    between atoms: C_6  and  N_7 
REMARK       I    between atoms: N_7  and  C_8 
REMARK    4  A    between atoms: C_8  and  C_10 
REMARK    5  A    between atoms: C_10  and  N_11 
ROOT
HETATM    1  N   UNL     1     -41.885 -50.101  12.514  1.00  0.00    -0.358 N 
HETATM    2  C   UNL     1     -42.313 -51.403  12.653  1.00  0.00     0.237 C 
HETATM    3  O   UNL     1     -42.035 -52.290  11.847  1.00  0.00    -0.272 OA
HETATM    4  H   UNL     1     -42.217 -49.416  13.194  1.00  0.00     0.162 HD
ENDROOT
BRANCH   1   5
HETATM    5  C   UNL     1     -41.038 -49.660  11.421  1.00  0.00     0.152 C 
BRANCH   5   6
HETATM    6  C   UNL     1     -40.128 -48.464  11.776  1.00  0.00     0.292 C 
BRANCH   6   7
HETATM    7  N   UNL     1     -40.599 -47.174  11.238  1.00  0.00     0.095 N 
HETATM    8  C   UNL     1     -40.900 -46.188  12.296  1.00  0.00     0.303 C 
HETATM    9  C   UNL     1     -41.424 -44.858  11.712  1.00  0.00     0.146 C 
HETATM   10  C   UNL     1     -40.345 -44.077  10.959  1.00  0.00     0.041 C 
HETATM   11  O   UNL     1     -42.585 -45.073  10.894  1.00  0.00    -0.378 OA
HETATM   12  C   UNL     1     -42.357 -46.041   9.856  1.00  0.00     0.146 C 
HETATM   13  C   UNL     1     -41.829 -47.373  10.434  1.00  0.00     0.303 C 
HETATM   14  C   UNL     1     -43.684 -46.247   9.134  1.00  0.00     0.041 C 
ENDBRANCH   6   7
ENDBRANCH   5   6
ENDBRANCH   1   5
BRANCH   2  15
HETATM   15  C   UNL     1     -43.079 -51.700  13.923  1.00  0.00     0.251 C 
BRANCH  15  16
HETATM   16  N   UNL     1     -44.513 -51.637  13.717  1.00  0.00    -0.288 N 
HETATM   17  N   UNL     1     -44.995 -51.815  12.465  1.00  0.00    -0.303 N 
HETATM   18  C   UNL     1     -46.317 -51.657  12.599  1.00  0.00     0.024 A 
ATOM     19  HN  UNL     1     -44.472 -52.022  11.615  1.00  0.00     0.186 HD
HETATM   20  C   UNL     1     -47.220 -51.759  11.428  1.00  0.00     0.070 C 
HETATM   21  C   UNL     1     -46.676 -51.398  13.939  1.00  0.00     0.052 A 
HETATM   22  C   UNL     1     -45.492 -51.389  14.645  1.00  0.00     0.027 A 
HETATM   23  C   UNL     1     -45.230 -51.169  16.088  1.00  0.00     0.070 C 
ENDBRANCH  15  16
ENDBRANCH   2  15
TORSDOF 5
ENDMDL
MODEL 9
REMARK VINA RESULT:      -5.7      2.696      7.637
REMARK  5 active torsions:
REMARK  status: ('A' for Active; 'I' for Inactive)
REMARK    1  A    between atoms: N_4  and  C_5 
REMARK    2  A    between atoms: C_5  and  C_6 
REMARK    3  A    between atoms: C_6  and  N_7 
REMARK       I    between atoms: N_7  and  C_8 
REMARK    4  A    between atoms: C_8  and  C_10 
REMARK    5  A    between atoms: C_10  and  N_11 
ROOT
HETATM    1  N   UNL     1     -42.621 -50.606  12.316  1.00  0.00    -0.358 N 
HETATM    2  C   UNL     1     -42.632 -51.839  12.932  1.00  0.00     0.237 C 
HETATM    3  O   UNL     1     -41.695 -52.258  13.610  1.00  0.00    -0.272 OA
HETATM    4  H   UNL     1     -43.412 -50.366  11.718  1.00  0.00     0.162 HD
ENDROOT
BRANCH   1   5
HETATM    5  C   UNL     1     -41.517 -49.671  12.438  1.00  0.00     0.152 C 
BRANCH   5   6
HETATM    6  C   UNL     1     -40.878 -49.276  11.090  1.00  0.00     0.292 C 
BRANCH   6   7
HETATM    7  N   UNL     1     -41.122 -47.873  10.701  1.00  0.00     0.095 N 
HETATM    8  C   UNL     1     -41.130 -46.952  11.855  1.00  0.00     0.303 C 
HETATM    9  C   UNL     1     -41.421 -45.496  11.428  1.00  0.00     0.146 C 
HETATM   10  C   UNL     1     -40.272 -44.872  10.632  1.00  0.00     0.041 C 
HETATM   11  O   UNL     1     -42.665 -45.405  10.716  1.00  0.00    -0.378 OA
HETATM   12  C   UNL     1     -42.723 -46.297   9.590  1.00  0.00     0.146 C 
HETATM   13  C   UNL     1     -42.429 -47.755  10.010  1.00  0.00     0.303 C 
HETATM   14  C   UNL     1     -44.119 -46.174   8.990  1.00  0.00     0.041 C 
ENDBRANCH   6   7
ENDBRANCH   5   6
ENDBRANCH   1   5
BRANCH   2  15
HETATM   15  C   UNL     1     -43.921 -52.618  12.795  1.00  0.00     0.251 C 
BRANCH  15  16
HETATM   16  N   UNL     1     -44.963 -52.096  13.658  1.00  0.00    -0.288 N 
HETATM   17  N   UNL     1     -44.685 -51.912  14.970  1.00  0.00    -0.303 N 
HETATM   18  C   UNL     1     -45.837 -51.474  15.489  1.00  0.00     0.024 A 
ATOM     19  HN  UNL     1     -43.800 -52.070  15.451  1.00  0.00     0.186 HD
HETATM   20  C   UNL     1     -45.954 -51.168  16.935  1.00  0.00     0.070 C 
HETATM   21  C   UNL     1     -46.842 -51.362  14.505  1.00  0.00     0.052 A 
HETATM   22  C   UNL     1     -46.254 -51.771  13.327  1.00  0.00     0.027 A 
HETATM   23  C   UNL     1     -46.808 -51.873  11.956  1.00  0.00     0.070 C 
ENDBRANCH  15  16
ENDBRANCH   2  15
TORSDOF 5
ENDMDL
