MODEL 1
REMARK VINA RESULT:      -6.1      0.000      0.000
REMARK  3 active torsions:
REMARK  status: ('A' for Active; 'I' for Inactive)
REMARK    1  A    between atoms: C_6  and  N_7 
REMARK       I    between atoms: N_7  and  C_8 
REMARK    2  A    between atoms: C_8  and  C_10 
REMARK    3  A    between atoms: C_10  and  N_11 
ROOT
HETATM    1  N   UNL     1     -41.283 -49.986  11.292  1.00  0.00    -0.355 N 
HETATM    2  C   UNL     1     -41.653 -50.824  12.324  1.00  0.00     0.236 C 
HETATM    3  O   UNL     1     -41.998 -50.422  13.434  1.00  0.00    -0.272 OA
HETATM    4  H   UNL     1     -40.924 -50.397  10.433  1.00  0.00     0.162 HD
ENDROOT
BRANCH   2   5
HETATM    5  C   UNL     1     -41.525 -52.311  12.016  1.00  0.00     0.235 C 
BRANCH   5   6
HETATM    6  N   UNL     1     -42.541 -53.083  12.728  1.00  0.00    -0.301 N 
HETATM    7  C   UNL     1     -43.846 -53.036  12.299  1.00  0.00     0.102 A 
HETATM    8  C   UNL     1     -44.797 -53.770  12.876  1.00  0.00     0.092 A 
HETATM    9  C   UNL     1     -44.444 -54.669  13.987  1.00  0.00     0.252 A 
HETATM   10  O   UNL     1     -45.312 -55.409  14.444  1.00  0.00    -0.268 OA
HETATM   11  N   UNL     1     -43.133 -54.610  14.425  1.00  0.00    -0.271 N 
HETATM   12  C   UNL     1     -42.728 -55.470  15.518  1.00  0.00     0.164 C 
HETATM   13  C   UNL     1     -42.143 -53.826  13.835  1.00  0.00     0.331 A 
HETATM   14  O   UNL     1     -40.982 -53.794  14.250  1.00  0.00    -0.246 OA
ENDBRANCH   5   6
ENDBRANCH   2   5
BRANCH   1  15
HETATM   15  C   UNL     1     -41.337 -48.536  11.421  1.00  0.00     0.088 C 
HETATM   16  C   UNL     1     -42.140 -47.939  10.255  1.00  0.00     0.025 C 
HETATM   17  C   UNL     1     -42.232 -46.419  10.344  1.00  0.00     0.002 C 
HETATM   18  C   UNL     1     -40.853 -45.776  10.466  1.00  0.00     0.005 C 
HETATM   19  C   UNL     1     -40.019 -46.357  11.621  1.00  0.00    -0.013 C 
HETATM   20  C   UNL     1     -40.564 -45.881  12.976  1.00  0.00     0.010 C 
HETATM   21  C   UNL     1     -39.929 -47.901  11.489  1.00  0.00     0.008 C 
HETATM   22  C   UNL     1     -39.070 -48.518  12.600  1.00  0.00     0.012 C 
ENDBRANCH   1  15
TORSDOF 3
ENDMDL
MODEL 2
REMARK VINA RESULT:      -6.0      3.593      5.645
REMARK  3 active torsions:
REMARK  status: ('A' for Active; 'I' for Inactive)
REMARK    1  A    between atoms: C_6  and  N_7 
REMARK       I    between atoms: N_7  and  C_8 
REMARK    2  A    between atoms: C_8  and  C_10 
REMARK    3  A    between atoms: C_10  and  N_11 
ROOT
HETATM    1  N   UNL     1     -43.518 -53.836  14.415  1.00  0.00    -0.355 N 
HETATM    2  C   UNL     1     -44.550 -54.256  13.601  1.00  0.00     0.236 C 
HETATM    3  O   UNL     1     -44.482 -54.276  12.373  1.00  0.00    -0.272 OA
HETATM    4  H   UNL     1     -43.683 -53.764  15.417  1.00  0.00     0.162 HD
ENDROOT
BRANCH   2   5
HETATM    5  C   UNL     1     -45.833 -54.625  14.336  1.00  0.00     0.235 C 
BRANCH   5   6
HETATM    6  N   UNL     1     -46.246 -53.552  15.240  1.00  0.00    -0.301 N 
HETATM    7  C   UNL     1     -46.830 -52.421  14.720  1.00  0.00     0.102 A 
HETATM    8  C   UNL     1     -47.278 -51.443  15.507  1.00  0.00     0.092 A 
HETATM    9  C   UNL     1     -47.167 -51.580  16.968  1.00  0.00     0.252 A 
HETATM   10  O   UNL     1     -47.672 -50.716  17.681  1.00  0.00    -0.268 OA
HETATM   11  N   UNL     1     -46.498 -52.703  17.425  1.00  0.00    -0.271 N 
HETATM   12  C   UNL     1     -46.354 -52.889  18.854  1.00  0.00     0.164 C 
HETATM   13  C   UNL     1     -46.009 -53.714  16.601  1.00  0.00     0.331 A 
HETATM   14  O   UNL     1     -45.415 -54.703  17.040  1.00  0.00    -0.246 OA
ENDBRANCH   5   6
ENDBRANCH   2   5
BRANCH   1  15
HETATM   15  C   UNL     1     -42.226 -53.439  13.874  1.00  0.00     0.088 C 
HETATM   16  C   UNL     1     -41.135 -54.403  14.368  1.00  0.00     0.025 C 
HETATM   17  C   UNL     1     -39.759 -54.034  13.826  1.00  0.00     0.002 C 
HETATM   18  C   UNL     1     -39.403 -52.581  14.128  1.00  0.00     0.005 C 
HETATM   19  C   UNL     1     -40.478 -51.589  13.653  1.00  0.00    -0.013 C 
HETATM   20  C   UNL     1     -40.463 -51.466  12.122  1.00  0.00     0.010 C 
HETATM   21  C   UNL     1     -41.862 -51.980  14.238  1.00  0.00     0.008 C 
HETATM   22  C   UNL     1     -42.957 -50.991  13.821  1.00  0.00     0.012 C 
ENDBRANCH   1  15
TORSDOF 3
ENDMDL
MODEL 3
REMARK VINA RESULT:      -6.0      2.409      7.110
REMARK  3 active torsions:
REMARK  status: ('A' for Active; 'I' for Inactive)
REMARK    1  A    between atoms: C_6  and  N_7 
REMARK       I    between atoms: N_7  and  C_8 
REMARK    2  A    between atoms: C_8  and  C_10 
REMARK    3  A    between atoms: C_10  and  N_11 
ROOT
HETATM    1  N   UNL     1     -43.145 -51.735  12.547  1.00  0.00    -0.355 N 
HETATM    2  C   UNL     1     -42.743 -50.488  12.983  1.00  0.00     0.236 C 
HETATM    3  O   UNL     1     -43.042 -50.025  14.083  1.00  0.00    -0.272 OA
HETATM    4  H   UNL     1     -42.932 -52.010  11.591  1.00  0.00     0.162 HD
ENDROOT
BRANCH   2   5
HETATM    5  C   UNL     1     -41.960 -49.676  11.959  1.00  0.00     0.235 C 
BRANCH   5   6
HETATM    6  N   UNL     1     -40.648 -49.299  12.482  1.00  0.00    -0.301 N 
HETATM    7  C   UNL     1     -40.429 -48.000  12.877  1.00  0.00     0.102 A 
HETATM    8  C   UNL     1     -39.271 -47.622  13.416  1.00  0.00     0.092 A 
HETATM    9  C   UNL     1     -38.205 -48.617  13.617  1.00  0.00     0.252 A 
HETATM   10  O   UNL     1     -37.181 -48.274  14.203  1.00  0.00    -0.268 OA
HETATM   11  N   UNL     1     -38.457 -49.886  13.125  1.00  0.00    -0.271 N 
HETATM   12  C   UNL     1     -37.442 -50.907  13.289  1.00  0.00     0.164 C 
HETATM   13  C   UNL     1     -39.660 -50.277  12.540  1.00  0.00     0.331 A 
HETATM   14  O   UNL     1     -39.854 -51.416  12.110  1.00  0.00    -0.246 OA
ENDBRANCH   5   6
ENDBRANCH   2   5
BRANCH   1  15
HETATM   15  C   UNL     1     -43.909 -52.637  13.397  1.00  0.00     0.088 C 
HETATM   16  C   UNL     1     -43.171 -53.979  13.529  1.00  0.00     0.025 C 
HETATM   17  C   UNL     1     -43.929 -54.962  14.415  1.00  0.00     0.002 C 
HETATM   18  C   UNL     1     -45.368 -55.155  13.944  1.00  0.00     0.005 C 
HETATM   19  C   UNL     1     -46.133 -53.829  13.794  1.00  0.00    -0.013 C 
HETATM   20  C   UNL     1     -46.470 -53.239  15.172  1.00  0.00     0.010 C 
HETATM   21  C   UNL     1     -45.346 -52.860  12.872  1.00  0.00     0.008 C 
HETATM   22  C   UNL     1     -46.096 -51.538  12.662  1.00  0.00     0.012 C 
ENDBRANCH   1  15
TORSDOF 3
ENDMDL
MODEL 4
REMARK VINA RESULT:      -6.0      1.782      2.735
REMARK  3 active torsions:
REMARK  status: ('A' for Active; 'I' for Inactive)
REMARK    1  A    between atoms: C_6  and  N_7 
REMARK       I    between atoms: N_7  and  C_8 
REMARK    2  A    between atoms: C_8  and  C_10 
REMARK    3  A    between atoms: C_10  and  N_11 
ROOT
HETATM    1  N   UNL     1     -42.481 -50.251  12.313  1.00  0.00    -0.355 N 
HETATM    2  C   UNL     1     -41.455 -51.174  12.324  1.00  0.00     0.236 C 
HETATM    3  O   UNL     1     -40.302 -50.903  12.657  1.00  0.00    -0.272 OA
HETATM    4  H   UNL     1     -43.386 -50.530  11.939  1.00  0.00     0.162 HD
ENDROOT
BRANCH   2   5
HETATM    5  C   UNL     1     -41.835 -52.556  11.808  1.00  0.00     0.235 C 
BRANCH   5   6
HETATM    6  N   UNL     1     -42.298 -53.413  12.898  1.00  0.00    -0.301 N 
HETATM    7  C   UNL     1     -41.401 -53.836  13.850  1.00  0.00     0.102 A 
HETATM    8  C   UNL     1     -41.786 -54.567  14.895  1.00  0.00     0.092 A 
HETATM    9  C   UNL     1     -43.208 -54.916  15.051  1.00  0.00     0.252 A 
HETATM   10  O   UNL     1     -43.562 -55.507  16.069  1.00  0.00    -0.268 OA
HETATM   11  N   UNL     1     -44.046 -54.531  14.019  1.00  0.00    -0.271 N 
HETATM   12  C   UNL     1     -45.455 -54.851  14.115  1.00  0.00     0.164 C 
HETATM   13  C   UNL     1     -43.639 -53.786  12.914  1.00  0.00     0.331 A 
HETATM   14  O   UNL     1     -44.410 -53.459  12.009  1.00  0.00    -0.246 OA
ENDBRANCH   5   6
ENDBRANCH   2   5
BRANCH   1  15
HETATM   15  C   UNL     1     -42.287 -48.880  12.765  1.00  0.00     0.088 C 
HETATM   16  C   UNL     1     -42.913 -48.698  14.157  1.00  0.00     0.025 C 
HETATM   17  C   UNL     1     -42.734 -47.277  14.681  1.00  0.00     0.002 C 
HETATM   18  C   UNL     1     -43.254 -46.239  13.690  1.00  0.00     0.005 C 
HETATM   19  C   UNL     1     -42.653 -46.398  12.283  1.00  0.00    -0.013 C 
HETATM   20  C   UNL     1     -41.186 -45.947  12.267  1.00  0.00     0.010 C 
HETATM   21  C   UNL     1     -42.870 -47.848  11.772  1.00  0.00     0.008 C 
HETATM   22  C   UNL     1     -42.321 -48.039  10.352  1.00  0.00     0.012 C 
ENDBRANCH   1  15
TORSDOF 3
ENDMDL
MODEL 5
REMARK VINA RESULT:      -5.9      2.548      6.749
REMARK  3 active torsions:
REMARK  status: ('A' for Active; 'I' for Inactive)
REMARK    1  A    between atoms: C_6  and  N_7 
REMARK       I    between atoms: N_7  and  C_8 
REMARK    2  A    between atoms: C_8  and  C_10 
REMARK    3  A    between atoms: C_10  and  N_11 
ROOT
HETATM    1  N   UNL     1     -42.948 -53.253  13.782  1.00  0.00    -0.355 N 
HETATM    2  C   UNL     1     -41.830 -53.712  14.448  1.00  0.00     0.236 C 
HETATM    3  O   UNL     1     -41.806 -53.940  15.656  1.00  0.00    -0.272 OA
HETATM    4  H   UNL     1     -42.864 -53.003  12.799  1.00  0.00     0.162 HD
ENDROOT
BRANCH   2   5
HETATM    5  C   UNL     1     -40.581 -53.842  13.584  1.00  0.00     0.235 C 
BRANCH   5   6
HETATM    6  N   UNL     1     -39.887 -52.560  13.471  1.00  0.00    -0.301 N 
HETATM    7  C   UNL     1     -38.899 -52.247  14.374  1.00  0.00     0.102 A 
HETATM    8  C   UNL     1     -38.196 -51.120  14.276  1.00  0.00     0.092 A 
HETATM    9  C   UNL     1     -38.466 -50.192  13.165  1.00  0.00     0.252 A 
HETATM   10  O   UNL     1     -37.745 -49.205  13.033  1.00  0.00    -0.268 OA
HETATM   11  N   UNL     1     -39.526 -50.523  12.339  1.00  0.00    -0.271 N 
HETATM   12  C   UNL     1     -39.841 -49.645  11.231  1.00  0.00     0.164 C 
HETATM   13  C   UNL     1     -40.276 -51.692  12.455  1.00  0.00     0.331 A 
HETATM   14  O   UNL     1     -41.216 -51.958  11.703  1.00  0.00    -0.246 OA
ENDBRANCH   5   6
ENDBRANCH   2   5
BRANCH   1  15
HETATM   15  C   UNL     1     -44.223 -53.065  14.460  1.00  0.00     0.088 C 
HETATM   16  C   UNL     1     -45.053 -54.357  14.380  1.00  0.00     0.025 C 
HETATM   17  C   UNL     1     -46.400 -54.214  15.080  1.00  0.00     0.002 C 
HETATM   18  C   UNL     1     -47.182 -53.010  14.561  1.00  0.00     0.005 C 
HETATM   19  C   UNL     1     -46.378 -51.701  14.620  1.00  0.00    -0.013 C 
HETATM   20  C   UNL     1     -46.237 -51.216  16.071  1.00  0.00     0.010 C 
HETATM   21  C   UNL     1     -45.023 -51.873  13.882  1.00  0.00     0.008 C 
HETATM   22  C   UNL     1     -44.205 -50.575  13.882  1.00  0.00     0.012 C 
ENDBRANCH   1  15
TORSDOF 3
ENDMDL
MODEL 6
REMARK VINA RESULT:      -5.8      2.635      6.605
REMARK  3 active torsions:
REMARK  status: ('A' for Active; 'I' for Inactive)
REMARK    1  A    between atoms: C_6  and  N_7 
REMARK       I    between atoms: N_7  and  C_8 
REMARK    2  A    between atoms: C_8  and  C_10 
REMARK    3  A    between atoms: C_10  and  N_11 
ROOT
HETATM    1  N   UNL     1     -43.189 -51.618  12.842  1.00  0.00    -0.355 N 
HETATM    2  C   UNL     1     -42.121 -52.479  12.698  1.00  0.00     0.236 C 
HETATM    3  O   UNL     1     -41.982 -53.505  13.362  1.00  0.00    -0.272 OA
HETATM    4  H   UNL     1     -43.187 -50.745  12.319  1.00  0.00     0.162 HD
ENDROOT
BRANCH   2   5
HETATM    5  C   UNL     1     -41.064 -52.024  11.699  1.00  0.00     0.235 C 
BRANCH   5   6
HETATM    6  N   UNL     1     -40.183 -51.019  12.291  1.00  0.00    -0.301 N 
HETATM    7  C   UNL     1     -39.163 -51.421  13.120  1.00  0.00     0.102 A 
HETATM    8  C   UNL     1     -38.296 -50.549  13.634  1.00  0.00     0.092 A 
HETATM    9  C   UNL     1     -38.416 -49.122  13.294  1.00  0.00     0.252 A 
HETATM   10  O   UNL     1     -37.554 -48.346  13.697  1.00  0.00    -0.268 OA
HETATM   11  N   UNL     1     -39.510 -48.771  12.522  1.00  0.00    -0.271 N 
HETATM   12  C   UNL     1     -39.682 -47.379  12.159  1.00  0.00     0.164 C 
HETATM   13  C   UNL     1     -40.430 -49.680  12.003  1.00  0.00     0.331 A 
HETATM   14  O   UNL     1     -41.396 -49.335  11.318  1.00  0.00    -0.246 OA
ENDBRANCH   5   6
ENDBRANCH   2   5
BRANCH   1  15
HETATM   15  C   UNL     1     -44.284 -51.897  13.760  1.00  0.00     0.088 C 
HETATM   16  C   UNL     1     -45.563 -52.210  12.967  1.00  0.00     0.025 C 
HETATM   17  C   UNL     1     -46.743 -52.514  13.884  1.00  0.00     0.002 C 
HETATM   18  C   UNL     1     -46.971 -51.400  14.903  1.00  0.00     0.005 C 
HETATM   19  C   UNL     1     -45.707 -51.057  15.709  1.00  0.00    -0.013 C 
HETATM   20  C   UNL     1     -45.392 -52.169  16.721  1.00  0.00     0.010 C 
HETATM   21  C   UNL     1     -44.532 -50.733  14.748  1.00  0.00     0.008 C 
HETATM   22  C   UNL     1     -43.260 -50.344  15.513  1.00  0.00     0.012 C 
ENDBRANCH   1  15
TORSDOF 3
ENDMDL
MODEL 7
REMARK VINA RESULT:      -5.8      2.848      3.926
REMARK  3 active torsions:
REMARK  status: ('A' for Active; 'I' for Inactive)
REMARK    1  A    between atoms: C_6  and  N_7 
REMARK       I    between atoms: N_7  and  C_8 
REMARK    2  A    between atoms: C_8  and  C_10 
REMARK    3  A    between atoms: C_10  and  N_11 
ROOT
HETATM    1  N   UNL     1     -39.903 -52.266  14.634  1.00  0.00    -0.355 N 
HETATM    2  C   UNL     1     -39.816 -53.618  14.374  1.00  0.00     0.236 C 
HETATM    3  O   UNL     1     -38.964 -54.115  13.639  1.00  0.00    -0.272 OA
HETATM    4  H   UNL     1     -40.689 -51.922  15.180  1.00  0.00     0.162 HD
ENDROOT
BRANCH   2   5
HETATM    5  C   UNL     1     -40.918 -54.461  15.006  1.00  0.00     0.235 C 
BRANCH   5   6
HETATM    6  N   UNL     1     -42.218 -54.151  14.415  1.00  0.00    -0.301 N 
HETATM    7  C   UNL     1     -42.300 -53.881  13.069  1.00  0.00     0.102 A 
HETATM    8  C   UNL     1     -43.469 -53.653  12.473  1.00  0.00     0.092 A 
HETATM    9  C   UNL     1     -44.710 -53.713  13.264  1.00  0.00     0.252 A 
HETATM   10  O   UNL     1     -45.785 -53.597  12.682  1.00  0.00    -0.268 OA
HETATM   11  N   UNL     1     -44.554 -53.909  14.625  1.00  0.00    -0.271 N 
HETATM   12  C   UNL     1     -45.740 -53.971  15.455  1.00  0.00     0.164 C 
HETATM   13  C   UNL     1     -43.329 -54.124  15.253  1.00  0.00     0.331 A 
HETATM   14  O   UNL     1     -43.223 -54.294  16.470  1.00  0.00    -0.246 OA
ENDBRANCH   5   6
ENDBRANCH   2   5
BRANCH   1  15
HETATM   15  C   UNL     1     -38.935 -51.317  14.100  1.00  0.00     0.088 C 
HETATM   16  C   UNL     1     -38.171 -50.647  15.254  1.00  0.00     0.025 C 
HETATM   17  C   UNL     1     -37.139 -49.644  14.749  1.00  0.00     0.002 C 
HETATM   18  C   UNL     1     -37.764 -48.612  13.813  1.00  0.00     0.005 C 
HETATM   19  C   UNL     1     -38.543 -49.250  12.650  1.00  0.00    -0.013 C 
HETATM   20  C   UNL     1     -37.579 -49.866  11.625  1.00  0.00     0.010 C 
HETATM   21  C   UNL     1     -39.597 -50.249  13.199  1.00  0.00     0.008 C 
HETATM   22  C   UNL     1     -40.426 -50.878  12.072  1.00  0.00     0.012 C 
ENDBRANCH   1  15
TORSDOF 3
ENDMDL
MODEL 8
REMARK VINA RESULT:      -5.7      2.344      7.203
REMARK  3 active torsions:
REMARK  status: ('A' for Active; 'I' for Inactive)
REMARK    1  A    between atoms: C_6  and  N_7 
REMARK       I    between atoms: N_7  and  C_8 
REMARK    2  A    between atoms: C_8  and  C_10 
REMARK    3  A    between atoms: C_10  and  N_11 
ROOT
HETATM    1  N   UNL     1     -42.366 -51.039  12.116  1.00  0.00    -0.355 N 
HETATM    2  C   UNL     1     -40.987 -50.982  12.103  1.00  0.00     0.236 C 
HETATM    3  O   UNL     1     -40.274 -51.633  12.865  1.00  0.00    -0.272 OA
HETATM    4  H   UNL     1     -42.887 -50.403  11.516  1.00  0.00     0.162 HD
ENDROOT
BRANCH   2   5
HETATM    5  C   UNL     1     -40.399 -49.977  11.120  1.00  0.00     0.235 C 
BRANCH   5   6
HETATM    6  N   UNL     1     -40.564 -48.609  11.608  1.00  0.00    -0.301 N 
HETATM    7  C   UNL     1     -39.920 -48.221  12.759  1.00  0.00     0.102 A 
HETATM    8  C   UNL     1     -39.990 -46.969  13.209  1.00  0.00     0.092 A 
HETATM    9  C   UNL     1     -40.756 -45.968  12.450  1.00  0.00     0.252 A 
HETATM   10  O   UNL     1     -40.731 -44.798  12.826  1.00  0.00    -0.268 OA
HETATM   11  N   UNL     1     -41.447 -46.438  11.347  1.00  0.00    -0.271 N 
HETATM   12  C   UNL     1     -42.222 -45.498  10.563  1.00  0.00     0.164 C 
HETATM   13  C   UNL     1     -41.392 -47.753  10.888  1.00  0.00     0.331 A 
HETATM   14  O   UNL     1     -42.021 -48.141   9.901  1.00  0.00    -0.246 OA
ENDBRANCH   5   6
ENDBRANCH   2   5
BRANCH   1  15
HETATM   15  C   UNL     1     -43.090 -51.940  13.001  1.00  0.00     0.088 C 
HETATM   16  C   UNL     1     -43.652 -53.123  12.196  1.00  0.00     0.025 C 
HETATM   17  C   UNL     1     -44.418 -54.102  13.079  1.00  0.00     0.002 C 
HETATM   18  C   UNL     1     -45.509 -53.401  13.885  1.00  0.00     0.005 C 
HETATM   19  C   UNL     1     -44.982 -52.207  14.698  1.00  0.00    -0.013 C 
HETATM   20  C   UNL     1     -44.151 -52.691  15.896  1.00  0.00     0.010 C 
HETATM   21  C   UNL     1     -44.225 -51.221  13.767  1.00  0.00     0.008 C 
HETATM   22  C   UNL     1     -43.717 -49.992  14.532  1.00  0.00     0.012 C 
ENDBRANCH   1  15
TORSDOF 3
ENDMDL
MODEL 9
REMARK VINA RESULT:      -5.6      2.275      7.401
REMARK  3 active torsions:
REMARK  status: ('A' for Active; 'I' for Inactive)
REMARK    1  A    between atoms: C_6  and  N_7 
REMARK       I    between atoms: N_7  and  C_8 
REMARK    2  A    between atoms: C_8  and  C_10 
REMARK    3  A    between atoms: C_10  and  N_11 
ROOT
HETATM    1  N   UNL     1     -42.141 -51.573  12.066  1.00  0.00    -0.355 N 
HETATM    2  C   UNL     1     -41.386 -50.437  12.275  1.00  0.00     0.236 C 
HETATM    3  O   UNL     1     -41.154 -49.972  13.390  1.00  0.00    -0.272 OA
HETATM    4  H   UNL     1     -42.362 -51.844  11.110  1.00  0.00     0.162 HD
ENDROOT
BRANCH   2   5
HETATM    5  C   UNL     1     -40.918 -49.739  11.004  1.00  0.00     0.235 C 
BRANCH   5   6
HETATM    6  N   UNL     1     -41.331 -48.336  10.995  1.00  0.00    -0.301 N 
HETATM    7  C   UNL     1     -42.612 -48.013  10.616  1.00  0.00     0.102 A 
HETATM    8  C   UNL     1     -43.053 -46.756  10.649  1.00  0.00     0.092 A 
HETATM    9  C   UNL     1     -42.160 -45.687  11.123  1.00  0.00     0.252 A 
HETATM   10  O   UNL     1     -42.611 -44.550  11.240  1.00  0.00    -0.268 OA
HETATM   11  N   UNL     1     -40.860 -46.064  11.412  1.00  0.00    -0.271 N 
HETATM   12  C   UNL     1     -39.933 -45.053  11.879  1.00  0.00     0.164 C 
HETATM   13  C   UNL     1     -40.391 -47.375  11.355  1.00  0.00     0.331 A 
HETATM   14  O   UNL     1     -39.225 -47.679  11.618  1.00  0.00    -0.246 OA
ENDBRANCH   5   6
ENDBRANCH   2   5
BRANCH   1  15
HETATM   15  C   UNL     1     -42.673 -52.357  13.172  1.00  0.00     0.088 C 
HETATM   16  C   UNL     1     -42.052 -53.763  13.162  1.00  0.00     0.025 C 
HETATM   17  C   UNL     1     -42.574 -54.626  14.306  1.00  0.00     0.002 C 
HETATM   18  C   UNL     1     -44.099 -54.685  14.319  1.00  0.00     0.005 C 
HETATM   19  C   UNL     1     -44.754 -53.293  14.321  1.00  0.00    -0.013 C 
HETATM   20  C   UNL     1     -44.585 -52.618  15.690  1.00  0.00     0.010 C 
HETATM   21  C   UNL     1     -44.217 -52.448  13.135  1.00  0.00     0.008 C 
HETATM   22  C   UNL     1     -44.876 -51.064  13.076  1.00  0.00     0.012 C 
ENDBRANCH   1  15
TORSDOF 3
ENDMDL
