MODEL 1
REMARK VINA RESULT:      -5.5      0.000      0.000
REMARK  5 active torsions:
REMARK  status: ('A' for Active; 'I' for Inactive)
REMARK    1  A    between atoms: C_2  and  C_3 
REMARK    2  A    between atoms: C_2  and  N_14 
REMARK       I    between atoms: C_3  and  N_5 
REMARK    3  A    between atoms: N_5  and  C_6 
REMARK    4  A    between atoms: C_6  and  C_7 
REMARK    5  A    between atoms: C_7  and  N_8 
ROOT
HETATM    1  C   UNL     1     -41.582 -49.340  11.414  1.00  0.00     0.242 C 
HETATM    2  O   UNL     1     -40.484 -49.583  10.910  1.00  0.00    -0.271 OA
HETATM    3  N   UNL     1     -42.363 -50.334  11.997  1.00  0.00    -0.358 N 
HETATM    4  H   UNL     1     -43.115 -50.036  12.617  1.00  0.00     0.162 HD
ENDROOT
BRANCH   1   5
HETATM    5  C   UNL     1     -42.184 -47.942  11.389  1.00  0.00     0.195 C 
HETATM    6  C   UNL     1     -42.958 -47.646  12.674  1.00  0.00     0.044 C 
BRANCH   5   7
HETATM    7  N   UNL     1     -43.021 -47.773  10.211  1.00  0.00    -0.290 N 
HETATM    8  C   UNL     1     -44.352 -47.456  10.168  1.00  0.00     0.112 A 
HETATM    9  C   UNL     1     -44.692 -47.410   8.837  1.00  0.00     0.037 A 
HETATM   10  C   UNL     1     -43.507 -47.730   8.155  1.00  0.00     0.108 A 
HETATM   11  N   UNL     1     -42.493 -47.984   8.986  1.00  0.00    -0.309 N 
ATOM     12  HN  UNL     1     -41.543 -48.270   8.750  1.00  0.00     0.186 HD
ENDBRANCH   5   7
ENDBRANCH   1   5
BRANCH   3  13
HETATM   13  C   UNL     1     -41.755 -51.635  12.222  1.00  0.00     0.152 C 
BRANCH  13  14
HETATM   14  C   UNL     1     -42.742 -52.802  12.414  1.00  0.00     0.292 C 
BRANCH  14  15
HETATM   15  N   UNL     1     -43.569 -52.631  13.630  1.00  0.00     0.094 N 
HETATM   16  C   UNL     1     -43.009 -53.299  14.830  1.00  0.00     0.298 C 
HETATM   17  C   UNL     1     -43.131 -54.829  14.795  1.00  0.00     0.198 C 
HETATM   18  O   UNL     1     -44.505 -55.217  14.694  1.00  0.00    -0.388 OA
HETATM   19  C   UNL     1     -45.108 -54.658  13.519  1.00  0.00     0.198 C 
HETATM   20  C   UNL     1     -44.951 -53.126  13.452  1.00  0.00     0.298 C 
ENDBRANCH  14  15
ENDBRANCH  13  14
ENDBRANCH   3  13
TORSDOF 5
ENDMDL
MODEL 2
REMARK VINA RESULT:      -5.3      1.713      2.523
REMARK  5 active torsions:
REMARK  status: ('A' for Active; 'I' for Inactive)
REMARK    1  A    between atoms: C_2  and  C_3 
REMARK    2  A    between atoms: C_2  and  N_14 
REMARK       I    between atoms: C_3  and  N_5 
REMARK    3  A    between atoms: N_5  and  C_6 
REMARK    4  A    between atoms: C_6  and  C_7 
REMARK    5  A    between atoms: C_7  and  N_8 
ROOT
HETATM    1  C   UNL     1     -40.685 -50.944  12.078  1.00  0.00     0.242 C 
HETATM    2  O   UNL     1     -40.103 -51.214  13.130  1.00  0.00    -0.271 OA
HETATM    3  N   UNL     1     -41.706 -51.743  11.572  1.00  0.00    -0.358 N 
HETATM    4  H   UNL     1     -42.311 -51.336  10.862  1.00  0.00     0.162 HD
ENDROOT
BRANCH   1   5
HETATM    5  C   UNL     1     -40.290 -49.742  11.230  1.00  0.00     0.195 C 
HETATM    6  C   UNL     1     -39.141 -48.963  11.872  1.00  0.00     0.044 C 
BRANCH   5   7
HETATM    7  N   UNL     1     -41.444 -48.890  10.994  1.00  0.00    -0.290 N 
HETATM    8  C   UNL     1     -42.388 -48.485  11.900  1.00  0.00     0.112 A 
HETATM    9  C   UNL     1     -43.272 -47.696  11.207  1.00  0.00     0.037 A 
HETATM   10  C   UNL     1     -42.792 -47.697   9.887  1.00  0.00     0.108 A 
HETATM   11  N   UNL     1     -41.698 -48.448   9.743  1.00  0.00    -0.309 N 
ATOM     12  HN  UNL     1     -41.177 -48.642   8.889  1.00  0.00     0.186 HD
ENDBRANCH   5   7
ENDBRANCH   1   5
BRANCH   3  13
HETATM   13  C   UNL     1     -42.249 -52.781  12.433  1.00  0.00     0.152 C 
BRANCH  13  14
HETATM   14  C   UNL     1     -43.576 -52.433  13.133  1.00  0.00     0.292 C 
BRANCH  14  15
HETATM   15  N   UNL     1     -44.705 -53.231  12.605  1.00  0.00     0.094 N 
HETATM   16  C   UNL     1     -45.992 -52.494  12.572  1.00  0.00     0.298 C 
HETATM   17  C   UNL     1     -46.613 -52.279  13.959  1.00  0.00     0.198 C 
HETATM   18  O   UNL     1     -46.859 -53.538  14.595  1.00  0.00    -0.388 OA
HETATM   19  C   UNL     1     -45.646 -54.291  14.721  1.00  0.00     0.198 C 
HETATM   20  C   UNL     1     -44.927 -54.476  13.370  1.00  0.00     0.298 C 
ENDBRANCH  14  15
ENDBRANCH  13  14
ENDBRANCH   3  13
TORSDOF 5
ENDMDL
MODEL 3
REMARK VINA RESULT:      -5.1      1.455      2.020
REMARK  5 active torsions:
REMARK  status: ('A' for Active; 'I' for Inactive)
REMARK    1  A    between atoms: C_2  and  C_3 
REMARK    2  A    between atoms: C_2  and  N_14 
REMARK       I    between atoms: C_3  and  N_5 
REMARK    3  A    between atoms: N_5  and  C_6 
REMARK    4  A    between atoms: C_6  and  C_7 
REMARK    5  A    between atoms: C_7  and  N_8 
ROOT
HETATM    1  C   UNL     1     -42.744 -48.888  12.110  1.00  0.00     0.242 C 
HETATM    2  O   UNL     1     -43.123 -48.157  13.028  1.00  0.00    -0.271 OA
HETATM    3  N   UNL     1     -42.809 -50.275  12.196  1.00  0.00    -0.358 N 
HETATM    4  H   UNL     1     -42.734 -50.802  11.328  1.00  0.00     0.162 HD
ENDROOT
BRANCH   1   5
HETATM    5  C   UNL     1     -42.132 -48.321  10.837  1.00  0.00     0.195 C 
HETATM    6  C   UNL     1     -40.891 -47.479  11.143  1.00  0.00     0.044 C 
BRANCH   5   7
HETATM    7  N   UNL     1     -43.123 -47.558  10.095  1.00  0.00    -0.290 N 
HETATM    8  C   UNL     1     -42.935 -46.399   9.391  1.00  0.00     0.112 A 
HETATM    9  C   UNL     1     -44.160 -46.064   8.868  1.00  0.00     0.037 A 
HETATM   10  C   UNL     1     -45.029 -47.069   9.324  1.00  0.00     0.108 A 
HETATM   11  N   UNL     1     -44.411 -47.964  10.098  1.00  0.00    -0.309 N 
ATOM     12  HN  UNL     1     -44.818 -48.766  10.579  1.00  0.00     0.186 HD
ENDBRANCH   5   7
ENDBRANCH   1   5
BRANCH   3  13
HETATM   13  C   UNL     1     -43.559 -50.856  13.297  1.00  0.00     0.152 C 
BRANCH  13  14
HETATM   14  C   UNL     1     -42.854 -52.002  14.047  1.00  0.00     0.292 C 
BRANCH  14  15
HETATM   15  N   UNL     1     -42.814 -53.244  13.243  1.00  0.00     0.094 N 
HETATM   16  C   UNL     1     -44.143 -53.674  12.743  1.00  0.00     0.298 C 
HETATM   17  C   UNL     1     -45.055 -54.247  13.836  1.00  0.00     0.198 C 
HETATM   18  O   UNL     1     -44.443 -55.386  14.450  1.00  0.00    -0.388 OA
HETATM   19  C   UNL     1     -43.172 -55.039  15.015  1.00  0.00     0.198 C 
HETATM   20  C   UNL     1     -42.231 -54.383  13.986  1.00  0.00     0.298 C 
ENDBRANCH  14  15
ENDBRANCH  13  14
ENDBRANCH   3  13
TORSDOF 5
ENDMDL
MODEL 4
REMARK VINA RESULT:      -4.9      2.046      2.574
REMARK  5 active torsions:
REMARK  status: ('A' for Active; 'I' for Inactive)
REMARK    1  A    between atoms: C_2  and  C_3 
REMARK    2  A    between atoms: C_2  and  N_14 
REMARK       I    between atoms: C_3  and  N_5 
REMARK    3  A    between atoms: N_5  and  C_6 
REMARK    4  A    between atoms: C_6  and  C_7 
REMARK    5  A    between atoms: C_7  and  N_8 
ROOT
HETATM    1  C   UNL     1     -41.054 -48.642  11.382  1.00  0.00     0.242 C 
HETATM    2  O   UNL     1     -39.866 -48.486  11.671  1.00  0.00    -0.271 OA
HETATM    3  N   UNL     1     -41.642 -49.902  11.330  1.00  0.00    -0.358 N 
HETATM    4  H   UNL     1     -42.659 -49.945  11.349  1.00  0.00     0.162 HD
ENDROOT
BRANCH   1   5
HETATM    5  C   UNL     1     -41.949 -47.467  11.014  1.00  0.00     0.195 C 
HETATM    6  C   UNL     1     -42.664 -47.708   9.683  1.00  0.00     0.044 C 
BRANCH   5   7
HETATM    7  N   UNL     1     -41.179 -46.234  10.989  1.00  0.00    -0.290 N 
HETATM    8  C   UNL     1     -41.373 -45.108  11.744  1.00  0.00     0.112 A 
HETATM    9  C   UNL     1     -40.398 -44.218  11.365  1.00  0.00     0.037 A 
HETATM   10  C   UNL     1     -39.675 -44.887  10.364  1.00  0.00     0.108 A 
HETATM   11  N   UNL     1     -40.164 -46.102  10.107  1.00  0.00    -0.309 N 
ATOM     12  HN  UNL     1     -39.847 -46.774   9.409  1.00  0.00     0.186 HD
ENDBRANCH   5   7
ENDBRANCH   1   5
BRANCH   3  13
HETATM   13  C   UNL     1     -40.891 -51.028  11.859  1.00  0.00     0.152 C 
BRANCH  13  14
HETATM   14  C   UNL     1     -41.711 -52.306  12.122  1.00  0.00     0.292 C 
BRANCH  14  15
HETATM   15  N   UNL     1     -42.633 -52.144  13.267  1.00  0.00     0.094 N 
HETATM   16  C   UNL     1     -42.237 -52.923  14.466  1.00  0.00     0.298 C 
HETATM   17  C   UNL     1     -42.464 -54.434  14.320  1.00  0.00     0.198 C 
HETATM   18  O   UNL     1     -43.847 -54.709  14.072  1.00  0.00    -0.388 OA
HETATM   19  C   UNL     1     -44.295 -54.036  12.887  1.00  0.00     0.198 C 
HETATM   20  C   UNL     1     -44.024 -52.520  12.935  1.00  0.00     0.298 C 
ENDBRANCH  14  15
ENDBRANCH  13  14
ENDBRANCH   3  13
TORSDOF 5
ENDMDL
MODEL 5
REMARK VINA RESULT:      -4.9      2.424      7.286
REMARK  5 active torsions:
REMARK  status: ('A' for Active; 'I' for Inactive)
REMARK    1  A    between atoms: C_2  and  C_3 
REMARK    2  A    between atoms: C_2  and  N_14 
REMARK       I    between atoms: C_3  and  N_5 
REMARK    3  A    between atoms: N_5  and  C_6 
REMARK    4  A    between atoms: C_6  and  C_7 
REMARK    5  A    between atoms: C_7  and  N_8 
ROOT
HETATM    1  C   UNL     1     -42.976 -51.406  12.724  1.00  0.00     0.242 C 
HETATM    2  O   UNL     1     -43.746 -50.977  13.586  1.00  0.00    -0.271 OA
HETATM    3  N   UNL     1     -42.196 -50.558  11.943  1.00  0.00    -0.358 N 
HETATM    4  H   UNL     1     -41.406 -50.971  11.450  1.00  0.00     0.162 HD
ENDROOT
BRANCH   1   5
HETATM    5  C   UNL     1     -42.864 -52.893  12.419  1.00  0.00     0.195 C 
HETATM    6  C   UNL     1     -44.196 -53.610  12.647  1.00  0.00     0.044 C 
BRANCH   5   7
HETATM    7  N   UNL     1     -41.797 -53.491  13.205  1.00  0.00    -0.290 N 
HETATM    8  C   UNL     1     -41.666 -53.504  14.568  1.00  0.00     0.112 A 
HETATM    9  C   UNL     1     -40.502 -54.184  14.835  1.00  0.00     0.037 A 
HETATM   10  C   UNL     1     -39.992 -54.527  13.572  1.00  0.00     0.108 A 
HETATM   11  N   UNL     1     -40.758 -54.080  12.575  1.00  0.00    -0.309 N 
ATOM     12  HN  UNL     1     -40.596 -54.164  11.571  1.00  0.00     0.186 HD
ENDBRANCH   5   7
ENDBRANCH   1   5
BRANCH   3  13
HETATM   13  C   UNL     1     -42.119 -49.158  12.325  1.00  0.00     0.152 C 
BRANCH  13  14
HETATM   14  C   UNL     1     -42.986 -48.196  11.490  1.00  0.00     0.292 C 
BRANCH  14  15
HETATM   15  N   UNL     1     -42.282 -47.732  10.275  1.00  0.00     0.094 N 
HETATM   16  C   UNL     1     -41.600 -46.425  10.443  1.00  0.00     0.298 C 
HETATM   17  C   UNL     1     -42.565 -45.233  10.506  1.00  0.00     0.198 C 
HETATM   18  O   UNL     1     -43.342 -45.156   9.306  1.00  0.00    -0.388 OA
HETATM   19  C   UNL     1     -44.083 -46.367   9.101  1.00  0.00     0.198 C 
HETATM   20  C   UNL     1     -43.180 -47.616   9.106  1.00  0.00     0.298 C 
ENDBRANCH  14  15
ENDBRANCH  13  14
ENDBRANCH   3  13
TORSDOF 5
ENDMDL
MODEL 6
REMARK VINA RESULT:      -4.9      2.298      7.266
REMARK  5 active torsions:
REMARK  status: ('A' for Active; 'I' for Inactive)
REMARK    1  A    between atoms: C_2  and  C_3 
REMARK    2  A    between atoms: C_2  and  N_14 
REMARK       I    between atoms: C_3  and  N_5 
REMARK    3  A    between atoms: N_5  and  C_6 
REMARK    4  A    between atoms: C_6  and  C_7 
REMARK    5  A    between atoms: C_7  and  N_8 
ROOT
HETATM    1  C   UNL     1     -44.317 -50.696  13.606  1.00  0.00     0.242 C 
HETATM    2  O   UNL     1     -43.936 -50.373  14.733  1.00  0.00    -0.271 OA
HETATM    3  N   UNL     1     -43.816 -50.092  12.456  1.00  0.00    -0.358 N 
HETATM    4  H   UNL     1     -43.967 -50.573  11.572  1.00  0.00     0.162 HD
ENDROOT
BRANCH   1   5
HETATM    5  C   UNL     1     -45.401 -51.744  13.397  1.00  0.00     0.195 C 
HETATM    6  C   UNL     1     -46.663 -51.405  14.192  1.00  0.00     0.044 C 
BRANCH   5   7
HETATM    7  N   UNL     1     -44.897 -53.066  13.736  1.00  0.00    -0.290 N 
HETATM    8  C   UNL     1     -45.607 -54.232  13.841  1.00  0.00     0.112 A 
HETATM    9  C   UNL     1     -44.699 -55.205  14.181  1.00  0.00     0.037 A 
HETATM   10  C   UNL     1     -43.471 -54.529  14.276  1.00  0.00     0.108 A 
HETATM   11  N   UNL     1     -43.590 -53.221  14.038  1.00  0.00    -0.309 N 
ATOM     12  HN  UNL     1     -42.864 -52.506  14.076  1.00  0.00     0.186 HD
ENDBRANCH   5   7
ENDBRANCH   1   5
BRANCH   3  13
HETATM   13  C   UNL     1     -42.650 -49.235  12.589  1.00  0.00     0.152 C 
BRANCH  13  14
HETATM   14  C   UNL     1     -42.824 -47.796  12.065  1.00  0.00     0.292 C 
BRANCH  14  15
HETATM   15  N   UNL     1     -42.050 -47.564  10.825  1.00  0.00     0.094 N 
HETATM   16  C   UNL     1     -41.396 -46.233  10.772  1.00  0.00     0.298 C 
HETATM   17  C   UNL     1     -42.376 -45.075  10.542  1.00  0.00     0.198 C 
HETATM   18  O   UNL     1     -43.078 -45.253   9.307  1.00  0.00    -0.388 OA
HETATM   19  C   UNL     1     -43.791 -46.497   9.302  1.00  0.00     0.198 C 
HETATM   20  C   UNL     1     -42.876 -47.699   9.606  1.00  0.00     0.298 C 
ENDBRANCH  14  15
ENDBRANCH  13  14
ENDBRANCH   3  13
TORSDOF 5
ENDMDL
MODEL 7
REMARK VINA RESULT:      -4.9      2.862      4.469
REMARK  5 active torsions:
REMARK  status: ('A' for Active; 'I' for Inactive)
REMARK    1  A    between atoms: C_2  and  C_3 
REMARK    2  A    between atoms: C_2  and  N_14 
REMARK       I    between atoms: C_3  and  N_5 
REMARK    3  A    between atoms: N_5  and  C_6 
REMARK    4  A    between atoms: C_6  and  C_7 
REMARK    5  A    between atoms: C_7  and  N_8 
ROOT
HETATM    1  C   UNL     1     -41.682 -51.605  12.180  1.00  0.00     0.242 C 
HETATM    2  O   UNL     1     -41.048 -52.530  11.669  1.00  0.00    -0.271 OA
HETATM    3  N   UNL     1     -43.031 -51.722  12.499  1.00  0.00    -0.358 N 
HETATM    4  H   UNL     1     -43.420 -51.038  13.146  1.00  0.00     0.162 HD
ENDROOT
BRANCH   1   5
HETATM    5  C   UNL     1     -41.042 -50.250  12.452  1.00  0.00     0.195 C 
HETATM    6  C   UNL     1     -41.572 -49.182  11.494  1.00  0.00     0.044 C 
BRANCH   5   7
HETATM    7  N   UNL     1     -39.593 -50.354  12.386  1.00  0.00    -0.290 N 
HETATM    8  C   UNL     1     -38.748 -49.736  11.502  1.00  0.00     0.112 A 
HETATM    9  C   UNL     1     -37.479 -50.142  11.838  1.00  0.00     0.037 A 
HETATM   10  C   UNL     1     -37.659 -51.015  12.923  1.00  0.00     0.108 A 
HETATM   11  N   UNL     1     -38.946 -51.174  13.241  1.00  0.00    -0.309 N 
ATOM     12  HN  UNL     1     -39.346 -51.775  13.962  1.00  0.00     0.186 HD
ENDBRANCH   5   7
ENDBRANCH   1   5
BRANCH   3  13
HETATM   13  C   UNL     1     -43.633 -53.044  12.443  1.00  0.00     0.152 C 
BRANCH  13  14
HETATM   14  C   UNL     1     -44.252 -53.545  13.762  1.00  0.00     0.292 C 
BRANCH  14  15
HETATM   15  N   UNL     1     -45.716 -53.734  13.648  1.00  0.00     0.094 N 
HETATM   16  C   UNL     1     -46.435 -52.531  13.161  1.00  0.00     0.298 C 
HETATM   17  C   UNL     1     -46.522 -51.405  14.200  1.00  0.00     0.198 C 
HETATM   18  O   UNL     1     -47.202 -51.861  15.374  1.00  0.00    -0.388 OA
HETATM   19  C   UNL     1     -46.531 -52.992  15.944  1.00  0.00     0.198 C 
HETATM   20  C   UNL     1     -46.339 -54.134  14.927  1.00  0.00     0.298 C 
ENDBRANCH  14  15
ENDBRANCH  13  14
ENDBRANCH   3  13
TORSDOF 5
ENDMDL
MODEL 8
REMARK VINA RESULT:      -4.8      2.236      6.818
REMARK  5 active torsions:
REMARK  status: ('A' for Active; 'I' for Inactive)
REMARK    1  A    between atoms: C_2  and  C_3 
REMARK    2  A    between atoms: C_2  and  N_14 
REMARK       I    between atoms: C_3  and  N_5 
REMARK    3  A    between atoms: N_5  and  C_6 
REMARK    4  A    between atoms: C_6  and  C_7 
REMARK    5  A    between atoms: C_7  and  N_8 
ROOT
HETATM    1  C   UNL     1     -42.485 -51.064  13.339  1.00  0.00     0.242 C 
HETATM    2  O   UNL     1     -41.844 -50.571  14.269  1.00  0.00    -0.271 OA
HETATM    3  N   UNL     1     -42.460 -50.524  12.057  1.00  0.00    -0.358 N 
HETATM    4  H   UNL     1     -42.786 -51.114  11.294  1.00  0.00     0.162 HD
ENDROOT
BRANCH   1   5
HETATM    5  C   UNL     1     -43.390 -52.272  13.542  1.00  0.00     0.195 C 
HETATM    6  C   UNL     1     -43.606 -53.031  12.231  1.00  0.00     0.044 C 
BRANCH   5   7
HETATM    7  N   UNL     1     -44.653 -51.863  14.135  1.00  0.00    -0.290 N 
HETATM    8  C   UNL     1     -45.890 -51.852  13.549  1.00  0.00     0.112 A 
HETATM    9  C   UNL     1     -46.763 -51.389  14.503  1.00  0.00     0.037 A 
HETATM   10  C   UNL     1     -45.960 -51.129  15.625  1.00  0.00     0.108 A 
HETATM   11  N   UNL     1     -44.669 -51.385  15.398  1.00  0.00    -0.309 N 
ATOM     12  HN  UNL     1     -43.881 -51.250  16.031  1.00  0.00     0.186 HD
ENDBRANCH   5   7
ENDBRANCH   1   5
BRANCH   3  13
HETATM   13  C   UNL     1     -41.469 -49.501  11.767  1.00  0.00     0.152 C 
BRANCH  13  14
HETATM   14  C   UNL     1     -41.864 -48.488  10.676  1.00  0.00     0.292 C 
BRANCH  14  15
HETATM   15  N   UNL     1     -43.052 -47.695  11.062  1.00  0.00     0.094 N 
HETATM   16  C   UNL     1     -43.990 -47.441   9.941  1.00  0.00     0.298 C 
HETATM   17  C   UNL     1     -43.468 -46.418   8.923  1.00  0.00     0.198 C 
HETATM   18  O   UNL     1     -43.219 -45.161   9.562  1.00  0.00    -0.388 OA
HETATM   19  C   UNL     1     -42.269 -45.311  10.626  1.00  0.00     0.198 C 
HETATM   20  C   UNL     1     -42.696 -46.384  11.646  1.00  0.00     0.298 C 
ENDBRANCH  14  15
ENDBRANCH  13  14
ENDBRANCH   3  13
TORSDOF 5
ENDMDL
MODEL 9
REMARK VINA RESULT:      -4.7      2.633      3.280
REMARK  5 active torsions:
REMARK  status: ('A' for Active; 'I' for Inactive)
REMARK    1  A    between atoms: C_2  and  C_3 
REMARK    2  A    between atoms: C_2  and  N_14 
REMARK       I    between atoms: C_3  and  N_5 
REMARK    3  A    between atoms: N_5  and  C_6 
REMARK    4  A    between atoms: C_6  and  C_7 
REMARK    5  A    between atoms: C_7  and  N_8 
ROOT
HETATM    1  C   UNL     1     -40.462 -50.105  11.730  1.00  0.00     0.242 C 
HETATM    2  O   UNL     1     -41.617 -49.675  11.689  1.00  0.00    -0.271 OA
HETATM    3  N   UNL     1     -40.181 -51.450  11.951  1.00  0.00    -0.358 N 
HETATM    4  H   UNL     1     -39.247 -51.778  11.713  1.00  0.00     0.162 HD
ENDROOT
BRANCH   1   5
HETATM    5  C   UNL     1     -39.259 -49.181  11.591  1.00  0.00     0.195 C 
HETATM    6  C   UNL     1     -38.179 -49.517  12.621  1.00  0.00     0.044 C 
BRANCH   5   7
HETATM    7  N   UNL     1     -39.676 -47.791  11.691  1.00  0.00    -0.290 N 
HETATM    8  C   UNL     1     -39.589 -46.966  12.780  1.00  0.00     0.112 A 
HETATM    9  C   UNL     1     -40.106 -45.756  12.387  1.00  0.00     0.037 A 
HETATM   10  C   UNL     1     -40.496 -45.951  11.052  1.00  0.00     0.108 A 
HETATM   11  N   UNL     1     -40.267 -47.197  10.632  1.00  0.00    -0.309 N 
ATOM     12  HN  UNL     1     -40.487 -47.605   9.723  1.00  0.00     0.186 HD
ENDBRANCH   5   7
ENDBRANCH   1   5
BRANCH   3  13
HETATM   13  C   UNL     1     -41.284 -52.395  11.892  1.00  0.00     0.152 C 
BRANCH  13  14
HETATM   14  C   UNL     1     -41.719 -52.988  13.246  1.00  0.00     0.292 C 
BRANCH  14  15
HETATM   15  N   UNL     1     -42.840 -53.942  13.095  1.00  0.00     0.094 N 
HETATM   16  C   UNL     1     -44.040 -53.355  12.449  1.00  0.00     0.298 C 
HETATM   17  C   UNL     1     -44.809 -52.381  13.352  1.00  0.00     0.198 C 
HETATM   18  O   UNL     1     -45.249 -53.045  14.542  1.00  0.00    -0.388 OA
HETATM   19  C   UNL     1     -44.135 -53.592  15.261  1.00  0.00     0.198 C 
HETATM   20  C   UNL     1     -43.272 -54.521  14.386  1.00  0.00     0.298 C 
ENDBRANCH  14  15
ENDBRANCH  13  14
ENDBRANCH   3  13
TORSDOF 5
ENDMDL
