MODEL 1
REMARK VINA RESULT:      -6.9      0.000      0.000
REMARK  5 active torsions:
REMARK  status: ('A' for Active; 'I' for Inactive)
REMARK    1  A    between atoms: N_2  and  C_4 
REMARK    2  A    between atoms: C_7  and  N_8 
REMARK       I    between atoms: N_8  and  C_9 
REMARK       I    between atoms: C_9  and  N_11 
REMARK    3  A    between atoms: N_11  and  C_12 
REMARK    4  A    between atoms: C_12  and  C_13 
REMARK    5  A    between atoms: C_13  and  N_14 
ROOT
HETATM    1  N   UNL     1     -40.992 -51.061  11.299  1.00  0.00    -0.308 N 
HETATM    2  C   UNL     1     -41.777 -51.700  12.237  1.00  0.00     0.320 C 
HETATM    3  O   UNL     1     -42.437 -51.153  13.112  1.00  0.00    -0.247 OA
HETATM    4  N   UNL     1     -41.778 -53.069  12.096  1.00  0.00    -0.341 N 
HETATM    5  H   UNL     1     -40.855 -51.543  10.425  1.00  0.00     0.170 HD
HETATM    6  H   UNL     1     -40.965 -53.483  11.661  1.00  0.00     0.164 HD
ENDROOT
BRANCH   1   7
HETATM    7  C   UNL     1     -40.648 -49.687  11.355  1.00  0.00     0.051 A 
HETATM    8  C   UNL     1     -39.647 -49.197  12.178  1.00  0.00     0.035 A 
HETATM    9  C   UNL     1     -39.348 -47.832  12.192  1.00  0.00     0.050 A 
HETATM   10  C   UNL     1     -40.029 -46.941  11.367  1.00  0.00     0.102 A 
HETATM   11  N   UNL     1     -41.005 -47.413  10.549  1.00  0.00    -0.350 N 
HETATM   12  C   UNL     1     -41.286 -48.748  10.553  1.00  0.00     0.119 A 
ATOM     13  HN  UNL     1     -41.522 -46.778   9.941  1.00  0.00     0.166 HD
BRANCH  10  14
HETATM   14  N   UNL     1     -39.739 -45.579  11.380  1.00  0.00    -0.376 N 
HETATM   15  C   UNL     1     -40.118 -44.854  12.585  1.00  0.00     0.150 C 
HETATM   16  C   UNL     1     -39.740 -44.846  10.120  1.00  0.00     0.150 C 
ENDBRANCH  10  14
ENDBRANCH   1   7
BRANCH   4  17
HETATM   17  C   UNL     1     -42.485 -53.877  13.092  1.00  0.00     0.144 C 
BRANCH  17  18
HETATM   18  C   UNL     1     -43.974 -54.038  12.754  1.00  0.00     0.145 C 
BRANCH  18  19
HETATM   19  N   UNL     1     -44.912 -53.297  13.604  1.00  0.00    -0.351 N 
HETATM   20  C   UNL     1     -44.911 -53.577  15.041  1.00  0.00     0.126 C 
HETATM   21  C   UNL     1     -44.697 -52.331  15.893  1.00  0.00     0.020 C 
HETATM   22  C   UNL     1     -45.974 -51.542  16.179  1.00  0.00     0.002 C 
HETATM   23  C   UNL     1     -46.997 -51.497  15.048  1.00  0.00     0.009 C 
HETATM   24  C   UNL     1     -46.382 -51.306  13.677  1.00  0.00     0.103 C 
HETATM   25  C   UNL     1     -45.911 -52.570  12.978  1.00  0.00     0.219 C 
HETATM   26  O   UNL     1     -46.284 -52.824  11.832  1.00  0.00    -0.273 OA
ENDBRANCH  18  19
ENDBRANCH  17  18
ENDBRANCH   4  17
TORSDOF 5
ENDMDL
MODEL 2
REMARK VINA RESULT:      -6.7      2.353      3.014
REMARK  5 active torsions:
REMARK  status: ('A' for Active; 'I' for Inactive)
REMARK    1  A    between atoms: N_2  and  C_4 
REMARK    2  A    between atoms: C_7  and  N_8 
REMARK       I    between atoms: N_8  and  C_9 
REMARK       I    between atoms: C_9  and  N_11 
REMARK    3  A    between atoms: N_11  and  C_12 
REMARK    4  A    between atoms: C_12  and  C_13 
REMARK    5  A    between atoms: C_13  and  N_14 
ROOT
HETATM    1  N   UNL     1     -41.352 -50.036  13.276  1.00  0.00    -0.308 N 
HETATM    2  C   UNL     1     -41.501 -51.401  13.414  1.00  0.00     0.320 C 
HETATM    3  O   UNL     1     -41.889 -52.173  12.545  1.00  0.00    -0.247 OA
HETATM    4  N   UNL     1     -41.145 -51.858  14.664  1.00  0.00    -0.341 N 
HETATM    5  H   UNL     1     -40.665 -49.598  13.868  1.00  0.00     0.170 HD
HETATM    6  H   UNL     1     -41.218 -51.199  15.426  1.00  0.00     0.164 HD
ENDROOT
BRANCH   1   7
HETATM    7  C   UNL     1     -41.848 -49.292  12.176  1.00  0.00     0.051 A 
HETATM    8  C   UNL     1     -43.055 -48.614  12.212  1.00  0.00     0.035 A 
HETATM    9  C   UNL     1     -43.494 -47.892  11.099  1.00  0.00     0.050 A 
HETATM   10  C   UNL     1     -42.723 -47.819   9.942  1.00  0.00     0.102 A 
HETATM   11  N   UNL     1     -41.533 -48.473   9.900  1.00  0.00    -0.350 N 
HETATM   12  C   UNL     1     -41.123 -49.175  10.996  1.00  0.00     0.119 A 
ATOM     13  HN  UNL     1     -40.954 -48.439   9.061  1.00  0.00     0.166 HD
BRANCH  10  14
HETATM   14  N   UNL     1     -43.158 -47.107   8.828  1.00  0.00    -0.376 N 
HETATM   15  C   UNL     1     -43.878 -45.869   9.098  1.00  0.00     0.150 C 
HETATM   16  C   UNL     1     -43.501 -47.838   7.614  1.00  0.00     0.150 C 
ENDBRANCH  10  14
ENDBRANCH   1   7
BRANCH   4  17
HETATM   17  C   UNL     1     -41.356 -53.272  14.980  1.00  0.00     0.144 C 
BRANCH  17  18
HETATM   18  C   UNL     1     -42.553 -53.482  15.919  1.00  0.00     0.145 C 
BRANCH  18  19
HETATM   19  N   UNL     1     -43.875 -53.190  15.354  1.00  0.00    -0.351 N 
HETATM   20  C   UNL     1     -44.572 -51.987  15.814  1.00  0.00     0.126 C 
HETATM   21  C   UNL     1     -44.973 -51.057  14.675  1.00  0.00     0.020 C 
HETATM   22  C   UNL     1     -46.303 -51.416  14.014  1.00  0.00     0.002 C 
HETATM   23  C   UNL     1     -46.605 -52.907  13.892  1.00  0.00     0.009 C 
HETATM   24  C   UNL     1     -45.406 -53.740  13.488  1.00  0.00     0.103 C 
HETATM   25  C   UNL     1     -44.496 -54.186  14.620  1.00  0.00     0.219 C 
HETATM   26  O   UNL     1     -44.200 -55.374  14.750  1.00  0.00    -0.273 OA
ENDBRANCH  18  19
ENDBRANCH  17  18
ENDBRANCH   4  17
TORSDOF 5
ENDMDL
MODEL 3
REMARK VINA RESULT:      -6.5      1.876      2.236
REMARK  5 active torsions:
REMARK  status: ('A' for Active; 'I' for Inactive)
REMARK    1  A    between atoms: N_2  and  C_4 
REMARK    2  A    between atoms: C_7  and  N_8 
REMARK       I    between atoms: N_8  and  C_9 
REMARK       I    between atoms: C_9  and  N_11 
REMARK    3  A    between atoms: N_11  and  C_12 
REMARK    4  A    between atoms: C_12  and  C_13 
REMARK    5  A    between atoms: C_13  and  N_14 
ROOT
HETATM    1  N   UNL     1     -42.178 -49.072  11.068  1.00  0.00    -0.308 N 
HETATM    2  C   UNL     1     -41.900 -49.884  12.149  1.00  0.00     0.320 C 
HETATM    3  O   UNL     1     -41.675 -49.505  13.292  1.00  0.00    -0.247 OA
HETATM    4  N   UNL     1     -41.914 -51.224  11.833  1.00  0.00    -0.341 N 
HETATM    5  H   UNL     1     -42.735 -49.478  10.334  1.00  0.00     0.170 HD
HETATM    6  H   UNL     1     -41.711 -51.467  10.874  1.00  0.00     0.164 HD
ENDROOT
BRANCH   1   7
HETATM    7  C   UNL     1     -42.015 -47.663  11.071  1.00  0.00     0.051 A 
HETATM    8  C   UNL     1     -40.791 -47.050  10.864  1.00  0.00     0.035 A 
HETATM    9  C   UNL     1     -40.688 -45.656  10.874  1.00  0.00     0.050 A 
HETATM   10  C   UNL     1     -41.810 -44.856  11.070  1.00  0.00     0.102 A 
HETATM   11  N   UNL     1     -43.017 -45.448  11.265  1.00  0.00    -0.350 N 
HETATM   12  C   UNL     1     -43.096 -46.810  11.255  1.00  0.00     0.119 A 
ATOM     13  HN  UNL     1     -43.852 -44.882  11.416  1.00  0.00     0.166 HD
BRANCH  10  14
HETATM   14  N   UNL     1     -41.712 -43.467  11.088  1.00  0.00    -0.376 N 
HETATM   15  C   UNL     1     -40.503 -42.916  11.684  1.00  0.00     0.150 C 
HETATM   16  C   UNL     1     -42.933 -42.676  11.179  1.00  0.00     0.150 C 
ENDBRANCH  10  14
ENDBRANCH   1   7
BRANCH   4  17
HETATM   17  C   UNL     1     -41.530 -52.191  12.863  1.00  0.00     0.144 C 
BRANCH  17  18
HETATM   18  C   UNL     1     -42.567 -53.311  13.020  1.00  0.00     0.145 C 
BRANCH  18  19
HETATM   19  N   UNL     1     -43.827 -52.937  13.671  1.00  0.00    -0.351 N 
HETATM   20  C   UNL     1     -43.760 -52.219  14.945  1.00  0.00     0.126 C 
HETATM   21  C   UNL     1     -44.523 -50.899  14.929  1.00  0.00     0.020 C 
HETATM   22  C   UNL     1     -46.014 -51.036  15.235  1.00  0.00     0.002 C 
HETATM   23  C   UNL     1     -46.693 -52.289  14.691  1.00  0.00     0.009 C 
HETATM   24  C   UNL     1     -46.258 -52.659  13.288  1.00  0.00     0.103 C 
HETATM   25  C   UNL     1     -44.996 -53.498  13.184  1.00  0.00     0.219 C 
HETATM   26  O   UNL     1     -44.996 -54.547  12.538  1.00  0.00    -0.273 OA
ENDBRANCH  18  19
ENDBRANCH  17  18
ENDBRANCH   4  17
TORSDOF 5
ENDMDL
MODEL 4
REMARK VINA RESULT:      -6.0      1.559      2.133
REMARK  5 active torsions:
REMARK  status: ('A' for Active; 'I' for Inactive)
REMARK    1  A    between atoms: N_2  and  C_4 
REMARK    2  A    between atoms: C_7  and  N_8 
REMARK       I    between atoms: N_8  and  C_9 
REMARK       I    between atoms: C_9  and  N_11 
REMARK    3  A    between atoms: N_11  and  C_12 
REMARK    4  A    between atoms: C_12  and  C_13 
REMARK    5  A    between atoms: C_13  and  N_14 
ROOT
HETATM    1  N   UNL     1     -41.803 -49.660  11.202  1.00  0.00    -0.308 N 
HETATM    2  C   UNL     1     -41.996 -50.537  12.250  1.00  0.00     0.320 C 
HETATM    3  O   UNL     1     -42.005 -50.243  13.440  1.00  0.00    -0.247 OA
HETATM    4  N   UNL     1     -42.205 -51.834  11.836  1.00  0.00    -0.341 N 
HETATM    5  H   UNL     1     -42.219 -49.917  10.321  1.00  0.00     0.170 HD
HETATM    6  H   UNL     1     -41.812 -52.095  10.943  1.00  0.00     0.164 HD
ENDROOT
BRANCH   1   7
HETATM    7  C   UNL     1     -41.356 -48.324  11.358  1.00  0.00     0.051 A 
HETATM    8  C   UNL     1     -42.206 -47.234  11.267  1.00  0.00     0.035 A 
HETATM    9  C   UNL     1     -41.712 -45.937  11.432  1.00  0.00     0.050 A 
HETATM   10  C   UNL     1     -40.367 -45.713  11.712  1.00  0.00     0.102 A 
HETATM   11  N   UNL     1     -39.528 -46.776  11.812  1.00  0.00    -0.350 N 
HETATM   12  C   UNL     1     -40.028 -48.034  11.644  1.00  0.00     0.119 A 
ATOM     13  HN  UNL     1     -38.537 -46.636  12.010  1.00  0.00     0.166 HD
BRANCH  10  14
HETATM   14  N   UNL     1     -39.868 -44.423  11.871  1.00  0.00    -0.376 N 
HETATM   15  C   UNL     1     -39.289 -44.114  13.172  1.00  0.00     0.150 C 
HETATM   16  C   UNL     1     -40.488 -43.331  11.130  1.00  0.00     0.150 C 
ENDBRANCH  10  14
ENDBRANCH   1   7
BRANCH   4  17
HETATM   17  C   UNL     1     -42.316 -52.884  12.850  1.00  0.00     0.144 C 
BRANCH  17  18
HETATM   18  C   UNL     1     -43.709 -53.531  12.863  1.00  0.00     0.145 C 
BRANCH  18  19
HETATM   19  N   UNL     1     -44.599 -53.123  13.955  1.00  0.00    -0.351 N 
HETATM   20  C   UNL     1     -44.981 -51.713  14.044  1.00  0.00     0.126 C 
HETATM   21  C   UNL     1     -46.491 -51.501  14.058  1.00  0.00     0.020 C 
HETATM   22  C   UNL     1     -47.127 -51.626  15.442  1.00  0.00     0.002 C 
HETATM   23  C   UNL     1     -46.520 -52.682  16.361  1.00  0.00     0.009 C 
HETATM   24  C   UNL     1     -46.179 -53.980  15.657  1.00  0.00     0.103 C 
HETATM   25  C   UNL     1     -44.822 -54.030  14.977  1.00  0.00     0.219 C 
HETATM   26  O   UNL     1     -44.039 -54.951  15.215  1.00  0.00    -0.273 OA
ENDBRANCH  18  19
ENDBRANCH  17  18
ENDBRANCH   4  17
TORSDOF 5
ENDMDL
MODEL 5
REMARK VINA RESULT:      -5.9      3.113      4.547
REMARK  5 active torsions:
REMARK  status: ('A' for Active; 'I' for Inactive)
REMARK    1  A    between atoms: N_2  and  C_4 
REMARK    2  A    between atoms: C_7  and  N_8 
REMARK       I    between atoms: N_8  and  C_9 
REMARK       I    between atoms: C_9  and  N_11 
REMARK    3  A    between atoms: N_11  and  C_12 
REMARK    4  A    between atoms: C_12  and  C_13 
REMARK    5  A    between atoms: C_13  and  N_14 
ROOT
HETATM    1  N   UNL     1     -40.289 -48.542  13.254  1.00  0.00    -0.308 N 
HETATM    2  C   UNL     1     -39.552 -49.708  13.298  1.00  0.00     0.320 C 
HETATM    3  O   UNL     1     -39.409 -50.502  12.375  1.00  0.00    -0.247 OA
HETATM    4  N   UNL     1     -38.943 -49.915  14.515  1.00  0.00    -0.341 N 
HETATM    5  H   UNL     1     -40.001 -47.806  13.878  1.00  0.00     0.170 HD
HETATM    6  H   UNL     1     -39.379 -49.489  15.321  1.00  0.00     0.164 HD
ENDROOT
BRANCH   1   7
HETATM    7  C   UNL     1     -41.181 -48.206  12.204  1.00  0.00     0.051 A 
HETATM    8  C   UNL     1     -42.544 -48.439  12.276  1.00  0.00     0.035 A 
HETATM    9  C   UNL     1     -43.378 -48.085  11.212  1.00  0.00     0.050 A 
HETATM   10  C   UNL     1     -42.865 -47.473  10.072  1.00  0.00     0.102 A 
HETATM   11  N   UNL     1     -41.531 -47.231   9.997  1.00  0.00    -0.350 N 
HETATM   12  C   UNL     1     -40.732 -47.587  11.044  1.00  0.00     0.119 A 
ATOM     13  HN  UNL     1     -41.131 -46.789   9.168  1.00  0.00     0.166 HD
BRANCH  10  14
HETATM   14  N   UNL     1     -43.691 -47.123   9.006  1.00  0.00    -0.376 N 
HETATM   15  C   UNL     1     -43.493 -47.867   7.770  1.00  0.00     0.150 C 
HETATM   16  C   UNL     1     -44.160 -45.747   8.901  1.00  0.00     0.150 C 
ENDBRANCH  10  14
ENDBRANCH   1   7
BRANCH   4  17
HETATM   17  C   UNL     1     -38.218 -51.168  14.733  1.00  0.00     0.144 C 
BRANCH  17  18
HETATM   18  C   UNL     1     -39.035 -52.173  15.556  1.00  0.00     0.145 C 
BRANCH  18  19
HETATM   19  N   UNL     1     -40.223 -52.730  14.900  1.00  0.00    -0.351 N 
HETATM   20  C   UNL     1     -41.539 -52.319  15.392  1.00  0.00     0.126 C 
HETATM   21  C   UNL     1     -42.429 -51.732  14.303  1.00  0.00     0.020 C 
HETATM   22  C   UNL     1     -43.201 -52.775  13.496  1.00  0.00     0.002 C 
HETATM   23  C   UNL     1     -42.466 -54.084  13.224  1.00  0.00     0.009 C 
HETATM   24  C   UNL     1     -41.006 -53.900  12.863  1.00  0.00     0.103 C 
HETATM   25  C   UNL     1     -40.041 -53.793  14.032  1.00  0.00     0.219 C 
HETATM   26  O   UNL     1     -39.049 -54.521  14.090  1.00  0.00    -0.273 OA
ENDBRANCH  18  19
ENDBRANCH  17  18
ENDBRANCH   4  17
TORSDOF 5
ENDMDL
MODEL 6
REMARK VINA RESULT:      -5.8      3.314      7.601
REMARK  5 active torsions:
REMARK  status: ('A' for Active; 'I' for Inactive)
REMARK    1  A    between atoms: N_2  and  C_4 
REMARK    2  A    between atoms: C_7  and  N_8 
REMARK       I    between atoms: N_8  and  C_9 
REMARK       I    between atoms: C_9  and  N_11 
REMARK    3  A    between atoms: N_11  and  C_12 
REMARK    4  A    between atoms: C_12  and  C_13 
REMARK    5  A    between atoms: C_13  and  N_14 
ROOT
HETATM    1  N   UNL     1     -40.666 -50.324  11.108  1.00  0.00    -0.308 N 
HETATM    2  C   UNL     1     -41.560 -49.287  11.280  1.00  0.00     0.320 C 
HETATM    3  O   UNL     1     -42.163 -49.023  12.313  1.00  0.00    -0.247 OA
HETATM    4  N   UNL     1     -41.718 -48.519  10.148  1.00  0.00    -0.341 N 
HETATM    5  H   UNL     1     -39.956 -50.192  10.406  1.00  0.00     0.170 HD
HETATM    6  H   UNL     1     -41.537 -48.970   9.262  1.00  0.00     0.164 HD
ENDROOT
BRANCH   1   7
HETATM    7  C   UNL     1     -40.488 -51.380  12.037  1.00  0.00     0.051 A 
HETATM    8  C   UNL     1     -39.516 -51.355  13.024  1.00  0.00     0.035 A 
HETATM    9  C   UNL     1     -39.387 -52.422  13.915  1.00  0.00     0.050 A 
HETATM   10  C   UNL     1     -40.241 -53.520  13.848  1.00  0.00     0.102 A 
HETATM   11  N   UNL     1     -41.203 -53.550  12.890  1.00  0.00    -0.350 N 
HETATM   12  C   UNL     1     -41.311 -52.499  12.026  1.00  0.00     0.119 A 
ATOM     13  HN  UNL     1     -41.836 -54.346  12.817  1.00  0.00     0.166 HD
BRANCH  10  14
HETATM   14  N   UNL     1     -40.113 -54.590  14.730  1.00  0.00    -0.376 N 
HETATM   15  C   UNL     1     -41.228 -54.807  15.642  1.00  0.00     0.150 C 
HETATM   16  C   UNL     1     -38.782 -54.973  15.185  1.00  0.00     0.150 C 
ENDBRANCH  10  14
ENDBRANCH   1   7
BRANCH   4  17
HETATM   17  C   UNL     1     -42.718 -47.449  10.159  1.00  0.00     0.144 C 
BRANCH  17  18
HETATM   18  C   UNL     1     -42.094 -46.070   9.907  1.00  0.00     0.145 C 
BRANCH  18  19
HETATM   19  N   UNL     1     -41.540 -45.387  11.081  1.00  0.00    -0.351 N 
HETATM   20  C   UNL     1     -42.204 -44.169  11.547  1.00  0.00     0.126 C 
HETATM   21  C   UNL     1     -42.618 -44.237  13.013  1.00  0.00     0.020 C 
HETATM   22  C   UNL     1     -41.510 -43.853  13.994  1.00  0.00     0.002 C 
HETATM   23  C   UNL     1     -40.098 -44.279  13.603  1.00  0.00     0.009 C 
HETATM   24  C   UNL     1     -40.022 -45.673  13.016  1.00  0.00     0.103 C 
HETATM   25  C   UNL     1     -40.289 -45.781  11.524  1.00  0.00     0.219 C 
HETATM   26  O   UNL     1     -39.485 -46.354  10.787  1.00  0.00    -0.273 OA
ENDBRANCH  18  19
ENDBRANCH  17  18
ENDBRANCH   4  17
TORSDOF 5
ENDMDL
MODEL 7
REMARK VINA RESULT:      -5.6      2.554      8.133
REMARK  5 active torsions:
REMARK  status: ('A' for Active; 'I' for Inactive)
REMARK    1  A    between atoms: N_2  and  C_4 
REMARK    2  A    between atoms: C_7  and  N_8 
REMARK       I    between atoms: N_8  and  C_9 
REMARK       I    between atoms: C_9  and  N_11 
REMARK    3  A    between atoms: N_11  and  C_12 
REMARK    4  A    between atoms: C_12  and  C_13 
REMARK    5  A    between atoms: C_13  and  N_14 
ROOT
HETATM    1  N   UNL     1     -40.831 -50.971  11.357  1.00  0.00    -0.308 N 
HETATM    2  C   UNL     1     -40.373 -49.791  11.908  1.00  0.00     0.320 C 
HETATM    3  O   UNL     1     -40.254 -49.557  13.105  1.00  0.00    -0.247 OA
HETATM    4  N   UNL     1     -40.022 -48.855  10.961  1.00  0.00    -0.341 N 
HETATM    5  H   UNL     1     -40.499 -51.192  10.432  1.00  0.00     0.170 HD
HETATM    6  H   UNL     1     -40.483 -48.920  10.065  1.00  0.00     0.164 HD
ENDROOT
BRANCH   1   7
HETATM    7  C   UNL     1     -41.454 -52.005  12.100  1.00  0.00     0.051 A 
HETATM    8  C   UNL     1     -40.808 -53.185  12.429  1.00  0.00     0.035 A 
HETATM    9  C   UNL     1     -41.468 -54.170  13.167  1.00  0.00     0.050 A 
HETATM   10  C   UNL     1     -42.776 -53.981  13.606  1.00  0.00     0.102 A 
HETATM   11  N   UNL     1     -43.414 -52.823  13.297  1.00  0.00    -0.350 N 
HETATM   12  C   UNL     1     -42.754 -51.875  12.572  1.00  0.00     0.119 A 
ATOM     13  HN  UNL     1     -44.375 -52.664  13.603  1.00  0.00     0.166 HD
BRANCH  10  14
HETATM   14  N   UNL     1     -43.441 -54.962  14.337  1.00  0.00    -0.376 N 
HETATM   15  C   UNL     1     -44.895 -54.958  14.242  1.00  0.00     0.150 C 
HETATM   16  C   UNL     1     -42.845 -55.442  15.578  1.00  0.00     0.150 C 
ENDBRANCH  10  14
ENDBRANCH   1   7
BRANCH   4  17
HETATM   17  C   UNL     1     -39.621 -47.520  11.410  1.00  0.00     0.144 C 
BRANCH  17  18
HETATM   18  C   UNL     1     -40.677 -46.457  11.078  1.00  0.00     0.145 C 
BRANCH  18  19
HETATM   19  N   UNL     1     -40.750 -45.312  11.992  1.00  0.00    -0.351 N 
HETATM   20  C   UNL     1     -41.539 -45.456  13.217  1.00  0.00     0.126 C 
HETATM   21  C   UNL     1     -40.743 -45.152  14.481  1.00  0.00     0.020 C 
HETATM   22  C   UNL     1     -40.690 -43.669  14.845  1.00  0.00     0.002 C 
HETATM   23  C   UNL     1     -40.612 -42.697  13.671  1.00  0.00     0.009 C 
HETATM   24  C   UNL     1     -39.684 -43.152  12.564  1.00  0.00     0.103 C 
HETATM   25  C   UNL     1     -40.288 -44.090  11.533  1.00  0.00     0.219 C 
HETATM   26  O   UNL     1     -40.203 -43.834  10.331  1.00  0.00    -0.273 OA
ENDBRANCH  18  19
ENDBRANCH  17  18
ENDBRANCH   4  17
TORSDOF 5
ENDMDL
MODEL 8
REMARK VINA RESULT:      -5.6      2.002      2.324
REMARK  5 active torsions:
REMARK  status: ('A' for Active; 'I' for Inactive)
REMARK    1  A    between atoms: N_2  and  C_4 
REMARK    2  A    between atoms: C_7  and  N_8 
REMARK       I    between atoms: N_8  and  C_9 
REMARK       I    between atoms: C_9  and  N_11 
REMARK    3  A    between atoms: N_11  and  C_12 
REMARK    4  A    between atoms: C_12  and  C_13 
REMARK    5  A    between atoms: C_13  and  N_14 
ROOT
HETATM    1  N   UNL     1     -42.091 -50.932  14.898  1.00  0.00    -0.308 N 
HETATM    2  C   UNL     1     -42.063 -52.200  14.356  1.00  0.00     0.320 C 
HETATM    3  O   UNL     1     -41.702 -52.488  13.221  1.00  0.00    -0.247 OA
HETATM    4  N   UNL     1     -42.477 -53.173  15.239  1.00  0.00    -0.341 N 
HETATM    5  H   UNL     1     -41.996 -50.869  15.898  1.00  0.00     0.170 HD
HETATM    6  H   UNL     1     -43.110 -52.883  15.971  1.00  0.00     0.164 HD
ENDROOT
BRANCH   1   7
HETATM    7  C   UNL     1     -41.925 -49.743  14.143  1.00  0.00     0.051 A 
HETATM    8  C   UNL     1     -42.993 -49.025  13.631  1.00  0.00     0.035 A 
HETATM    9  C   UNL     1     -42.772 -47.857  12.896  1.00  0.00     0.050 A 
HETATM   10  C   UNL     1     -41.482 -47.378  12.682  1.00  0.00     0.102 A 
HETATM   11  N   UNL     1     -40.429 -48.070  13.190  1.00  0.00    -0.350 N 
HETATM   12  C   UNL     1     -40.665 -49.210  13.901  1.00  0.00     0.119 A 
ATOM     13  HN  UNL     1     -39.474 -47.742  13.041  1.00  0.00     0.166 HD
BRANCH  10  14
HETATM   14  N   UNL     1     -41.255 -46.218  11.946  1.00  0.00    -0.376 N 
HETATM   15  C   UNL     1     -41.624 -46.269  10.538  1.00  0.00     0.150 C 
HETATM   16  C   UNL     1     -40.148 -45.348  12.325  1.00  0.00     0.150 C 
ENDBRANCH  10  14
ENDBRANCH   1   7
BRANCH   4  17
HETATM   17  C   UNL     1     -42.598 -54.551  14.759  1.00  0.00     0.144 C 
BRANCH  17  18
HETATM   18  C   UNL     1     -44.059 -54.950  14.510  1.00  0.00     0.145 C 
BRANCH  18  19
HETATM   19  N   UNL     1     -45.038 -53.858  14.524  1.00  0.00    -0.351 N 
HETATM   20  C   UNL     1     -45.908 -53.726  15.694  1.00  0.00     0.126 C 
HETATM   21  C   UNL     1     -45.837 -52.346  16.339  1.00  0.00     0.020 C 
HETATM   22  C   UNL     1     -46.758 -51.308  15.699  1.00  0.00     0.002 C 
HETATM   23  C   UNL     1     -46.925 -51.409  14.186  1.00  0.00     0.009 C 
HETATM   24  C   UNL     1     -45.636 -51.709  13.449  1.00  0.00     0.103 C 
HETATM   25  C   UNL     1     -45.260 -53.177  13.339  1.00  0.00     0.219 C 
HETATM   26  O   UNL     1     -44.999 -53.673  12.242  1.00  0.00    -0.273 OA
ENDBRANCH  18  19
ENDBRANCH  17  18
ENDBRANCH   4  17
TORSDOF 5
ENDMDL
MODEL 9
REMARK VINA RESULT:      -5.4      1.818      2.465
REMARK  5 active torsions:
REMARK  status: ('A' for Active; 'I' for Inactive)
REMARK    1  A    between atoms: N_2  and  C_4 
REMARK    2  A    between atoms: C_7  and  N_8 
REMARK       I    between atoms: N_8  and  C_9 
REMARK       I    between atoms: C_9  and  N_11 
REMARK    3  A    between atoms: N_11  and  C_12 
REMARK    4  A    between atoms: C_12  and  C_13 
REMARK    5  A    between atoms: C_13  and  N_14 
ROOT
HETATM    1  N   UNL     1     -39.742 -50.555  13.219  1.00  0.00    -0.308 N 
HETATM    2  C   UNL     1     -40.520 -51.567  12.694  1.00  0.00     0.320 C 
HETATM    3  O   UNL     1     -41.336 -51.448  11.787  1.00  0.00    -0.247 OA
HETATM    4  N   UNL     1     -40.284 -52.788  13.284  1.00  0.00    -0.341 N 
HETATM    5  H   UNL     1     -38.864 -50.830  13.627  1.00  0.00     0.170 HD
HETATM    6  H   UNL     1     -39.934 -52.777  14.231  1.00  0.00     0.164 HD
ENDROOT
BRANCH   1   7
HETATM    7  C   UNL     1     -39.940 -49.178  12.945  1.00  0.00     0.051 A 
HETATM    8  C   UNL     1     -39.479 -48.570  11.789  1.00  0.00     0.035 A 
HETATM    9  C   UNL     1     -39.704 -47.209  11.567  1.00  0.00     0.050 A 
HETATM   10  C   UNL     1     -40.414 -46.441  12.487  1.00  0.00     0.102 A 
HETATM   11  N   UNL     1     -40.879 -47.031  13.619  1.00  0.00    -0.350 N 
HETATM   12  C   UNL     1     -40.645 -48.360  13.819  1.00  0.00     0.119 A 
ATOM     13  HN  UNL     1     -41.396 -46.487  14.310  1.00  0.00     0.166 HD
BRANCH  10  14
HETATM   14  N   UNL     1     -40.637 -45.084  12.275  1.00  0.00    -0.376 N 
HETATM   15  C   UNL     1     -40.275 -44.572  10.959  1.00  0.00     0.150 C 
HETATM   16  C   UNL     1     -40.544 -44.169  13.406  1.00  0.00     0.150 C 
ENDBRANCH  10  14
ENDBRANCH   1   7
BRANCH   4  17
HETATM   17  C   UNL     1     -41.118 -53.928  12.895  1.00  0.00     0.144 C 
BRANCH  17  18
HETATM   18  C   UNL     1     -42.210 -54.226  13.931  1.00  0.00     0.145 C 
BRANCH  18  19
HETATM   19  N   UNL     1     -43.331 -53.281  13.978  1.00  0.00    -0.351 N 
HETATM   20  C   UNL     1     -44.195 -53.177  12.800  1.00  0.00     0.126 C 
HETATM   21  C   UNL     1     -45.668 -53.410  13.115  1.00  0.00     0.020 C 
HETATM   22  C   UNL     1     -46.407 -52.166  13.606  1.00  0.00     0.002 C 
HETATM   23  C   UNL     1     -45.602 -51.219  14.492  1.00  0.00     0.009 C 
HETATM   24  C   UNL     1     -44.730 -51.928  15.508  1.00  0.00     0.103 C 
HETATM   25  C   UNL     1     -43.361 -52.367  15.017  1.00  0.00     0.219 C 
HETATM   26  O   UNL     1     -42.346 -52.052  15.639  1.00  0.00    -0.273 OA
ENDBRANCH  18  19
ENDBRANCH  17  18
ENDBRANCH   4  17
TORSDOF 5
ENDMDL
