MODEL 1
REMARK VINA RESULT:      -5.7      0.000      0.000
REMARK  5 active torsions:
REMARK  status: ('A' for Active; 'I' for Inactive)
REMARK    1  A    between atoms: C_2  and  C_3 
REMARK    2  A    between atoms: C_3  and  C_4 
REMARK    3  A    between atoms: C_4  and  N_5 
REMARK       I    between atoms: N_5  and  C_6 
REMARK       I    between atoms: C_6  and  N_8 
REMARK    4  A    between atoms: N_8  and  C_9 
REMARK    5  A    between atoms: C_12  and  N_16 
ROOT
HETATM    1  C   UNL     1     -41.064 -49.312  11.630  1.00  0.00     0.051 A 
HETATM    2  C   UNL     1     -40.131 -48.904  12.570  1.00  0.00     0.035 A 
HETATM    3  C   UNL     1     -39.636 -47.602  12.541  1.00  0.00     0.051 A 
HETATM    4  C   UNL     1     -40.062 -46.693  11.575  1.00  0.00     0.103 A 
HETATM    5  N   UNL     1     -40.895 -47.109  10.595  1.00  0.00    -0.350 N 
ATOM      6  HN  UNL     1     -41.166 -46.479   9.840  1.00  0.00     0.166 HD
HETATM    7  C   UNL     1     -41.366 -48.390  10.636  1.00  0.00     0.119 A 
ENDROOT
BRANCH   1   8
HETATM    8  N   UNL     1     -41.692 -50.583  11.671  1.00  0.00    -0.308 N 
HETATM    9  C   UNL     1     -42.728 -50.889  12.531  1.00  0.00     0.320 C 
HETATM   10  N   UNL     1     -43.179 -52.187  12.376  1.00  0.00    -0.343 N 
HETATM   11  O   UNL     1     -43.249 -50.120  13.329  1.00  0.00    -0.247 OA
HETATM   12  H   UNL     1     -42.457 -52.867  12.199  1.00  0.00     0.164 HD
HETATM   13  H   UNL     1     -41.622 -51.165  10.849  1.00  0.00     0.170 HD
BRANCH  10  14
HETATM   14  C   UNL     1     -44.268 -52.588  13.254  1.00  0.00     0.124 C 
BRANCH  14  15
HETATM   15  C   UNL     1     -45.605 -52.755  12.544  1.00  0.00     0.019 C 
BRANCH  15  16
HETATM   16  C   UNL     1     -46.545 -51.610  12.936  1.00  0.00    -0.003 C 
HETATM   17  C   UNL     1     -46.606 -51.410  14.442  1.00  0.00     0.005 C 
ENDBRANCH  15  16
ENDBRANCH  14  15
ENDBRANCH  10  14
ENDBRANCH   1   8
BRANCH   4  18
HETATM   18  N   UNL     1     -39.601 -45.389  11.592  1.00  0.00    -0.363 N 
HETATM   19  C   UNL     1     -39.120 -44.761  12.833  1.00  0.00     0.150 C 
HETATM   20  C   UNL     1     -40.072 -43.645  13.291  1.00  0.00     0.187 C 
HETATM   21  O   UNL     1     -40.306 -42.689  12.248  1.00  0.00    -0.388 OA
HETATM   22  C   UNL     1     -40.917 -43.340  11.120  1.00  0.00     0.187 C 
HETATM   23  C   UNL     1     -40.019 -44.446  10.548  1.00  0.00     0.150 C 
ENDBRANCH   4  18
TORSDOF 5
ENDMDL
MODEL 2
REMARK VINA RESULT:      -5.6      3.947      7.168
REMARK  5 active torsions:
REMARK  status: ('A' for Active; 'I' for Inactive)
REMARK    1  A    between atoms: C_2  and  C_3 
REMARK    2  A    between atoms: C_3  and  C_4 
REMARK    3  A    between atoms: C_4  and  N_5 
REMARK       I    between atoms: N_5  and  C_6 
REMARK       I    between atoms: C_6  and  N_8 
REMARK    4  A    between atoms: N_8  and  C_9 
REMARK    5  A    between atoms: C_12  and  N_16 
ROOT
HETATM    1  C   UNL     1     -40.259 -50.563  11.762  1.00  0.00     0.051 A 
HETATM    2  C   UNL     1     -39.119 -50.267  12.493  1.00  0.00     0.035 A 
HETATM    3  C   UNL     1     -38.701 -51.124  13.509  1.00  0.00     0.051 A 
HETATM    4  C   UNL     1     -39.415 -52.281  13.811  1.00  0.00     0.103 A 
HETATM    5  N   UNL     1     -40.581 -52.528  13.173  1.00  0.00    -0.350 N 
ATOM      6  HN  UNL     1     -41.153 -53.333  13.425  1.00  0.00     0.166 HD
HETATM    7  C   UNL     1     -40.977 -51.674  12.183  1.00  0.00     0.119 A 
ENDROOT
BRANCH   1   8
HETATM    8  N   UNL     1     -40.675 -49.797  10.643  1.00  0.00    -0.308 N 
HETATM    9  C   UNL     1     -41.662 -48.833  10.707  1.00  0.00     0.320 C 
HETATM   10  N   UNL     1     -41.881 -48.218   9.489  1.00  0.00    -0.343 N 
HETATM   11  O   UNL     1     -42.272 -48.499  11.714  1.00  0.00    -0.247 OA
HETATM   12  H   UNL     1     -41.831 -48.830   8.690  1.00  0.00     0.164 HD
HETATM   13  H   UNL     1     -40.028 -49.706   9.873  1.00  0.00     0.170 HD
BRANCH  10  14
HETATM   14  C   UNL     1     -42.914 -47.193   9.474  1.00  0.00     0.124 C 
BRANCH  14  15
HETATM   15  C   UNL     1     -44.082 -47.505   8.548  1.00  0.00     0.019 C 
BRANCH  15  16
HETATM   16  C   UNL     1     -45.402 -47.360   9.313  1.00  0.00    -0.003 C 
HETATM   17  C   UNL     1     -46.469 -48.312   8.800  1.00  0.00     0.005 C 
ENDBRANCH  15  16
ENDBRANCH  14  15
ENDBRANCH  10  14
ENDBRANCH   1   8
BRANCH   4  18
HETATM   18  N   UNL     1     -38.958 -53.148  14.787  1.00  0.00    -0.363 N 
HETATM   19  C   UNL     1     -39.148 -54.603  14.671  1.00  0.00     0.150 C 
HETATM   20  C   UNL     1     -40.138 -55.116  15.729  1.00  0.00     0.187 C 
HETATM   21  O   UNL     1     -39.752 -54.718  17.051  1.00  0.00    -0.388 OA
HETATM   22  C   UNL     1     -39.732 -53.282  17.140  1.00  0.00     0.187 C 
HETATM   23  C   UNL     1     -38.729 -52.666  16.155  1.00  0.00     0.150 C 
ENDBRANCH   4  18
TORSDOF 5
ENDMDL
MODEL 3
REMARK VINA RESULT:      -5.5      2.900      3.451
REMARK  5 active torsions:
REMARK  status: ('A' for Active; 'I' for Inactive)
REMARK    1  A    between atoms: C_2  and  C_3 
REMARK    2  A    between atoms: C_3  and  C_4 
REMARK    3  A    between atoms: C_4  and  N_5 
REMARK       I    between atoms: N_5  and  C_6 
REMARK       I    between atoms: C_6  and  N_8 
REMARK    4  A    between atoms: N_8  and  C_9 
REMARK    5  A    between atoms: C_12  and  N_16 
ROOT
HETATM    1  C   UNL     1     -41.701 -50.066  12.561  1.00  0.00     0.051 A 
HETATM    2  C   UNL     1     -42.664 -49.093  12.777  1.00  0.00     0.035 A 
HETATM    3  C   UNL     1     -42.860 -48.084  11.837  1.00  0.00     0.051 A 
HETATM    4  C   UNL     1     -42.096 -48.030  10.673  1.00  0.00     0.103 A 
HETATM    5  N   UNL     1     -41.088 -48.914  10.498  1.00  0.00    -0.350 N 
ATOM      6  HN  UNL     1     -40.475 -48.851   9.686  1.00  0.00     0.166 HD
HETATM    7  C   UNL     1     -40.909 -49.894  11.433  1.00  0.00     0.119 A 
ENDROOT
BRANCH   1   8
HETATM    8  N   UNL     1     -41.530 -51.182  13.418  1.00  0.00    -0.308 N 
HETATM    9  C   UNL     1     -42.212 -52.372  13.260  1.00  0.00     0.320 C 
HETATM   10  N   UNL     1     -41.867 -53.312  14.213  1.00  0.00    -0.343 N 
HETATM   11  O   UNL     1     -43.012 -52.627  12.369  1.00  0.00    -0.247 OA
HETATM   12  H   UNL     1     -41.715 -52.940  15.138  1.00  0.00     0.164 HD
HETATM   13  H   UNL     1     -40.668 -51.242  13.940  1.00  0.00     0.170 HD
BRANCH  10  14
HETATM   14  C   UNL     1     -42.551 -54.593  14.118  1.00  0.00     0.124 C 
BRANCH  14  15
HETATM   15  C   UNL     1     -43.459 -54.899  15.302  1.00  0.00     0.019 C 
BRANCH  15  16
HETATM   16  C   UNL     1     -44.887 -54.437  14.992  1.00  0.00    -0.003 C 
HETATM   17  C   UNL     1     -45.404 -55.015  13.685  1.00  0.00     0.005 C 
ENDBRANCH  15  16
ENDBRANCH  14  15
ENDBRANCH  10  14
ENDBRANCH   1   8
BRANCH   4  18
HETATM   18  N   UNL     1     -42.337 -47.053   9.724  1.00  0.00    -0.363 N 
HETATM   19  C   UNL     1     -41.955 -45.650   9.953  1.00  0.00     0.150 C 
HETATM   20  C   UNL     1     -43.198 -44.758  10.107  1.00  0.00     0.187 C 
HETATM   21  O   UNL     1     -44.096 -44.908   9.000  1.00  0.00    -0.388 OA
HETATM   22  C   UNL     1     -44.551 -46.270   8.922  1.00  0.00     0.187 C 
HETATM   23  C   UNL     1     -43.385 -47.247   8.714  1.00  0.00     0.150 C 
ENDBRANCH   4  18
TORSDOF 5
ENDMDL
MODEL 4
REMARK VINA RESULT:      -5.4      3.961      5.732
REMARK  5 active torsions:
REMARK  status: ('A' for Active; 'I' for Inactive)
REMARK    1  A    between atoms: C_2  and  C_3 
REMARK    2  A    between atoms: C_3  and  C_4 
REMARK    3  A    between atoms: C_4  and  N_5 
REMARK       I    between atoms: N_5  and  C_6 
REMARK       I    between atoms: C_6  and  N_8 
REMARK    4  A    between atoms: N_8  and  C_9 
REMARK    5  A    between atoms: C_12  and  N_16 
ROOT
HETATM    1  C   UNL     1     -40.027 -49.704  11.587  1.00  0.00     0.051 A 
HETATM    2  C   UNL     1     -40.334 -50.750  12.443  1.00  0.00     0.035 A 
HETATM    3  C   UNL     1     -39.552 -50.978  13.574  1.00  0.00     0.051 A 
HETATM    4  C   UNL     1     -38.454 -50.171  13.862  1.00  0.00     0.103 A 
HETATM    5  N   UNL     1     -38.087 -49.212  12.982  1.00  0.00    -0.350 N 
ATOM      6  HN  UNL     1     -37.248 -48.654  13.141  1.00  0.00     0.166 HD
HETATM    7  C   UNL     1     -38.863 -49.006  11.878  1.00  0.00     0.119 A 
ENDROOT
BRANCH   1   8
HETATM    8  N   UNL     1     -40.846 -49.346  10.486  1.00  0.00    -0.308 N 
HETATM    9  C   UNL     1     -41.786 -48.336  10.536  1.00  0.00     0.320 C 
HETATM   10  N   UNL     1     -42.450 -48.170   9.336  1.00  0.00    -0.343 N 
HETATM   11  O   UNL     1     -42.013 -47.616  11.500  1.00  0.00    -0.247 OA
HETATM   12  H   UNL     1     -42.660 -49.026   8.846  1.00  0.00     0.164 HD
HETATM   13  H   UNL     1     -40.519 -49.590   9.562  1.00  0.00     0.170 HD
BRANCH  10  14
HETATM   14  C   UNL     1     -43.465 -47.127   9.311  1.00  0.00     0.124 C 
BRANCH  14  15
HETATM   15  C   UNL     1     -44.791 -47.539   9.936  1.00  0.00     0.019 C 
BRANCH  15  16
HETATM   16  C   UNL     1     -45.931 -47.284   8.944  1.00  0.00    -0.003 C 
HETATM   17  C   UNL     1     -46.500 -48.576   8.382  1.00  0.00     0.005 C 
ENDBRANCH  15  16
ENDBRANCH  14  15
ENDBRANCH  10  14
ENDBRANCH   1   8
BRANCH   4  18
HETATM   18  N   UNL     1     -37.719 -50.378  15.015  1.00  0.00    -0.363 N 
HETATM   19  C   UNL     1     -38.182 -51.299  16.065  1.00  0.00     0.150 C 
HETATM   20  C   UNL     1     -38.571 -50.531  17.340  1.00  0.00     0.187 C 
HETATM   21  O   UNL     1     -37.508 -49.679  17.787  1.00  0.00    -0.388 OA
HETATM   22  C   UNL     1     -37.205 -48.705  16.773  1.00  0.00     0.187 C 
HETATM   23  C   UNL     1     -36.752 -49.369  15.465  1.00  0.00     0.150 C 
ENDBRANCH   4  18
TORSDOF 5
ENDMDL
MODEL 5
REMARK VINA RESULT:      -5.3      2.418      3.295
REMARK  5 active torsions:
REMARK  status: ('A' for Active; 'I' for Inactive)
REMARK    1  A    between atoms: C_2  and  C_3 
REMARK    2  A    between atoms: C_3  and  C_4 
REMARK    3  A    between atoms: C_4  and  N_5 
REMARK       I    between atoms: N_5  and  C_6 
REMARK       I    between atoms: C_6  and  N_8 
REMARK    4  A    between atoms: N_8  and  C_9 
REMARK    5  A    between atoms: C_12  and  N_16 
ROOT
HETATM    1  C   UNL     1     -41.282 -47.303  10.678  1.00  0.00     0.051 A 
HETATM    2  C   UNL     1     -40.175 -46.488  10.845  1.00  0.00     0.035 A 
HETATM    3  C   UNL     1     -40.342 -45.133  11.123  1.00  0.00     0.051 A 
HETATM    4  C   UNL     1     -41.613 -44.574  11.234  1.00  0.00     0.103 A 
HETATM    5  N   UNL     1     -42.698 -45.339  10.976  1.00  0.00    -0.350 N 
ATOM      6  HN  UNL     1     -43.635 -44.934  10.986  1.00  0.00     0.166 HD
HETATM    7  C   UNL     1     -42.515 -46.663  10.701  1.00  0.00     0.119 A 
ENDROOT
BRANCH   1   8
HETATM    8  N   UNL     1     -41.185 -48.708  10.508  1.00  0.00    -0.308 N 
HETATM    9  C   UNL     1     -41.080 -49.594  11.562  1.00  0.00     0.320 C 
HETATM   10  N   UNL     1     -41.008 -50.909  11.143  1.00  0.00    -0.343 N 
HETATM   11  O   UNL     1     -41.087 -49.299  12.750  1.00  0.00    -0.247 OA
HETATM   12  H   UNL     1     -40.464 -51.058  10.308  1.00  0.00     0.164 HD
HETATM   13  H   UNL     1     -41.531 -49.099   9.644  1.00  0.00     0.170 HD
BRANCH  10  14
HETATM   14  C   UNL     1     -40.888 -51.905  12.197  1.00  0.00     0.124 C 
BRANCH  14  15
HETATM   15  C   UNL     1     -42.170 -52.683  12.461  1.00  0.00     0.019 C 
BRANCH  15  16
HETATM   16  C   UNL     1     -41.838 -54.002  13.168  1.00  0.00    -0.003 C 
HETATM   17  C   UNL     1     -40.349 -54.149  13.436  1.00  0.00     0.005 C 
ENDBRANCH  15  16
ENDBRANCH  14  15
ENDBRANCH  10  14
ENDBRANCH   1   8
BRANCH   4  18
HETATM   18  N   UNL     1     -41.763 -43.240  11.562  1.00  0.00    -0.363 N 
HETATM   19  C   UNL     1     -40.598 -42.361  11.756  1.00  0.00     0.150 C 
HETATM   20  C   UNL     1     -40.464 -41.940  13.229  1.00  0.00     0.187 C 
HETATM   21  O   UNL     1     -41.677 -41.359  13.724  1.00  0.00    -0.388 OA
HETATM   22  C   UNL     1     -42.745 -42.320  13.647  1.00  0.00     0.187 C 
HETATM   23  C   UNL     1     -42.999 -42.771  12.201  1.00  0.00     0.150 C 
ENDBRANCH   4  18
TORSDOF 5
ENDMDL
MODEL 6
REMARK VINA RESULT:      -5.2      4.159      5.699
REMARK  5 active torsions:
REMARK  status: ('A' for Active; 'I' for Inactive)
REMARK    1  A    between atoms: C_2  and  C_3 
REMARK    2  A    between atoms: C_3  and  C_4 
REMARK    3  A    between atoms: C_4  and  N_5 
REMARK       I    between atoms: N_5  and  C_6 
REMARK       I    between atoms: C_6  and  N_8 
REMARK    4  A    between atoms: N_8  and  C_9 
REMARK    5  A    between atoms: C_12  and  N_16 
ROOT
HETATM    1  C   UNL     1     -39.627 -48.479  12.026  1.00  0.00     0.051 A 
HETATM    2  C   UNL     1     -39.150 -49.726  12.397  1.00  0.00     0.035 A 
HETATM    3  C   UNL     1     -38.484 -49.885  13.611  1.00  0.00     0.051 A 
HETATM    4  C   UNL     1     -38.282 -48.803  14.465  1.00  0.00     0.103 A 
HETATM    5  N   UNL     1     -38.655 -47.566  14.069  1.00  0.00    -0.350 N 
ATOM      6  HN  UNL     1     -38.456 -46.751  14.649  1.00  0.00     0.166 HD
HETATM    7  C   UNL     1     -39.303 -47.429  12.874  1.00  0.00     0.119 A 
ENDROOT
BRANCH   1   8
HETATM    8  N   UNL     1     -40.412 -48.272  10.863  1.00  0.00    -0.308 N 
HETATM    9  C   UNL     1     -41.745 -47.915  10.901  1.00  0.00     0.320 C 
HETATM   10  N   UNL     1     -42.289 -47.762   9.640  1.00  0.00    -0.343 N 
HETATM   11  O   UNL     1     -42.403 -47.707  11.913  1.00  0.00    -0.247 OA
HETATM   12  H   UNL     1     -41.969 -48.430   8.957  1.00  0.00     0.164 HD
HETATM   13  H   UNL     1     -39.927 -48.049  10.006  1.00  0.00     0.170 HD
BRANCH  10  14
HETATM   14  C   UNL     1     -43.696 -47.392   9.597  1.00  0.00     0.124 C 
BRANCH  14  15
HETATM   15  C   UNL     1     -44.383 -47.725   8.279  1.00  0.00     0.019 C 
BRANCH  15  16
HETATM   16  C   UNL     1     -45.830 -48.154   8.544  1.00  0.00    -0.003 C 
HETATM   17  C   UNL     1     -46.672 -47.017   9.099  1.00  0.00     0.005 C 
ENDBRANCH  15  16
ENDBRANCH  14  15
ENDBRANCH  10  14
ENDBRANCH   1   8
BRANCH   4  18
HETATM   18  N   UNL     1     -37.665 -48.987  15.689  1.00  0.00    -0.363 N 
HETATM   19  C   UNL     1     -37.168 -47.847  16.476  1.00  0.00     0.150 C 
HETATM   20  C   UNL     1     -35.632 -47.847  16.540  1.00  0.00     0.187 C 
HETATM   21  O   UNL     1     -35.124 -49.103  17.012  1.00  0.00    -0.388 OA
HETATM   22  C   UNL     1     -35.519 -50.156  16.116  1.00  0.00     0.187 C 
HETATM   23  C   UNL     1     -37.047 -50.276  16.019  1.00  0.00     0.150 C 
ENDBRANCH   4  18
TORSDOF 5
ENDMDL
MODEL 7
REMARK VINA RESULT:      -5.2      2.510      3.046
REMARK  5 active torsions:
REMARK  status: ('A' for Active; 'I' for Inactive)
REMARK    1  A    between atoms: C_2  and  C_3 
REMARK    2  A    between atoms: C_3  and  C_4 
REMARK    3  A    between atoms: C_4  and  N_5 
REMARK       I    between atoms: N_5  and  C_6 
REMARK       I    between atoms: C_6  and  N_8 
REMARK    4  A    between atoms: N_8  and  C_9 
REMARK    5  A    between atoms: C_12  and  N_16 
ROOT
HETATM    1  C   UNL     1     -40.649 -49.171  11.073  1.00  0.00     0.051 A 
HETATM    2  C   UNL     1     -39.655 -48.463  11.729  1.00  0.00     0.035 A 
HETATM    3  C   UNL     1     -39.764 -47.082  11.876  1.00  0.00     0.051 A 
HETATM    4  C   UNL     1     -40.861 -46.390  11.367  1.00  0.00     0.103 A 
HETATM    5  N   UNL     1     -41.786 -47.056  10.640  1.00  0.00    -0.350 N 
ATOM      6  HN  UNL     1     -42.561 -46.559  10.202  1.00  0.00     0.166 HD
HETATM    7  C   UNL     1     -41.660 -48.409  10.503  1.00  0.00     0.119 A 
ENDROOT
BRANCH   1   8
HETATM    8  N   UNL     1     -40.657 -50.587  10.990  1.00  0.00    -0.308 N 
HETATM    9  C   UNL     1     -41.044 -51.406  12.032  1.00  0.00     0.320 C 
HETATM   10  N   UNL     1     -40.976 -52.747  11.706  1.00  0.00    -0.343 N 
HETATM   11  O   UNL     1     -41.447 -51.032  13.126  1.00  0.00    -0.247 OA
HETATM   12  H   UNL     1     -40.187 -53.004  11.133  1.00  0.00     0.164 HD
HETATM   13  H   UNL     1     -40.710 -51.001  10.070  1.00  0.00     0.170 HD
BRANCH  10  14
HETATM   14  C   UNL     1     -41.361 -53.676  12.757  1.00  0.00     0.124 C 
BRANCH  14  15
HETATM   15  C   UNL     1     -40.183 -54.287  13.505  1.00  0.00     0.019 C 
BRANCH  15  16
HETATM   16  C   UNL     1     -40.296 -53.963  14.999  1.00  0.00    -0.003 C 
HETATM   17  C   UNL     1     -39.361 -52.840  15.414  1.00  0.00     0.005 C 
ENDBRANCH  15  16
ENDBRANCH  14  15
ENDBRANCH  10  14
ENDBRANCH   1   8
BRANCH   4  18
HETATM   18  N   UNL     1     -40.980 -45.027  11.567  1.00  0.00    -0.363 N 
HETATM   19  C   UNL     1     -39.892 -44.242  12.170  1.00  0.00     0.150 C 
HETATM   20  C   UNL     1     -40.290 -43.728  13.564  1.00  0.00     0.187 C 
HETATM   21  O   UNL     1     -41.530 -43.009  13.527  1.00  0.00    -0.388 OA
HETATM   22  C   UNL     1     -42.583 -43.877  13.071  1.00  0.00     0.187 C 
HETATM   23  C   UNL     1     -42.308 -44.408  11.657  1.00  0.00     0.150 C 
ENDBRANCH   4  18
TORSDOF 5
ENDMDL
MODEL 8
REMARK VINA RESULT:      -5.1      1.633      2.100
REMARK  5 active torsions:
REMARK  status: ('A' for Active; 'I' for Inactive)
REMARK    1  A    between atoms: C_2  and  C_3 
REMARK    2  A    between atoms: C_3  and  C_4 
REMARK    3  A    between atoms: C_4  and  N_5 
REMARK       I    between atoms: N_5  and  C_6 
REMARK       I    between atoms: C_6  and  N_8 
REMARK    4  A    between atoms: N_8  and  C_9 
REMARK    5  A    between atoms: C_12  and  N_16 
ROOT
HETATM    1  C   UNL     1     -41.755 -47.829  10.961  1.00  0.00     0.051 A 
HETATM    2  C   UNL     1     -40.569 -47.141  11.157  1.00  0.00     0.035 A 
HETATM    3  C   UNL     1     -40.565 -45.747  11.176  1.00  0.00     0.051 A 
HETATM    4  C   UNL     1     -41.742 -45.024  10.995  1.00  0.00     0.103 A 
HETATM    5  N   UNL     1     -42.887 -45.682  10.705  1.00  0.00    -0.350 N 
ATOM      6  HN  UNL     1     -43.746 -45.170  10.503  1.00  0.00     0.166 HD
HETATM    7  C   UNL     1     -42.870 -47.048  10.687  1.00  0.00     0.119 A 
ENDROOT
BRANCH   1   8
HETATM    8  N   UNL     1     -41.848 -49.241  11.046  1.00  0.00    -0.308 N 
HETATM    9  C   UNL     1     -42.312 -49.906  12.164  1.00  0.00     0.320 C 
HETATM   10  N   UNL     1     -42.317 -51.278  12.001  1.00  0.00    -0.343 N 
HETATM   11  O   UNL     1     -42.720 -49.380  13.192  1.00  0.00    -0.247 OA
HETATM   12  H   UNL     1     -41.530 -51.647  11.490  1.00  0.00     0.164 HD
HETATM   13  H   UNL     1     -41.901 -49.759  10.181  1.00  0.00     0.170 HD
BRANCH  10  14
HETATM   14  C   UNL     1     -42.786 -52.050  13.142  1.00  0.00     0.124 C 
BRANCH  14  15
HETATM   15  C   UNL     1     -44.185 -52.625  12.966  1.00  0.00     0.019 C 
BRANCH  15  16
HETATM   16  C   UNL     1     -45.187 -51.805  13.786  1.00  0.00    -0.003 C 
HETATM   17  C   UNL     1     -46.483 -51.561  13.029  1.00  0.00     0.005 C 
ENDBRANCH  15  16
ENDBRANCH  14  15
ENDBRANCH  10  14
ENDBRANCH   1   8
BRANCH   4  18
HETATM   18  N   UNL     1     -41.732 -43.644  11.068  1.00  0.00    -0.363 N 
HETATM   19  C   UNL     1     -40.537 -42.908  11.512  1.00  0.00     0.150 C 
HETATM   20  C   UNL     1     -40.777 -42.235  12.874  1.00  0.00     0.187 C 
HETATM   21  O   UNL     1     -41.952 -41.414  12.857  1.00  0.00    -0.388 OA
HETATM   22  C   UNL     1     -43.106 -42.221  12.565  1.00  0.00     0.187 C 
HETATM   23  C   UNL     1     -42.992 -42.901  11.193  1.00  0.00     0.150 C 
ENDBRANCH   4  18
TORSDOF 5
ENDMDL
MODEL 9
REMARK VINA RESULT:      -5.0      3.191      7.495
REMARK  5 active torsions:
REMARK  status: ('A' for Active; 'I' for Inactive)
REMARK    1  A    between atoms: C_2  and  C_3 
REMARK    2  A    between atoms: C_3  and  C_4 
REMARK    3  A    between atoms: C_4  and  N_5 
REMARK       I    between atoms: N_5  and  C_6 
REMARK       I    between atoms: C_6  and  N_8 
REMARK    4  A    between atoms: N_8  and  C_9 
REMARK    5  A    between atoms: C_12  and  N_16 
ROOT
HETATM    1  C   UNL     1     -42.522 -47.176  11.326  1.00  0.00     0.051 A 
HETATM    2  C   UNL     1     -42.468 -47.838  12.542  1.00  0.00     0.035 A 
HETATM    3  C   UNL     1     -41.758 -49.031  12.655  1.00  0.00     0.051 A 
HETATM    4  C   UNL     1     -41.098 -49.581  11.559  1.00  0.00     0.103 A 
HETATM    5  N   UNL     1     -41.226 -48.997  10.346  1.00  0.00    -0.350 N 
ATOM      6  HN  UNL     1     -40.807 -49.418   9.518  1.00  0.00     0.166 HD
HETATM    7  C   UNL     1     -41.929 -47.829  10.254  1.00  0.00     0.119 A 
ENDROOT
BRANCH   1   8
HETATM    8  N   UNL     1     -43.127 -45.903  11.169  1.00  0.00    -0.308 N 
HETATM    9  C   UNL     1     -42.422 -44.716  11.214  1.00  0.00     0.320 C 
HETATM   10  N   UNL     1     -43.230 -43.612  11.026  1.00  0.00    -0.343 N 
HETATM   11  O   UNL     1     -41.211 -44.607  11.361  1.00  0.00    -0.247 OA
HETATM   12  H   UNL     1     -44.137 -43.672  11.461  1.00  0.00     0.164 HD
HETATM   13  H   UNL     1     -44.013 -45.863  10.688  1.00  0.00     0.170 HD
BRANCH  10  14
HETATM   14  C   UNL     1     -42.560 -42.321  11.067  1.00  0.00     0.124 C 
BRANCH  14  15
HETATM   15  C   UNL     1     -42.922 -41.474  12.279  1.00  0.00     0.019 C 
BRANCH  15  16
HETATM   16  C   UNL     1     -41.649 -41.100  13.047  1.00  0.00    -0.003 C 
HETATM   17  C   UNL     1     -40.397 -41.291  12.207  1.00  0.00     0.005 C 
ENDBRANCH  15  16
ENDBRANCH  14  15
ENDBRANCH  10  14
ENDBRANCH   1   8
BRANCH   4  18
HETATM   18  N   UNL     1     -40.355 -50.738  11.699  1.00  0.00    -0.363 N 
HETATM   19  C   UNL     1     -41.000 -52.044  11.914  1.00  0.00     0.150 C 
HETATM   20  C   UNL     1     -40.715 -52.575  13.328  1.00  0.00     0.187 C 
HETATM   21  O   UNL     1     -39.309 -52.606  13.607  1.00  0.00    -0.388 OA
HETATM   22  C   UNL     1     -38.767 -51.276  13.528  1.00  0.00     0.187 C 
HETATM   23  C   UNL     1     -38.953 -50.668  12.131  1.00  0.00     0.150 C 
ENDBRANCH   4  18
TORSDOF 5
ENDMDL
