MODEL 1
REMARK VINA RESULT:      -6.7      0.000      0.000
REMARK  8 active torsions:
REMARK  status: ('A' for Active; 'I' for Inactive)
REMARK    1  A    between atoms: N_2  and  C_13 
REMARK    2  A    between atoms: C_6  and  N_8 
REMARK    3  A    between atoms: C_13  and  C_15 
REMARK    4  A    between atoms: N_14  and  C_20 
REMARK    5  A    between atoms: C_15  and  C_26 
REMARK    6  A    between atoms: C_17  and  C_20 
REMARK       I    between atoms: C_17  and  N_25 
REMARK    7  A    between atoms: N_25  and  C_32 
REMARK    8  A    between atoms: C_26  and  O_27 
ROOT
HETATM    1  C   UNL     1     -40.675 -49.731  12.404  1.00  0.00     0.122 A 
HETATM    2  N   UNL     1     -40.644 -47.830  11.285  1.00  0.00    -0.326 N 
HETATM    3  C   UNL     1     -39.948 -48.566  12.218  1.00  0.00     0.140 A 
HETATM    4  N   UNL     1     -41.778 -49.732  11.560  1.00  0.00    -0.346 N 
ATOM      5  HN  UNL     1     -42.489 -50.457  11.473  1.00  0.00     0.167 HD
HETATM    6  C   UNL     1     -40.193 -50.672  13.360  1.00  0.00     0.135 A 
HETATM    7  C   UNL     1     -41.709 -48.600  10.896  1.00  0.00     0.185 A 
HETATM    8  N   UNL     1     -38.819 -48.201  12.855  1.00  0.00    -0.336 N 
ATOM      9  HN  UNL     1     -38.323 -47.323  12.698  1.00  0.00     0.168 HD
HETATM   10  N   UNL     1     -39.034 -50.332  13.999  1.00  0.00    -0.337 N 
ATOM     11  HN  UNL     1     -38.622 -50.969  14.681  1.00  0.00     0.168 HD
HETATM   12  C   UNL     1     -38.433 -49.154  13.726  1.00  0.00     0.183 A 
ENDROOT
BRANCH   6  13
HETATM   13  N   UNL     1     -40.786 -51.916  13.620  1.00  0.00    -0.362 N 
HETATM   14  C   UNL     1     -41.998 -51.888  14.456  1.00  0.00     0.154 C 
HETATM   15  C   UNL     1     -42.368 -53.329  14.897  1.00  0.00     0.293 C 
HETATM   16  N   UNL     1     -42.517 -54.327  13.801  1.00  0.00     0.100 N 
HETATM   17  C   UNL     1     -41.298 -54.252  12.953  1.00  0.00     0.293 C 
HETATM   18  C   UNL     1     -40.878 -52.834  12.474  1.00  0.00     0.154 C 
BRANCH  16  19
HETATM   19  C   UNL     1     -43.723 -54.077  12.984  1.00  0.00     0.374 C 
BRANCH  19  20
HETATM   20  C   UNL     1     -45.007 -54.224  13.805  1.00  0.00     0.246 C 
HETATM   21  O   UNL     1     -45.369 -55.306  14.252  1.00  0.00    -0.272 OA
HETATM   22  N   UNL     1     -45.685 -53.042  14.018  1.00  0.00    -0.360 N 
HETATM   23  H   UNL     1     -45.421 -52.261  13.425  1.00  0.00     0.162 HD
BRANCH  22  24
HETATM   24  C   UNL     1     -46.940 -53.004  14.733  1.00  0.00     0.118 C 
HETATM   25  C   UNL     1     -47.147 -51.677  15.441  1.00  0.00     0.026 C 
ENDBRANCH  22  24
ENDBRANCH  19  20
ENDBRANCH  16  19
ENDBRANCH   6  13
BRANCH   2  26
HETATM   26  C   UNL     1     -40.326 -46.485  10.804  1.00  0.00     0.143 C 
BRANCH  26  27
HETATM   27  C   UNL     1     -41.233 -45.344  11.389  1.00  0.00     0.001 C 
HETATM   28  C   UNL     1     -40.447 -44.011  11.445  1.00  0.00     0.039 C 
HETATM   29  C   UNL     1     -39.435 -44.006  12.589  1.00  0.00     0.168 C 
HETATM   30  O   UNL     1     -40.126 -44.108  13.827  1.00  0.00    -0.391 OA
HETATM   31  C   UNL     1     -40.777 -45.362  13.977  1.00  0.00     0.168 C 
HETATM   32  C   UNL     1     -41.745 -45.648  12.834  1.00  0.00     0.039 C 
BRANCH  27  33
HETATM   33  C   UNL     1     -42.506 -45.210  10.516  1.00  0.00     0.175 C 
BRANCH  33  34
HETATM   34  O   UNL     1     -42.231 -45.623   9.179  1.00  0.00    -0.400 OA
HETATM   35  H   UNL     1     -41.765 -46.484   9.224  1.00  0.00     0.209 HD
ENDBRANCH  33  34
ENDBRANCH  27  33
ENDBRANCH  26  27
ENDBRANCH   2  26
TORSDOF 8
ENDMDL
MODEL 2
REMARK VINA RESULT:      -6.5      2.698      8.902
REMARK  8 active torsions:
REMARK  status: ('A' for Active; 'I' for Inactive)
REMARK    1  A    between atoms: N_2  and  C_13 
REMARK    2  A    between atoms: C_6  and  N_8 
REMARK    3  A    between atoms: C_13  and  C_15 
REMARK    4  A    between atoms: N_14  and  C_20 
REMARK    5  A    between atoms: C_15  and  C_26 
REMARK    6  A    between atoms: C_17  and  C_20 
REMARK       I    between atoms: C_17  and  N_25 
REMARK    7  A    between atoms: N_25  and  C_32 
REMARK    8  A    between atoms: C_26  and  O_27 
ROOT
HETATM    1  C   UNL     1     -42.220 -49.195  12.313  1.00  0.00     0.122 A 
HETATM    2  N   UNL     1     -42.720 -51.313  12.682  1.00  0.00    -0.326 N 
HETATM    3  C   UNL     1     -41.777 -50.492  12.103  1.00  0.00     0.140 A 
HETATM    4  N   UNL     1     -43.395 -49.218  13.053  1.00  0.00    -0.346 N 
ATOM      5  HN  UNL     1     -43.947 -48.418  13.360  1.00  0.00     0.167 HD
HETATM    6  C   UNL     1     -41.440 -48.130  11.777  1.00  0.00     0.135 A 
HETATM    7  C   UNL     1     -43.644 -50.490  13.272  1.00  0.00     0.185 A 
HETATM    8  N   UNL     1     -40.677 -50.877  11.429  1.00  0.00    -0.336 N 
ATOM      9  HN  UNL     1     -40.395 -51.847  11.285  1.00  0.00     0.168 HD
HETATM   10  N   UNL     1     -40.305 -48.499  11.111  1.00  0.00    -0.337 N 
ATOM     11  HN  UNL     1     -39.689 -47.786  10.719  1.00  0.00     0.168 HD
HETATM   12  C   UNL     1     -39.998 -49.806  10.972  1.00  0.00     0.183 A 
ENDROOT
BRANCH   6  13
HETATM   13  N   UNL     1     -41.727 -46.768  11.951  1.00  0.00    -0.362 N 
HETATM   14  C   UNL     1     -41.057 -46.110  13.085  1.00  0.00     0.154 C 
HETATM   15  C   UNL     1     -41.683 -44.711  13.326  1.00  0.00     0.293 C 
HETATM   16  N   UNL     1     -41.720 -43.801  12.147  1.00  0.00     0.100 N 
HETATM   17  C   UNL     1     -42.337 -44.549  11.019  1.00  0.00     0.293 C 
HETATM   18  C   UNL     1     -41.748 -45.957  10.723  1.00  0.00     0.154 C 
BRANCH  16  19
HETATM   19  C   UNL     1     -40.371 -43.329  11.768  1.00  0.00     0.374 C 
BRANCH  19  20
HETATM   20  C   UNL     1     -40.090 -41.923  12.305  1.00  0.00     0.246 C 
HETATM   21  O   UNL     1     -39.342 -41.731  13.256  1.00  0.00    -0.272 OA
HETATM   22  N   UNL     1     -40.718 -40.911  11.609  1.00  0.00    -0.360 N 
HETATM   23  H   UNL     1     -41.476 -41.194  10.994  1.00  0.00     0.162 HD
BRANCH  22  24
HETATM   24  C   UNL     1     -40.600 -39.527  12.008  1.00  0.00     0.118 C 
HETATM   25  C   UNL     1     -41.800 -39.068  12.818  1.00  0.00     0.026 C 
ENDBRANCH  22  24
ENDBRANCH  19  20
ENDBRANCH  16  19
ENDBRANCH   6  13
BRANCH   2  26
HETATM   26  C   UNL     1     -42.748 -52.776  12.666  1.00  0.00     0.143 C 
BRANCH  26  27
HETATM   27  C   UNL     1     -41.851 -53.463  13.757  1.00  0.00     0.001 C 
HETATM   28  C   UNL     1     -42.606 -54.651  14.400  1.00  0.00     0.039 C 
HETATM   29  C   UNL     1     -43.686 -54.170  15.368  1.00  0.00     0.168 C 
HETATM   30  O   UNL     1     -43.073 -53.466  16.440  1.00  0.00    -0.391 OA
HETATM   31  C   UNL     1     -42.462 -52.258  16.010  1.00  0.00     0.168 C 
HETATM   32  C   UNL     1     -41.434 -52.493  14.909  1.00  0.00     0.039 C 
BRANCH  27  33
HETATM   33  C   UNL     1     -40.524 -53.928  13.104  1.00  0.00     0.175 C 
BRANCH  33  34
HETATM   34  O   UNL     1     -40.596 -53.780  11.687  1.00  0.00    -0.400 OA
HETATM   35  H   UNL     1     -40.207 -52.910  11.459  1.00  0.00     0.209 HD
ENDBRANCH  33  34
ENDBRANCH  27  33
ENDBRANCH  26  27
ENDBRANCH   2  26
TORSDOF 8
ENDMDL
MODEL 3
REMARK VINA RESULT:      -6.3      2.766      4.770
REMARK  8 active torsions:
REMARK  status: ('A' for Active; 'I' for Inactive)
REMARK    1  A    between atoms: N_2  and  C_13 
REMARK    2  A    between atoms: C_6  and  N_8 
REMARK    3  A    between atoms: C_13  and  C_15 
REMARK    4  A    between atoms: N_14  and  C_20 
REMARK    5  A    between atoms: C_15  and  C_26 
REMARK    6  A    between atoms: C_17  and  C_20 
REMARK       I    between atoms: C_17  and  N_25 
REMARK    7  A    between atoms: N_25  and  C_32 
REMARK    8  A    between atoms: C_26  and  O_27 
ROOT
HETATM    1  C   UNL     1     -42.692 -51.877  12.961  1.00  0.00     0.122 A 
HETATM    2  N   UNL     1     -41.340 -50.571  11.804  1.00  0.00    -0.326 N 
HETATM    3  C   UNL     1     -41.531 -51.876  12.202  1.00  0.00     0.140 A 
HETATM    4  N   UNL     1     -43.232 -50.598  12.987  1.00  0.00    -0.346 N 
ATOM      5  HN  UNL     1     -44.082 -50.296  13.462  1.00  0.00     0.167 HD
HETATM    6  C   UNL     1     -43.110 -53.111  13.537  1.00  0.00     0.135 A 
HETATM    7  C   UNL     1     -42.415 -49.860  12.269  1.00  0.00     0.185 A 
HETATM    8  N   UNL     1     -40.725 -52.924  11.947  1.00  0.00    -0.336 N 
ATOM      9  HN  UNL     1     -39.869 -52.876  11.395  1.00  0.00     0.168 HD
HETATM   10  N   UNL     1     -42.319 -54.193  13.268  1.00  0.00    -0.337 N 
ATOM     11  HN  UNL     1     -42.571 -55.112  13.633  1.00  0.00     0.168 HD
HETATM   12  C   UNL     1     -41.205 -54.046  12.520  1.00  0.00     0.183 A 
ENDROOT
BRANCH   6  13
HETATM   13  N   UNL     1     -44.286 -53.283  14.282  1.00  0.00    -0.362 N 
HETATM   14  C   UNL     1     -44.271 -52.727  15.645  1.00  0.00     0.154 C 
HETATM   15  C   UNL     1     -45.503 -53.240  16.437  1.00  0.00     0.293 C 
HETATM   16  N   UNL     1     -46.829 -53.010  15.798  1.00  0.00     0.100 N 
HETATM   17  C   UNL     1     -46.754 -53.524  14.404  1.00  0.00     0.293 C 
HETATM   18  C   UNL     1     -45.544 -53.041  13.557  1.00  0.00     0.154 C 
BRANCH  16  19
HETATM   19  C   UNL     1     -47.203 -51.580  15.795  1.00  0.00     0.374 C 
BRANCH  19  20
HETATM   20  C   UNL     1     -47.664 -51.110  17.177  1.00  0.00     0.246 C 
HETATM   21  O   UNL     1     -48.652 -51.584  17.726  1.00  0.00    -0.272 OA
HETATM   22  N   UNL     1     -46.860 -50.145  17.748  1.00  0.00    -0.360 N 
HETATM   23  H   UNL     1     -46.213 -49.674  17.123  1.00  0.00     0.162 HD
BRANCH  22  24
HETATM   24  C   UNL     1     -47.174 -49.555  19.030  1.00  0.00     0.118 C 
HETATM   25  C   UNL     1     -47.638 -48.116  18.890  1.00  0.00     0.026 C 
ENDBRANCH  22  24
ENDBRANCH  19  20
ENDBRANCH  16  19
ENDBRANCH   6  13
BRANCH   2  26
HETATM   26  C   UNL     1     -40.209 -50.036  11.044  1.00  0.00     0.143 C 
BRANCH  26  27
HETATM   27  C   UNL     1     -39.181 -49.204  11.891  1.00  0.00     0.001 C 
HETATM   28  C   UNL     1     -37.740 -49.463  11.388  1.00  0.00     0.039 C 
HETATM   29  C   UNL     1     -37.231 -50.834  11.829  1.00  0.00     0.168 C 
HETATM   30  O   UNL     1     -37.166 -50.875  13.249  1.00  0.00    -0.391 OA
HETATM   31  C   UNL     1     -38.452 -50.799  13.848  1.00  0.00     0.168 C 
HETATM   32  C   UNL     1     -39.216 -49.552  13.413  1.00  0.00     0.039 C 
BRANCH  27  33
HETATM   33  C   UNL     1     -39.547 -47.701  11.799  1.00  0.00     0.175 C 
BRANCH  33  34
HETATM   34  O   UNL     1     -40.334 -47.457  10.636  1.00  0.00    -0.400 OA
HETATM   35  H   UNL     1     -39.809 -46.888  10.035  1.00  0.00     0.209 HD
ENDBRANCH  33  34
ENDBRANCH  27  33
ENDBRANCH  26  27
ENDBRANCH   2  26
TORSDOF 8
ENDMDL
MODEL 4
REMARK VINA RESULT:      -6.3      2.799      8.553
REMARK  8 active torsions:
REMARK  status: ('A' for Active; 'I' for Inactive)
REMARK    1  A    between atoms: N_2  and  C_13 
REMARK    2  A    between atoms: C_6  and  N_8 
REMARK    3  A    between atoms: C_13  and  C_15 
REMARK    4  A    between atoms: N_14  and  C_20 
REMARK    5  A    between atoms: C_15  and  C_26 
REMARK    6  A    between atoms: C_17  and  C_20 
REMARK       I    between atoms: C_17  and  N_25 
REMARK    7  A    between atoms: N_25  and  C_32 
REMARK    8  A    between atoms: C_26  and  O_27 
ROOT
HETATM    1  C   UNL     1     -41.906 -49.024  12.623  1.00  0.00     0.122 A 
HETATM    2  N   UNL     1     -42.627 -51.105  12.759  1.00  0.00    -0.326 N 
HETATM    3  C   UNL     1     -41.643 -50.319  12.202  1.00  0.00     0.140 A 
HETATM    4  N   UNL     1     -43.008 -49.023  13.467  1.00  0.00    -0.346 N 
ATOM      5  HN  UNL     1     -43.432 -48.219  13.930  1.00  0.00     0.167 HD
HETATM    6  C   UNL     1     -41.049 -47.985  12.157  1.00  0.00     0.135 A 
HETATM    7  C   UNL     1     -43.391 -50.278  13.542  1.00  0.00     0.185 A 
HETATM    8  N   UNL     1     -40.658 -50.722  11.378  1.00  0.00    -0.336 N 
ATOM      9  HN  UNL     1     -40.510 -51.686  11.080  1.00  0.00     0.168 HD
HETATM   10  N   UNL     1     -40.027 -48.377  11.338  1.00  0.00    -0.337 N 
ATOM     11  HN  UNL     1     -39.364 -47.688  10.984  1.00  0.00     0.168 HD
HETATM   12  C   UNL     1     -39.895 -49.677  10.999  1.00  0.00     0.183 A 
ENDROOT
BRANCH   6  13
HETATM   13  N   UNL     1     -41.153 -46.638  12.535  1.00  0.00    -0.362 N 
HETATM   14  C   UNL     1     -39.971 -45.803  12.265  1.00  0.00     0.154 C 
HETATM   15  C   UNL     1     -40.115 -44.437  12.988  1.00  0.00     0.293 C 
HETATM   16  N   UNL     1     -41.364 -43.677  12.703  1.00  0.00     0.100 N 
HETATM   17  C   UNL     1     -42.512 -44.597  12.921  1.00  0.00     0.293 C 
HETATM   18  C   UNL     1     -42.430 -45.980  12.216  1.00  0.00     0.154 C 
BRANCH  16  19
HETATM   19  C   UNL     1     -41.389 -43.150  11.322  1.00  0.00     0.374 C 
BRANCH  19  20
HETATM   20  C   UNL     1     -42.689 -42.400  11.023  1.00  0.00     0.246 C 
HETATM   21  O   UNL     1     -43.545 -42.859  10.276  1.00  0.00    -0.272 OA
HETATM   22  N   UNL     1     -42.819 -41.197  11.687  1.00  0.00    -0.360 N 
HETATM   23  H   UNL     1     -41.970 -40.817  12.094  1.00  0.00     0.162 HD
BRANCH  22  24
HETATM   24  C   UNL     1     -43.963 -40.337  11.485  1.00  0.00     0.118 C 
HETATM   25  C   UNL     1     -44.986 -40.488  12.597  1.00  0.00     0.026 C 
ENDBRANCH  22  24
ENDBRANCH  19  20
ENDBRANCH  16  19
ENDBRANCH   6  13
BRANCH   2  26
HETATM   26  C   UNL     1     -42.834 -52.540  12.555  1.00  0.00     0.143 C 
BRANCH  26  27
HETATM   27  C   UNL     1     -42.071 -53.466  13.568  1.00  0.00     0.001 C 
HETATM   28  C   UNL     1     -42.949 -54.683  13.946  1.00  0.00     0.039 C 
HETATM   29  C   UNL     1     -44.067 -54.288  14.910  1.00  0.00     0.168 C 
HETATM   30  O   UNL     1     -43.494 -53.821  16.125  1.00  0.00    -0.391 OA
HETATM   31  C   UNL     1     -42.775 -52.609  15.950  1.00  0.00     0.168 C 
HETATM   32  C   UNL     1     -41.682 -52.736  14.893  1.00  0.00     0.039 C 
BRANCH  27  33
HETATM   33  C   UNL     1     -40.730 -53.916  12.933  1.00  0.00     0.175 C 
BRANCH  33  34
HETATM   34  O   UNL     1     -40.725 -53.624  11.537  1.00  0.00    -0.400 OA
HETATM   35  H   UNL     1     -41.248 -52.805  11.402  1.00  0.00     0.209 HD
ENDBRANCH  33  34
ENDBRANCH  27  33
ENDBRANCH  26  27
ENDBRANCH   2  26
TORSDOF 8
ENDMDL
MODEL 5
REMARK VINA RESULT:      -6.3      2.287      8.632
REMARK  8 active torsions:
REMARK  status: ('A' for Active; 'I' for Inactive)
REMARK    1  A    between atoms: N_2  and  C_13 
REMARK    2  A    between atoms: C_6  and  N_8 
REMARK    3  A    between atoms: C_13  and  C_15 
REMARK    4  A    between atoms: N_14  and  C_20 
REMARK    5  A    between atoms: C_15  and  C_26 
REMARK    6  A    between atoms: C_17  and  C_20 
REMARK       I    between atoms: C_17  and  N_25 
REMARK    7  A    between atoms: N_25  and  C_32 
REMARK    8  A    between atoms: C_26  and  O_27 
ROOT
HETATM    1  C   UNL     1     -42.376 -49.939  12.982  1.00  0.00     0.122 A 
HETATM    2  N   UNL     1     -43.214 -51.169  14.612  1.00  0.00    -0.326 N 
HETATM    3  C   UNL     1     -42.403 -51.225  13.500  1.00  0.00     0.140 A 
HETATM    4  N   UNL     1     -43.120 -49.094  13.795  1.00  0.00    -0.346 N 
ATOM      5  HN  UNL     1     -43.277 -48.095  13.668  1.00  0.00     0.167 HD
HETATM    6  C   UNL     1     -41.629 -49.717  11.790  1.00  0.00     0.135 A 
HETATM    7  C   UNL     1     -43.579 -49.856  14.763  1.00  0.00     0.185 A 
HETATM    8  N   UNL     1     -41.804 -52.319  12.993  1.00  0.00    -0.336 N 
ATOM      9  HN  UNL     1     -41.864 -53.254  13.398  1.00  0.00     0.168 HD
HETATM   10  N   UNL     1     -40.991 -50.810  11.273  1.00  0.00    -0.337 N 
ATOM     11  HN  UNL     1     -40.422 -50.718  10.431  1.00  0.00     0.168 HD
HETATM   12  C   UNL     1     -41.114 -52.011  11.877  1.00  0.00     0.183 A 
ENDROOT
BRANCH   6  13
HETATM   13  N   UNL     1     -41.461 -48.466  11.177  1.00  0.00    -0.362 N 
HETATM   14  C   UNL     1     -42.681 -47.851  10.629  1.00  0.00     0.154 C 
HETATM   15  C   UNL     1     -42.304 -46.636   9.741  1.00  0.00     0.293 C 
HETATM   16  N   UNL     1     -41.445 -45.601  10.382  1.00  0.00     0.100 N 
HETATM   17  C   UNL     1     -40.273 -46.295  10.979  1.00  0.00     0.293 C 
HETATM   18  C   UNL     1     -40.585 -47.519  11.886  1.00  0.00     0.154 C 
BRANCH  16  19
HETATM   19  C   UNL     1     -42.172 -44.842  11.421  1.00  0.00     0.374 C 
BRANCH  19  20
HETATM   20  C   UNL     1     -42.582 -43.452  10.928  1.00  0.00     0.246 C 
HETATM   21  O   UNL     1     -43.504 -43.292  10.137  1.00  0.00    -0.272 OA
HETATM   22  N   UNL     1     -41.851 -42.416  11.471  1.00  0.00    -0.360 N 
HETATM   23  H   UNL     1     -40.983 -42.674  11.931  1.00  0.00     0.162 HD
BRANCH  22  24
HETATM   24  C   UNL     1     -42.074 -41.042  11.081  1.00  0.00     0.118 C 
HETATM   25  C   UNL     1     -41.083 -40.100  11.741  1.00  0.00     0.026 C 
ENDBRANCH  22  24
ENDBRANCH  19  20
ENDBRANCH  16  19
ENDBRANCH   6  13
BRANCH   2  26
HETATM   26  C   UNL     1     -43.621 -52.285  15.467  1.00  0.00     0.143 C 
BRANCH  26  27
HETATM   27  C   UNL     1     -45.099 -52.772  15.254  1.00  0.00     0.001 C 
HETATM   28  C   UNL     1     -45.125 -54.289  14.950  1.00  0.00     0.039 C 
HETATM   29  C   UNL     1     -44.659 -54.582  13.525  1.00  0.00     0.168 C 
HETATM   30  O   UNL     1     -45.561 -53.980  12.604  1.00  0.00    -0.391 OA
HETATM   31  C   UNL     1     -45.529 -52.561  12.670  1.00  0.00     0.168 C 
HETATM   32  C   UNL     1     -45.821 -52.044  14.075  1.00  0.00     0.039 C 
BRANCH  27  33
HETATM   33  C   UNL     1     -45.930 -52.437  16.519  1.00  0.00     0.175 C 
BRANCH  33  34
HETATM   34  O   UNL     1     -47.236 -52.001  16.149  1.00  0.00    -0.400 OA
HETATM   35  H   UNL     1     -47.837 -52.772  16.216  1.00  0.00     0.209 HD
ENDBRANCH  33  34
ENDBRANCH  27  33
ENDBRANCH  26  27
ENDBRANCH   2  26
TORSDOF 8
ENDMDL
MODEL 6
REMARK VINA RESULT:      -6.3      1.832      2.855
REMARK  8 active torsions:
REMARK  status: ('A' for Active; 'I' for Inactive)
REMARK    1  A    between atoms: N_2  and  C_13 
REMARK    2  A    between atoms: C_6  and  N_8 
REMARK    3  A    between atoms: C_13  and  C_15 
REMARK    4  A    between atoms: N_14  and  C_20 
REMARK    5  A    between atoms: C_15  and  C_26 
REMARK    6  A    between atoms: C_17  and  C_20 
REMARK       I    between atoms: C_17  and  N_25 
REMARK    7  A    between atoms: N_25  and  C_32 
REMARK    8  A    between atoms: C_26  and  O_27 
ROOT
HETATM    1  C   UNL     1     -41.233 -49.390  11.584  1.00  0.00     0.122 A 
HETATM    2  N   UNL     1     -41.276 -47.259  11.013  1.00  0.00    -0.326 N 
HETATM    3  C   UNL     1     -40.422 -48.300  11.307  1.00  0.00     0.140 A 
HETATM    4  N   UNL     1     -42.564 -49.036  11.415  1.00  0.00    -0.346 N 
ATOM      5  HN  UNL     1     -43.383 -49.630  11.546  1.00  0.00     0.167 HD
HETATM    6  C   UNL     1     -40.601 -50.610  11.960  1.00  0.00     0.135 A 
HETATM    7  C   UNL     1     -42.546 -47.773  11.053  1.00  0.00     0.185 A 
HETATM    8  N   UNL     1     -39.078 -48.250  11.361  1.00  0.00    -0.336 N 
ATOM      9  HN  UNL     1     -38.520 -47.419  11.164  1.00  0.00     0.168 HD
HETATM   10  N   UNL     1     -39.234 -50.589  11.996  1.00  0.00    -0.337 N 
ATOM     11  HN  UNL     1     -38.717 -51.433  12.238  1.00  0.00     0.168 HD
HETATM   12  C   UNL     1     -38.570 -49.448  11.711  1.00  0.00     0.183 A 
ENDROOT
BRANCH   6  13
HETATM   13  N   UNL     1     -41.279 -51.811  12.218  1.00  0.00    -0.362 N 
HETATM   14  C   UNL     1     -40.496 -52.858  12.896  1.00  0.00     0.154 C 
HETATM   15  C   UNL     1     -41.267 -54.204  12.853  1.00  0.00     0.293 C 
HETATM   16  N   UNL     1     -42.660 -54.174  13.379  1.00  0.00     0.100 N 
HETATM   17  C   UNL     1     -43.372 -53.052  12.712  1.00  0.00     0.293 C 
HETATM   18  C   UNL     1     -42.652 -51.674  12.728  1.00  0.00     0.154 C 
BRANCH  16  19
HETATM   19  C   UNL     1     -42.694 -53.998  14.847  1.00  0.00     0.374 C 
BRANCH  19  20
HETATM   20  C   UNL     1     -42.368 -55.300  15.583  1.00  0.00     0.246 C 
HETATM   21  O   UNL     1     -43.142 -56.250  15.592  1.00  0.00    -0.272 OA
HETATM   22  N   UNL     1     -41.132 -55.314  16.195  1.00  0.00    -0.360 N 
HETATM   23  H   UNL     1     -40.680 -54.413  16.312  1.00  0.00     0.162 HD
BRANCH  22  24
HETATM   24  C   UNL     1     -40.682 -56.446  16.974  1.00  0.00     0.118 C 
HETATM   25  C   UNL     1     -39.731 -56.028  18.081  1.00  0.00     0.026 C 
ENDBRANCH  22  24
ENDBRANCH  19  20
ENDBRANCH  16  19
ENDBRANCH   6  13
BRANCH   2  26
HETATM   26  C   UNL     1     -40.911 -45.871  10.726  1.00  0.00     0.143 C 
BRANCH  26  27
HETATM   27  C   UNL     1     -41.225 -44.854  11.881  1.00  0.00     0.001 C 
HETATM   28  C   UNL     1     -40.162 -43.730  11.908  1.00  0.00     0.039 C 
HETATM   29  C   UNL     1     -38.840 -44.225  12.493  1.00  0.00     0.168 C 
HETATM   30  O   UNL     1     -39.041 -44.610  13.847  1.00  0.00    -0.391 OA
HETATM   31  C   UNL     1     -39.890 -45.743  13.962  1.00  0.00     0.168 C 
HETATM   32  C   UNL     1     -41.243 -45.519  13.295  1.00  0.00     0.039 C 
BRANCH  27  33
HETATM   33  C   UNL     1     -42.649 -44.277  11.675  1.00  0.00     0.175 C 
BRANCH  33  34
HETATM   34  O   UNL     1     -43.000 -44.316  10.294  1.00  0.00    -0.400 OA
HETATM   35  H   UNL     1     -43.219 -45.245  10.069  1.00  0.00     0.209 HD
ENDBRANCH  33  34
ENDBRANCH  27  33
ENDBRANCH  26  27
ENDBRANCH   2  26
TORSDOF 8
ENDMDL
MODEL 7
REMARK VINA RESULT:      -6.2      3.136      7.663
REMARK  8 active torsions:
REMARK  status: ('A' for Active; 'I' for Inactive)
REMARK    1  A    between atoms: N_2  and  C_13 
REMARK    2  A    between atoms: C_6  and  N_8 
REMARK    3  A    between atoms: C_13  and  C_15 
REMARK    4  A    between atoms: N_14  and  C_20 
REMARK    5  A    between atoms: C_15  and  C_26 
REMARK    6  A    between atoms: C_17  and  C_20 
REMARK       I    between atoms: C_17  and  N_25 
REMARK    7  A    between atoms: N_25  and  C_32 
REMARK    8  A    between atoms: C_26  and  O_27 
ROOT
HETATM    1  C   UNL     1     -39.838 -49.267  13.065  1.00  0.00     0.122 A 
HETATM    2  N   UNL     1     -39.372 -51.404  13.355  1.00  0.00    -0.326 N 
HETATM    3  C   UNL     1     -39.246 -50.164  13.941  1.00  0.00     0.140 A 
HETATM    4  N   UNL     1     -40.364 -49.955  11.979  1.00  0.00    -0.346 N 
ATOM      5  HN  UNL     1     -40.858 -49.561  11.179  1.00  0.00     0.167 HD
HETATM    6  C   UNL     1     -39.816 -47.885  13.411  1.00  0.00     0.135 A 
HETATM    7  C   UNL     1     -40.089 -51.220  12.202  1.00  0.00     0.185 A 
HETATM    8  N   UNL     1     -38.628 -49.880  15.103  1.00  0.00    -0.336 N 
ATOM      9  HN  UNL     1     -38.190 -50.571  15.711  1.00  0.00     0.168 HD
HETATM   10  N   UNL     1     -39.216 -47.577  14.600  1.00  0.00    -0.337 N 
ATOM     11  HN  UNL     1     -39.182 -46.609  14.919  1.00  0.00     0.168 HD
HETATM   12  C   UNL     1     -38.667 -48.556  15.352  1.00  0.00     0.183 A 
ENDROOT
BRANCH   6  13
HETATM   13  N   UNL     1     -40.418 -46.866  12.658  1.00  0.00    -0.362 N 
HETATM   14  C   UNL     1     -39.820 -46.605  11.338  1.00  0.00     0.154 C 
HETATM   15  C   UNL     1     -40.389 -45.284  10.754  1.00  0.00     0.293 C 
HETATM   16  N   UNL     1     -41.873 -45.192  10.679  1.00  0.00     0.100 N 
HETATM   17  C   UNL     1     -42.416 -45.540  12.019  1.00  0.00     0.293 C 
HETATM   18  C   UNL     1     -41.889 -46.857  12.655  1.00  0.00     0.154 C 
BRANCH  16  19
HETATM   19  C   UNL     1     -42.434 -46.095   9.651  1.00  0.00     0.374 C 
BRANCH  19  20
HETATM   20  C   UNL     1     -43.883 -45.740   9.311  1.00  0.00     0.246 C 
HETATM   21  O   UNL     1     -44.222 -44.595   9.036  1.00  0.00    -0.272 OA
HETATM   22  N   UNL     1     -44.748 -46.815   9.311  1.00  0.00    -0.360 N 
HETATM   23  H   UNL     1     -44.413 -47.660   9.764  1.00  0.00     0.162 HD
BRANCH  22  24
HETATM   24  C   UNL     1     -46.162 -46.653   9.057  1.00  0.00     0.118 C 
HETATM   25  C   UNL     1     -46.879 -47.989   8.980  1.00  0.00     0.026 C 
ENDBRANCH  22  24
ENDBRANCH  19  20
ENDBRANCH  16  19
ENDBRANCH   6  13
BRANCH   2  26
HETATM   26  C   UNL     1     -38.840 -52.675  13.852  1.00  0.00     0.143 C 
BRANCH  26  27
HETATM   27  C   UNL     1     -39.902 -53.614  14.529  1.00  0.00     0.001 C 
HETATM   28  C   UNL     1     -40.469 -52.947  15.805  1.00  0.00     0.039 C 
HETATM   29  C   UNL     1     -39.465 -52.996  16.955  1.00  0.00     0.168 C 
HETATM   30  O   UNL     1     -39.211 -54.353  17.298  1.00  0.00    -0.391 OA
HETATM   31  C   UNL     1     -38.545 -55.054  16.257  1.00  0.00     0.168 C 
HETATM   32  C   UNL     1     -39.318 -55.002  14.943  1.00  0.00     0.039 C 
BRANCH  27  33
HETATM   33  C   UNL     1     -41.027 -53.924  13.509  1.00  0.00     0.175 C 
BRANCH  33  34
HETATM   34  O   UNL     1     -40.485 -54.573  12.361  1.00  0.00    -0.400 OA
HETATM   35  H   UNL     1     -40.135 -53.878  11.764  1.00  0.00     0.209 HD
ENDBRANCH  33  34
ENDBRANCH  27  33
ENDBRANCH  26  27
ENDBRANCH   2  26
TORSDOF 8
ENDMDL
MODEL 8
REMARK VINA RESULT:      -6.2      2.483      8.399
REMARK  8 active torsions:
REMARK  status: ('A' for Active; 'I' for Inactive)
REMARK    1  A    between atoms: N_2  and  C_13 
REMARK    2  A    between atoms: C_6  and  N_8 
REMARK    3  A    between atoms: C_13  and  C_15 
REMARK    4  A    between atoms: N_14  and  C_20 
REMARK    5  A    between atoms: C_15  and  C_26 
REMARK    6  A    between atoms: C_17  and  C_20 
REMARK       I    between atoms: C_17  and  N_25 
REMARK    7  A    between atoms: N_25  and  C_32 
REMARK    8  A    between atoms: C_26  and  O_27 
ROOT
HETATM    1  C   UNL     1     -41.106 -49.381  13.136  1.00  0.00     0.122 A 
HETATM    2  N   UNL     1     -42.079 -51.114  14.095  1.00  0.00    -0.326 N 
HETATM    3  C   UNL     1     -40.861 -50.641  13.660  1.00  0.00     0.140 A 
HETATM    4  N   UNL     1     -42.449 -49.065  13.293  1.00  0.00    -0.346 N 
ATOM      5  HN  UNL     1     -42.919 -48.206  13.006  1.00  0.00     0.167 HD
HETATM    6  C   UNL     1     -40.008 -48.669  12.574  1.00  0.00     0.135 A 
HETATM    7  C   UNL     1     -42.986 -50.107  13.887  1.00  0.00     0.185 A 
HETATM    8  N   UNL     1     -39.684 -51.294  13.693  1.00  0.00    -0.336 N 
ATOM      9  HN  UNL     1     -39.551 -52.231  14.074  1.00  0.00     0.168 HD
HETATM   10  N   UNL     1     -38.798 -49.303  12.620  1.00  0.00    -0.337 N 
ATOM     11  HN  UNL     1     -37.966 -48.842  12.253  1.00  0.00     0.168 HD
HETATM   12  C   UNL     1     -38.705 -50.541  13.152  1.00  0.00     0.183 A 
ENDROOT
BRANCH   6  13
HETATM   13  N   UNL     1     -40.085 -47.367  12.056  1.00  0.00    -0.362 N 
HETATM   14  C   UNL     1     -41.053 -47.166  10.965  1.00  0.00     0.154 C 
HETATM   15  C   UNL     1     -40.824 -45.780  10.306  1.00  0.00     0.293 C 
HETATM   16  N   UNL     1     -40.832 -44.611  11.229  1.00  0.00     0.100 N 
HETATM   17  C   UNL     1     -39.895 -44.909  12.344  1.00  0.00     0.293 C 
HETATM   18  C   UNL     1     -40.078 -46.282  13.050  1.00  0.00     0.154 C 
BRANCH  16  19
HETATM   19  C   UNL     1     -42.184 -44.333  11.760  1.00  0.00     0.374 C 
BRANCH  19  20
HETATM   20  C   UNL     1     -42.624 -42.895  11.471  1.00  0.00     0.246 C 
HETATM   21  O   UNL     1     -42.678 -42.452  10.331  1.00  0.00    -0.272 OA
HETATM   22  N   UNL     1     -42.978 -42.172  12.592  1.00  0.00    -0.360 N 
HETATM   23  H   UNL     1     -42.685 -42.558  13.484  1.00  0.00     0.162 HD
BRANCH  22  24
HETATM   24  C   UNL     1     -43.373 -40.784  12.507  1.00  0.00     0.118 C 
HETATM   25  C   UNL     1     -44.877 -40.633  12.362  1.00  0.00     0.026 C 
ENDBRANCH  22  24
ENDBRANCH  19  20
ENDBRANCH  16  19
ENDBRANCH   6  13
BRANCH   2  26
HETATM   26  C   UNL     1     -42.365 -52.434  14.660  1.00  0.00     0.143 C 
BRANCH  26  27
HETATM   27  C   UNL     1     -42.477 -53.592  13.604  1.00  0.00     0.001 C 
HETATM   28  C   UNL     1     -43.238 -53.100  12.349  1.00  0.00     0.039 C 
HETATM   29  C   UNL     1     -44.738 -52.986  12.614  1.00  0.00     0.168 C 
HETATM   30  O   UNL     1     -45.260 -54.275  12.912  1.00  0.00    -0.391 OA
HETATM   31  C   UNL     1     -44.754 -54.790  14.135  1.00  0.00     0.168 C 
HETATM   32  C   UNL     1     -43.230 -54.848  14.148  1.00  0.00     0.039 C 
BRANCH  27  33
HETATM   33  C   UNL     1     -41.053 -54.086  13.240  1.00  0.00     0.175 C 
BRANCH  33  34
HETATM   34  O   UNL     1     -40.700 -53.647  11.930  1.00  0.00    -0.400 OA
HETATM   35  H   UNL     1     -41.349 -52.964  11.661  1.00  0.00     0.209 HD
ENDBRANCH  33  34
ENDBRANCH  27  33
ENDBRANCH  26  27
ENDBRANCH   2  26
TORSDOF 8
ENDMDL
MODEL 9
REMARK VINA RESULT:      -6.1      2.492      7.957
REMARK  8 active torsions:
REMARK  status: ('A' for Active; 'I' for Inactive)
REMARK    1  A    between atoms: N_2  and  C_13 
REMARK    2  A    between atoms: C_6  and  N_8 
REMARK    3  A    between atoms: C_13  and  C_15 
REMARK    4  A    between atoms: N_14  and  C_20 
REMARK    5  A    between atoms: C_15  and  C_26 
REMARK    6  A    between atoms: C_17  and  C_20 
REMARK       I    between atoms: C_17  and  N_25 
REMARK    7  A    between atoms: N_25  and  C_32 
REMARK    8  A    between atoms: C_26  and  O_27 
ROOT
HETATM    1  C   UNL     1     -40.128 -49.882  14.330  1.00  0.00     0.122 A 
HETATM    2  N   UNL     1     -40.684 -51.734  15.393  1.00  0.00    -0.326 N 
HETATM    3  C   UNL     1     -39.619 -50.905  15.115  1.00  0.00     0.140 A 
HETATM    4  N   UNL     1     -41.497 -50.055  14.169  1.00  0.00    -0.346 N 
ATOM      5  HN  UNL     1     -42.137 -49.459  13.645  1.00  0.00     0.167 HD
HETATM    6  C   UNL     1     -39.222 -48.888  13.862  1.00  0.00     0.135 A 
HETATM    7  C   UNL     1     -41.790 -51.149  14.835  1.00  0.00     0.185 A 
HETATM    8  N   UNL     1     -38.339 -51.083  15.490  1.00  0.00    -0.336 N 
ATOM      9  HN  UNL     1     -38.004 -51.862  16.057  1.00  0.00     0.168 HD
HETATM   10  N   UNL     1     -37.920 -49.036  14.253  1.00  0.00    -0.337 N 
ATOM     11  HN  UNL     1     -37.221 -48.349  13.970  1.00  0.00     0.168 HD
HETATM   12  C   UNL     1     -37.560 -50.092  15.013  1.00  0.00     0.183 A 
ENDROOT
BRANCH   6  13
HETATM   13  N   UNL     1     -39.592 -47.765  13.106  1.00  0.00    -0.362 N 
HETATM   14  C   UNL     1     -40.136 -48.043  11.767  1.00  0.00     0.154 C 
HETATM   15  C   UNL     1     -40.224 -46.727  10.950  1.00  0.00     0.293 C 
HETATM   16  N   UNL     1     -40.973 -45.611  11.592  1.00  0.00     0.100 N 
HETATM   17  C   UNL     1     -40.428 -45.432  12.964  1.00  0.00     0.293 C 
HETATM   18  C   UNL     1     -40.320 -46.715  13.836  1.00  0.00     0.154 C 
BRANCH  16  19
HETATM   19  C   UNL     1     -42.426 -45.880  11.652  1.00  0.00     0.374 C 
BRANCH  19  20
HETATM   20  C   UNL     1     -43.039 -46.001  10.255  1.00  0.00     0.246 C 
HETATM   21  O   UNL     1     -42.602 -45.371   9.299  1.00  0.00    -0.272 OA
HETATM   22  N   UNL     1     -44.088 -46.893  10.169  1.00  0.00    -0.360 N 
HETATM   23  H   UNL     1     -44.503 -47.182  11.049  1.00  0.00     0.162 HD
BRANCH  22  24
HETATM   24  C   UNL     1     -44.814 -47.096   8.935  1.00  0.00     0.118 C 
HETATM   25  C   UNL     1     -46.062 -47.934   9.146  1.00  0.00     0.026 C 
ENDBRANCH  22  24
ENDBRANCH  19  20
ENDBRANCH  16  19
ENDBRANCH   6  13
BRANCH   2  26
HETATM   26  C   UNL     1     -40.650 -52.999  16.129  1.00  0.00     0.143 C 
BRANCH  26  27
HETATM   27  C   UNL     1     -40.641 -54.285  15.228  1.00  0.00     0.001 C 
HETATM   28  C   UNL     1     -41.957 -54.381  14.418  1.00  0.00     0.039 C 
HETATM   29  C   UNL     1     -43.126 -54.818  15.300  1.00  0.00     0.168 C 
HETATM   30  O   UNL     1     -42.873 -56.126  15.798  1.00  0.00    -0.391 OA
HETATM   31  C   UNL     1     -41.767 -56.157  16.688  1.00  0.00     0.168 C 
HETATM   32  C   UNL     1     -40.497 -55.608  16.047  1.00  0.00     0.039 C 
BRANCH  27  33
HETATM   33  C   UNL     1     -39.407 -54.239  14.291  1.00  0.00     0.175 C 
BRANCH  33  34
HETATM   34  O   UNL     1     -39.817 -54.364  12.931  1.00  0.00    -0.400 OA
HETATM   35  H   UNL     1     -40.775 -54.161  12.890  1.00  0.00     0.209 HD
ENDBRANCH  33  34
ENDBRANCH  27  33
ENDBRANCH  26  27
ENDBRANCH   2  26
TORSDOF 8
ENDMDL
