MODEL 1
REMARK VINA RESULT:      -6.2      0.000      0.000
REMARK  3 active torsions:
REMARK  status: ('A' for Active; 'I' for Inactive)
REMARK    1  A    between atoms: O_2  and  C_3 
REMARK    2  A    between atoms: C_6  and  N_7 
REMARK       I    between atoms: N_7  and  C_8 
REMARK       I    between atoms: C_8  and  N_10 
REMARK    3  A    between atoms: N_10  and  C_11 
ROOT
HETATM    1  N   UNL     1     -43.967 -50.284  12.522  1.00  0.00    -0.337 N 
HETATM    2  C   UNL     1     -42.944 -49.363  12.614  1.00  0.00     0.321 C 
HETATM    3  O   UNL     1     -42.602 -48.881  13.690  1.00  0.00    -0.247 OA
HETATM    4  N   UNL     1     -42.354 -49.097  11.399  1.00  0.00    -0.306 N 
HETATM    5  H   UNL     1     -44.421 -50.361  11.624  1.00  0.00     0.164 HD
HETATM    6  H   UNL     1     -42.486 -49.751  10.643  1.00  0.00     0.171 HD
ENDROOT
BRANCH   1   7
HETATM    7  C   UNL     1     -44.600 -50.791  13.764  1.00  0.00     0.099 C 
HETATM    8  C   UNL     1     -43.845 -52.004  14.352  1.00  0.00     0.064 C 
HETATM    9  C   UNL     1     -44.904 -52.956  13.716  1.00  0.00     0.067 C 
HETATM   10  C   UNL     1     -44.389 -53.539  12.393  1.00  0.00     0.047 C 
HETATM   11  C   UNL     1     -45.870 -51.693  13.640  1.00  0.00     0.004 C 
HETATM   12  C   UNL     1     -46.730 -51.571  12.384  1.00  0.00     0.020 C 
HETATM   13  C   UNL     1     -46.761 -51.452  14.877  1.00  0.00     0.020 C 
BRANCH   9  14
HETATM   14  O   UNL     1     -45.294 -54.024  14.622  1.00  0.00    -0.384 OA
HETATM   15  C   UNL     1     -45.678 -55.282  14.088  1.00  0.00     0.202 C 
ENDBRANCH   9  14
ENDBRANCH   1   7
BRANCH   4  16
HETATM   16  C   UNL     1     -41.343 -48.159  11.263  1.00  0.00     0.070 A 
HETATM   17  C   UNL     1     -39.964 -48.243  11.569  1.00  0.00     0.138 A 
HETATM   18  N   UNL     1     -39.309 -47.116  11.282  1.00  0.00    -0.308 N 
HETATM   19  N   UNL     1     -40.262 -46.318  10.777  1.00  0.00    -0.306 N 
ATOM     20  HN  UNL     1     -38.319 -46.909  11.415  1.00  0.00     0.186 HD
HETATM   21  C   UNL     1     -39.906 -45.013  10.280  1.00  0.00     0.177 C 
HETATM   22  C   UNL     1     -41.508 -46.886  10.772  1.00  0.00     0.140 A 
ENDBRANCH   4  16
TORSDOF 3
ENDMDL
MODEL 2
REMARK VINA RESULT:      -5.4      1.614      2.083
REMARK  3 active torsions:
REMARK  status: ('A' for Active; 'I' for Inactive)
REMARK    1  A    between atoms: O_2  and  C_3 
REMARK    2  A    between atoms: C_6  and  N_7 
REMARK       I    between atoms: N_7  and  C_8 
REMARK       I    between atoms: C_8  and  N_10 
REMARK    3  A    between atoms: N_10  and  C_11 
ROOT
HETATM    1  N   UNL     1     -42.891 -51.296  12.715  1.00  0.00    -0.337 N 
HETATM    2  C   UNL     1     -42.740 -49.952  12.446  1.00  0.00     0.321 C 
HETATM    3  O   UNL     1     -43.297 -49.091  13.120  1.00  0.00    -0.247 OA
HETATM    4  N   UNL     1     -41.889 -49.711  11.392  1.00  0.00    -0.306 N 
HETATM    5  H   UNL     1     -42.719 -51.930  11.949  1.00  0.00     0.164 HD
HETATM    6  H   UNL     1     -41.252 -50.439  11.108  1.00  0.00     0.171 HD
ENDROOT
BRANCH   1   7
HETATM    7  C   UNL     1     -43.654 -51.714  13.918  1.00  0.00     0.099 C 
HETATM    8  C   UNL     1     -42.729 -52.133  15.082  1.00  0.00     0.064 C 
HETATM    9  C   UNL     1     -42.963 -53.630  14.715  1.00  0.00     0.067 C 
HETATM   10  C   UNL     1     -41.803 -54.174  13.871  1.00  0.00     0.047 C 
HETATM   11  C   UNL     1     -44.273 -53.149  13.948  1.00  0.00     0.004 C 
HETATM   12  C   UNL     1     -44.574 -53.840  12.619  1.00  0.00     0.020 C 
HETATM   13  C   UNL     1     -45.567 -53.103  14.788  1.00  0.00     0.020 C 
BRANCH   9  14
HETATM   14  O   UNL     1     -43.164 -54.457  15.893  1.00  0.00    -0.384 OA
HETATM   15  C   UNL     1     -42.348 -55.604  16.082  1.00  0.00     0.202 C 
ENDBRANCH   9  14
ENDBRANCH   1   7
BRANCH   4  16
HETATM   16  C   UNL     1     -41.644 -48.430  10.924  1.00  0.00     0.070 A 
HETATM   17  C   UNL     1     -42.373 -47.629  10.012  1.00  0.00     0.138 A 
HETATM   18  N   UNL     1     -41.811 -46.433   9.823  1.00  0.00    -0.308 N 
HETATM   19  N   UNL     1     -40.736 -46.460  10.625  1.00  0.00    -0.306 N 
ATOM     20  HN  UNL     1     -42.124 -45.678   9.214  1.00  0.00     0.186 HD
HETATM   21  C   UNL     1     -39.906 -45.287  10.739  1.00  0.00     0.177 C 
HETATM   22  C   UNL     1     -40.573 -47.649  11.285  1.00  0.00     0.140 A 
ENDBRANCH   4  16
TORSDOF 3
ENDMDL
MODEL 3
REMARK VINA RESULT:      -5.3      1.282      1.900
REMARK  3 active torsions:
REMARK  status: ('A' for Active; 'I' for Inactive)
REMARK    1  A    between atoms: O_2  and  C_3 
REMARK    2  A    between atoms: C_6  and  N_7 
REMARK       I    between atoms: N_7  and  C_8 
REMARK       I    between atoms: C_8  and  N_10 
REMARK    3  A    between atoms: N_10  and  C_11 
ROOT
HETATM    1  N   UNL     1     -42.217 -51.094  12.185  1.00  0.00    -0.337 N 
HETATM    2  C   UNL     1     -41.935 -49.743  12.163  1.00  0.00     0.321 C 
HETATM    3  O   UNL     1     -41.808 -49.093  13.195  1.00  0.00    -0.247 OA
HETATM    4  N   UNL     1     -41.783 -49.251  10.887  1.00  0.00    -0.306 N 
HETATM    5  H   UNL     1     -42.651 -51.475  11.358  1.00  0.00     0.164 HD
HETATM    6  H   UNL     1     -41.599 -49.899  10.137  1.00  0.00     0.171 HD
ENDROOT
BRANCH   1   7
HETATM    7  C   UNL     1     -42.259 -51.805  13.487  1.00  0.00     0.099 C 
HETATM    8  C   UNL     1     -42.221 -53.340  13.317  1.00  0.00     0.064 C 
HETATM    9  C   UNL     1     -43.767 -53.389  13.519  1.00  0.00     0.067 C 
HETATM   10  C   UNL     1     -44.492 -53.464  12.169  1.00  0.00     0.047 C 
HETATM   11  C   UNL     1     -43.637 -51.960  14.209  1.00  0.00     0.004 C 
HETATM   12  C   UNL     1     -44.740 -50.951  13.896  1.00  0.00     0.020 C 
HETATM   13  C   UNL     1     -43.389 -51.967  15.733  1.00  0.00     0.020 C 
BRANCH   9  14
HETATM   14  O   UNL     1     -44.171 -54.492  14.375  1.00  0.00    -0.384 OA
HETATM   15  C   UNL     1     -45.364 -55.200  14.075  1.00  0.00     0.202 C 
ENDBRANCH   9  14
ENDBRANCH   1   7
BRANCH   4  16
HETATM   16  C   UNL     1     -41.550 -47.908  10.642  1.00  0.00     0.070 A 
HETATM   17  C   UNL     1     -42.363 -46.933  10.014  1.00  0.00     0.138 A 
HETATM   18  N   UNL     1     -41.781 -45.732   9.978  1.00  0.00    -0.308 N 
HETATM   19  N   UNL     1     -40.608 -45.932  10.596  1.00  0.00    -0.306 N 
ATOM     20  HN  UNL     1     -42.143 -44.868   9.575  1.00  0.00     0.186 HD
HETATM   21  C   UNL     1     -39.721 -44.816  10.812  1.00  0.00     0.177 C 
HETATM   22  C   UNL     1     -40.406 -47.228  10.987  1.00  0.00     0.140 A 
ENDBRANCH   4  16
TORSDOF 3
ENDMDL
MODEL 4
REMARK VINA RESULT:      -5.1      2.802      3.814
REMARK  3 active torsions:
REMARK  status: ('A' for Active; 'I' for Inactive)
REMARK    1  A    between atoms: O_2  and  C_3 
REMARK    2  A    between atoms: C_6  and  N_7 
REMARK       I    between atoms: N_7  and  C_8 
REMARK       I    between atoms: C_8  and  N_10 
REMARK    3  A    between atoms: N_10  and  C_11 
ROOT
HETATM    1  N   UNL     1     -41.987 -51.666  12.684  1.00  0.00    -0.337 N 
HETATM    2  C   UNL     1     -41.448 -50.603  11.989  1.00  0.00     0.321 C 
HETATM    3  O   UNL     1     -40.271 -50.585  11.644  1.00  0.00    -0.247 OA
HETATM    4  N   UNL     1     -42.375 -49.624  11.712  1.00  0.00    -0.306 N 
HETATM    5  H   UNL     1     -42.813 -51.474  13.230  1.00  0.00     0.164 HD
HETATM    6  H   UNL     1     -43.355 -49.857  11.757  1.00  0.00     0.171 HD
ENDROOT
BRANCH   1   7
HETATM    7  C   UNL     1     -41.154 -52.871  12.924  1.00  0.00     0.099 C 
HETATM    8  C   UNL     1     -42.008 -54.117  13.251  1.00  0.00     0.064 C 
HETATM    9  C   UNL     1     -41.711 -53.909  14.767  1.00  0.00     0.067 C 
HETATM   10  C   UNL     1     -42.875 -53.187  15.458  1.00  0.00     0.047 C 
HETATM   11  C   UNL     1     -40.461 -53.033  14.316  1.00  0.00     0.004 C 
HETATM   12  C   UNL     1     -40.179 -51.778  15.139  1.00  0.00     0.020 C 
HETATM   13  C   UNL     1     -39.137 -53.802  14.113  1.00  0.00     0.020 C 
BRANCH   9  14
HETATM   14  O   UNL     1     -41.420 -55.162  15.444  1.00  0.00    -0.384 OA
HETATM   15  C   UNL     1     -42.234 -55.567  16.535  1.00  0.00     0.202 C 
ENDBRANCH   9  14
ENDBRANCH   1   7
BRANCH   4  16
HETATM   16  C   UNL     1     -42.028 -48.446  11.071  1.00  0.00     0.070 A 
HETATM   17  C   UNL     1     -42.506 -47.878   9.865  1.00  0.00     0.138 A 
HETATM   18  N   UNL     1     -41.923 -46.711   9.584  1.00  0.00    -0.308 N 
HETATM   19  N   UNL     1     -41.086 -46.521  10.616  1.00  0.00    -0.306 N 
ATOM     20  HN  UNL     1     -42.076 -46.107   8.778  1.00  0.00     0.186 HD
HETATM   21  C   UNL     1     -40.321 -45.303  10.694  1.00  0.00     0.177 C 
HETATM   22  C   UNL     1     -41.088 -47.549  11.521  1.00  0.00     0.140 A 
ENDBRANCH   4  16
TORSDOF 3
ENDMDL
MODEL 5
REMARK VINA RESULT:      -4.9      4.304      5.347
REMARK  3 active torsions:
REMARK  status: ('A' for Active; 'I' for Inactive)
REMARK    1  A    between atoms: O_2  and  C_3 
REMARK    2  A    between atoms: C_6  and  N_7 
REMARK       I    between atoms: N_7  and  C_8 
REMARK       I    between atoms: C_8  and  N_10 
REMARK    3  A    between atoms: N_10  and  C_11 
ROOT
HETATM    1  N   UNL     1     -39.388 -48.465  11.650  1.00  0.00    -0.337 N 
HETATM    2  C   UNL     1     -39.654 -47.131  11.881  1.00  0.00     0.321 C 
HETATM    3  O   UNL     1     -39.271 -46.561  12.897  1.00  0.00    -0.247 OA
HETATM    4  N   UNL     1     -40.343 -46.539  10.847  1.00  0.00    -0.306 N 
HETATM    5  H   UNL     1     -40.007 -48.943  11.013  1.00  0.00     0.164 HD
HETATM    6  H   UNL     1     -40.341 -46.988   9.944  1.00  0.00     0.171 HD
ENDROOT
BRANCH   1   7
HETATM    7  C   UNL     1     -38.521 -49.205  12.600  1.00  0.00     0.099 C 
HETATM    8  C   UNL     1     -38.090 -50.582  12.047  1.00  0.00     0.064 C 
HETATM    9  C   UNL     1     -39.197 -51.263  12.909  1.00  0.00     0.067 C 
HETATM   10  C   UNL     1     -40.447 -51.547  12.066  1.00  0.00     0.047 C 
HETATM   11  C   UNL     1     -39.193 -49.945  13.803  1.00  0.00     0.004 C 
HETATM   12  C   UNL     1     -40.553 -49.452  14.292  1.00  0.00     0.020 C 
HETATM   13  C   UNL     1     -38.206 -49.939  14.990  1.00  0.00     0.020 C 
BRANCH   9  14
HETATM   14  O   UNL     1     -38.725 -52.483  13.543  1.00  0.00    -0.384 OA
HETATM   15  C   UNL     1     -39.662 -53.486  13.901  1.00  0.00     0.202 C 
ENDBRANCH   9  14
ENDBRANCH   1   7
BRANCH   4  16
HETATM   16  C   UNL     1     -40.757 -45.218  10.902  1.00  0.00     0.070 A 
HETATM   17  C   UNL     1     -40.026 -44.016  10.743  1.00  0.00     0.138 A 
HETATM   18  N   UNL     1     -40.796 -42.932  10.859  1.00  0.00    -0.308 N 
HETATM   19  N   UNL     1     -42.020 -43.437  11.074  1.00  0.00    -0.306 N 
ATOM     20  HN  UNL     1     -40.520 -41.952  10.799  1.00  0.00     0.186 HD
HETATM   21  C   UNL     1     -43.147 -42.545  11.181  1.00  0.00     0.177 C 
HETATM   22  C   UNL     1     -42.046 -44.805  11.140  1.00  0.00     0.140 A 
ENDBRANCH   4  16
TORSDOF 3
ENDMDL
MODEL 6
REMARK VINA RESULT:      -4.9      3.208      7.345
REMARK  3 active torsions:
REMARK  status: ('A' for Active; 'I' for Inactive)
REMARK    1  A    between atoms: O_2  and  C_3 
REMARK    2  A    between atoms: C_6  and  N_7 
REMARK       I    between atoms: N_7  and  C_8 
REMARK       I    between atoms: C_8  and  N_10 
REMARK    3  A    between atoms: N_10  and  C_11 
ROOT
HETATM    1  N   UNL     1     -41.822 -48.213  11.318  1.00  0.00    -0.337 N 
HETATM    2  C   UNL     1     -41.926 -49.376  12.053  1.00  0.00     0.321 C 
HETATM    3  O   UNL     1     -42.540 -49.417  13.115  1.00  0.00    -0.247 OA
HETATM    4  N   UNL     1     -41.313 -50.447  11.445  1.00  0.00    -0.306 N 
HETATM    5  H   UNL     1     -41.042 -48.153  10.681  1.00  0.00     0.164 HD
HETATM    6  H   UNL     1     -41.112 -50.395  10.458  1.00  0.00     0.171 HD
ENDROOT
BRANCH   1   7
HETATM    7  C   UNL     1     -42.562 -47.006  11.763  1.00  0.00     0.099 C 
HETATM    8  C   UNL     1     -42.665 -45.940  10.649  1.00  0.00     0.064 C 
HETATM    9  C   UNL     1     -41.486 -45.158  11.303  1.00  0.00     0.067 C 
HETATM   10  C   UNL     1     -40.162 -45.472  10.593  1.00  0.00     0.047 C 
HETATM   11  C   UNL     1     -41.812 -45.953  12.643  1.00  0.00     0.004 C 
HETATM   12  C   UNL     1     -40.613 -46.416  13.468  1.00  0.00     0.020 C 
HETATM   13  C   UNL     1     -42.838 -45.290  13.587  1.00  0.00     0.020 C 
BRANCH   9  14
HETATM   14  O   UNL     1     -41.723 -43.724  11.321  1.00  0.00    -0.384 OA
HETATM   15  C   UNL     1     -40.615 -42.837  11.335  1.00  0.00     0.202 C 
ENDBRANCH   9  14
ENDBRANCH   1   7
BRANCH   4  16
HETATM   16  C   UNL     1     -41.254 -51.696  12.043  1.00  0.00     0.070 A 
HETATM   17  C   UNL     1     -42.190 -52.758  12.049  1.00  0.00     0.138 A 
HETATM   18  N   UNL     1     -41.755 -53.816  12.738  1.00  0.00    -0.308 N 
HETATM   19  N   UNL     1     -40.538 -53.439  13.157  1.00  0.00    -0.306 N 
ATOM     20  HN  UNL     1     -42.235 -54.700  12.907  1.00  0.00     0.186 HD
HETATM   21  C   UNL     1     -39.720 -54.373  13.890  1.00  0.00     0.177 C 
HETATM   22  C   UNL     1     -40.201 -52.163  12.793  1.00  0.00     0.140 A 
ENDBRANCH   4  16
TORSDOF 3
ENDMDL
MODEL 7
REMARK VINA RESULT:      -4.9      2.503      3.713
REMARK  3 active torsions:
REMARK  status: ('A' for Active; 'I' for Inactive)
REMARK    1  A    between atoms: O_2  and  C_3 
REMARK    2  A    between atoms: C_6  and  N_7 
REMARK       I    between atoms: N_7  and  C_8 
REMARK       I    between atoms: C_8  and  N_10 
REMARK    3  A    between atoms: N_10  and  C_11 
ROOT
HETATM    1  N   UNL     1     -44.046 -50.864  14.190  1.00  0.00    -0.337 N 
HETATM    2  C   UNL     1     -42.960 -51.128  13.382  1.00  0.00     0.321 C 
HETATM    3  O   UNL     1     -42.812 -52.216  12.833  1.00  0.00    -0.247 OA
HETATM    4  N   UNL     1     -42.121 -50.046  13.245  1.00  0.00    -0.306 N 
HETATM    5  H   UNL     1     -43.932 -50.126  14.869  1.00  0.00     0.164 HD
HETATM    6  H   UNL     1     -42.474 -49.128  13.470  1.00  0.00     0.171 HD
ENDROOT
BRANCH   1   7
HETATM    7  C   UNL     1     -45.122 -51.878  14.314  1.00  0.00     0.099 C 
HETATM    8  C   UNL     1     -46.499 -51.239  14.604  1.00  0.00     0.064 C 
HETATM    9  C   UNL     1     -46.331 -51.590  16.114  1.00  0.00     0.067 C 
HETATM   10  C   UNL     1     -45.831 -50.374  16.905  1.00  0.00     0.047 C 
HETATM   11  C   UNL     1     -45.253 -52.669  15.656  1.00  0.00     0.004 C 
HETATM   12  C   UNL     1     -44.015 -52.809  16.541  1.00  0.00     0.020 C 
HETATM   13  C   UNL     1     -45.800 -54.077  15.341  1.00  0.00     0.020 C 
BRANCH   9  14
HETATM   14  O   UNL     1     -47.561 -52.103  16.695  1.00  0.00    -0.384 OA
HETATM   15  C   UNL     1     -47.994 -51.604  17.952  1.00  0.00     0.202 C 
ENDBRANCH   9  14
ENDBRANCH   1   7
BRANCH   4  16
HETATM   16  C   UNL     1     -40.943 -50.118  12.520  1.00  0.00     0.070 A 
HETATM   17  C   UNL     1     -40.669 -49.776  11.173  1.00  0.00     0.138 A 
HETATM   18  N   UNL     1     -39.391 -49.982  10.845  1.00  0.00    -0.308 N 
HETATM   19  N   UNL     1     -38.844 -50.436  11.983  1.00  0.00    -0.306 N 
ATOM     20  HN  UNL     1     -38.939 -49.830   9.945  1.00  0.00     0.186 HD
HETATM   21  C   UNL     1     -37.429 -50.705  12.031  1.00  0.00     0.177 C 
HETATM   22  C   UNL     1     -39.740 -50.566  13.010  1.00  0.00     0.140 A 
ENDBRANCH   4  16
TORSDOF 3
ENDMDL
MODEL 8
REMARK VINA RESULT:      -4.9      2.714      7.480
REMARK  3 active torsions:
REMARK  status: ('A' for Active; 'I' for Inactive)
REMARK    1  A    between atoms: O_2  and  C_3 
REMARK    2  A    between atoms: C_6  and  N_7 
REMARK       I    between atoms: N_7  and  C_8 
REMARK       I    between atoms: C_8  and  N_10 
REMARK    3  A    between atoms: N_10  and  C_11 
ROOT
HETATM    1  N   UNL     1     -41.495 -48.111  11.879  1.00  0.00    -0.337 N 
HETATM    2  C   UNL     1     -41.541 -49.318  12.547  1.00  0.00     0.321 C 
HETATM    3  O   UNL     1     -41.327 -49.398  13.752  1.00  0.00    -0.247 OA
HETATM    4  N   UNL     1     -41.883 -50.368  11.727  1.00  0.00    -0.306 N 
HETATM    5  H   UNL     1     -41.324 -48.154  10.886  1.00  0.00     0.164 HD
HETATM    6  H   UNL     1     -42.333 -50.169  10.846  1.00  0.00     0.171 HD
ENDROOT
BRANCH   1   7
HETATM    7  C   UNL     1     -41.291 -46.862  12.653  1.00  0.00     0.099 C 
HETATM    8  C   UNL     1     -42.602 -46.062  12.828  1.00  0.00     0.064 C 
HETATM    9  C   UNL     1     -42.170 -45.121  11.663  1.00  0.00     0.067 C 
HETATM   10  C   UNL     1     -42.843 -45.536  10.348  1.00  0.00     0.047 C 
HETATM   11  C   UNL     1     -40.681 -45.622  11.922  1.00  0.00     0.004 C 
HETATM   12  C   UNL     1     -39.819 -45.858  10.684  1.00  0.00     0.020 C 
HETATM   13  C   UNL     1     -39.865 -44.806  12.948  1.00  0.00     0.020 C 
BRANCH   9  14
HETATM   14  O   UNL     1     -42.450 -43.725  11.956  1.00  0.00    -0.384 OA
HETATM   15  C   UNL     1     -43.069 -42.918  10.966  1.00  0.00     0.202 C 
ENDBRANCH   9  14
ENDBRANCH   1   7
BRANCH   4  16
HETATM   16  C   UNL     1     -41.931 -51.674  12.188  1.00  0.00     0.070 A 
HETATM   17  C   UNL     1     -40.976 -52.716  12.104  1.00  0.00     0.138 A 
HETATM   18  N   UNL     1     -41.397 -53.841  12.686  1.00  0.00    -0.308 N 
HETATM   19  N   UNL     1     -42.611 -53.516  13.157  1.00  0.00    -0.306 N 
ATOM     20  HN  UNL     1     -40.912 -54.735  12.756  1.00  0.00     0.186 HD
HETATM   21  C   UNL     1     -43.356 -54.483  13.924  1.00  0.00     0.177 C 
HETATM   22  C   UNL     1     -42.992 -52.236  12.858  1.00  0.00     0.140 A 
ENDBRANCH   4  16
TORSDOF 3
ENDMDL
MODEL 9
REMARK VINA RESULT:      -4.9      4.402      6.514
REMARK  3 active torsions:
REMARK  status: ('A' for Active; 'I' for Inactive)
REMARK    1  A    between atoms: O_2  and  C_3 
REMARK    2  A    between atoms: C_6  and  N_7 
REMARK       I    between atoms: N_7  and  C_8 
REMARK       I    between atoms: C_8  and  N_10 
REMARK    3  A    between atoms: N_10  and  C_11 
ROOT
HETATM    1  N   UNL     1     -40.358 -48.438  12.836  1.00  0.00    -0.337 N 
HETATM    2  C   UNL     1     -41.352 -48.678  11.909  1.00  0.00     0.321 C 
HETATM    3  O   UNL     1     -41.728 -49.815  11.644  1.00  0.00    -0.247 OA
HETATM    4  N   UNL     1     -41.871 -47.521  11.373  1.00  0.00    -0.306 N 
HETATM    5  H   UNL     1     -39.863 -47.564  12.748  1.00  0.00     0.164 HD
HETATM    6  H   UNL     1     -41.725 -46.652  11.864  1.00  0.00     0.171 HD
ENDROOT
BRANCH   1   7
HETATM    7  C   UNL     1     -39.806 -49.574  13.616  1.00  0.00     0.099 C 
HETATM    8  C   UNL     1     -39.366 -49.150  15.035  1.00  0.00     0.064 C 
HETATM    9  C   UNL     1     -37.887 -49.085  14.545  1.00  0.00     0.067 C 
HETATM   10  C   UNL     1     -37.484 -47.642  14.214  1.00  0.00     0.047 C 
HETATM   11  C   UNL     1     -38.334 -50.023  13.339  1.00  0.00     0.004 C 
HETATM   12  C   UNL     1     -37.723 -49.712  11.974  1.00  0.00     0.020 C 
HETATM   13  C   UNL     1     -38.233 -51.542  13.593  1.00  0.00     0.020 C 
BRANCH   9  14
HETATM   14  O   UNL     1     -36.965 -49.660  15.511  1.00  0.00    -0.384 OA
HETATM   15  C   UNL     1     -36.046 -48.811  16.182  1.00  0.00     0.202 C 
ENDBRANCH   9  14
ENDBRANCH   1   7
BRANCH   4  16
HETATM   16  C   UNL     1     -42.840 -47.541  10.384  1.00  0.00     0.070 A 
HETATM   17  C   UNL     1     -42.718 -47.668   8.979  1.00  0.00     0.138 A 
HETATM   18  N   UNL     1     -43.901 -47.653   8.361  1.00  0.00    -0.308 N 
HETATM   19  N   UNL     1     -44.780 -47.536   9.368  1.00  0.00    -0.306 N 
ATOM     20  HN  UNL     1     -44.093 -47.716   7.362  1.00  0.00     0.186 HD
HETATM   21  C   UNL     1     -46.193 -47.558   9.083  1.00  0.00     0.177 C 
HETATM   22  C   UNL     1     -44.193 -47.434  10.601  1.00  0.00     0.140 A 
ENDBRANCH   4  16
TORSDOF 3
ENDMDL
