MODEL 1
REMARK VINA RESULT:      -6.2      0.000      0.000
REMARK  4 active torsions:
REMARK  status: ('A' for Active; 'I' for Inactive)
REMARK    1  A    between atoms: N_2  and  C_4 
REMARK    2  A    between atoms: C_4  and  C_5 
REMARK    3  A    between atoms: C_5  and  N_6 
REMARK       I    between atoms: N_6  and  C_7 
REMARK       I    between atoms: C_7  and  N_9 
REMARK    4  A    between atoms: N_9  and  C_10 
ROOT
HETATM    1  N   UNL     1     -40.553 -49.829  10.760  1.00  0.00    -0.340 N 
HETATM    2  C   UNL     1     -41.615 -48.989  10.890  1.00  0.00     0.321 C 
HETATM    3  O   UNL     1     -42.294 -48.859  11.892  1.00  0.00    -0.247 OA
HETATM    4  N   UNL     1     -41.838 -48.228   9.712  1.00  0.00    -0.293 N 
HETATM    5  H   UNL     1     -40.141 -50.050   9.867  1.00  0.00     0.164 HD
HETATM    6  H   UNL     1     -41.169 -48.291   8.960  1.00  0.00     0.172 HD
ENDROOT
BRANCH   1   7
HETATM    7  C   UNL     1     -40.173 -50.671  11.888  1.00  0.00     0.166 C 
BRANCH   7   8
HETATM    8  C   UNL     1     -39.067 -50.053  12.829  1.00  0.00     0.174 C 
HETATM    9  C   UNL     1     -38.085 -51.196  13.204  1.00  0.00     0.043 C 
HETATM   10  C   UNL     1     -36.996 -51.226  12.125  1.00  0.00     0.003 C 
HETATM   11  C   UNL     1     -37.232 -50.029  11.214  1.00  0.00     0.003 C 
HETATM   12  C   UNL     1     -38.144 -49.108  12.011  1.00  0.00     0.043 C 
BRANCH   8  13
HETATM   13  N   UNL     1     -39.724 -49.373  13.991  1.00  0.00     0.091 N 
HETATM   14  C   UNL     1     -39.250 -49.862  15.297  1.00  0.00     0.310 C 
HETATM   15  C   UNL     1     -39.578 -47.904  13.986  1.00  0.00     0.310 C 
ENDBRANCH   8  13
ENDBRANCH   7   8
ENDBRANCH   1   7
BRANCH   4  16
HETATM   16  C   UNL     1     -42.930 -47.371   9.577  1.00  0.00     0.127 A 
HETATM   17  C   UNL     1     -44.181 -47.667   9.084  1.00  0.00     0.076 A 
HETATM   18  C   UNL     1     -44.910 -46.460   9.116  1.00  0.00     0.025 A 
HETATM   19  C   UNL     1     -46.306 -46.245   8.663  1.00  0.00     0.070 C 
HETATM   20  N   UNL     1     -44.175 -45.460   9.613  1.00  0.00    -0.302 N 
HETATM   21  N   UNL     1     -42.987 -46.032   9.890  1.00  0.00    -0.281 N 
ATOM     22  HN  UNL     1     -44.451 -44.488   9.750  1.00  0.00     0.186 HD
HETATM   23  C   UNL     1     -41.945 -45.223  10.473  1.00  0.00     0.179 C 
ENDBRANCH   4  16
TORSDOF 4
ENDMDL
MODEL 2
REMARK VINA RESULT:      -6.1      4.100      5.645
REMARK  4 active torsions:
REMARK  status: ('A' for Active; 'I' for Inactive)
REMARK    1  A    between atoms: N_2  and  C_4 
REMARK    2  A    between atoms: C_4  and  C_5 
REMARK    3  A    between atoms: C_5  and  N_6 
REMARK       I    between atoms: N_6  and  C_7 
REMARK       I    between atoms: C_7  and  N_9 
REMARK    4  A    between atoms: N_9  and  C_10 
ROOT
HETATM    1  N   UNL     1     -43.063 -50.813  12.753  1.00  0.00    -0.340 N 
HETATM    2  C   UNL     1     -42.675 -49.523  12.567  1.00  0.00     0.321 C 
HETATM    3  O   UNL     1     -42.775 -48.630  13.389  1.00  0.00    -0.247 OA
HETATM    4  N   UNL     1     -42.090 -49.322  11.289  1.00  0.00    -0.293 N 
HETATM    5  H   UNL     1     -43.143 -51.471  11.993  1.00  0.00     0.164 HD
HETATM    6  H   UNL     1     -41.923 -50.124  10.700  1.00  0.00     0.172 HD
ENDROOT
BRANCH   1   7
HETATM    7  C   UNL     1     -43.666 -51.197  14.023  1.00  0.00     0.166 C 
BRANCH   7   8
HETATM    8  C   UNL     1     -44.558 -52.497  13.964  1.00  0.00     0.174 C 
HETATM    9  C   UNL     1     -45.638 -52.371  15.072  1.00  0.00     0.043 C 
HETATM   10  C   UNL     1     -46.839 -51.649  14.448  1.00  0.00     0.003 C 
HETATM   11  C   UNL     1     -46.547 -51.491  12.963  1.00  0.00     0.003 C 
HETATM   12  C   UNL     1     -45.429 -52.483  12.677  1.00  0.00     0.043 C 
BRANCH   8  13
HETATM   13  N   UNL     1     -43.681 -53.709  14.066  1.00  0.00     0.091 N 
HETATM   14  C   UNL     1     -42.600 -53.563  15.057  1.00  0.00     0.310 C 
HETATM   15  C   UNL     1     -44.412 -54.952  14.382  1.00  0.00     0.310 C 
ENDBRANCH   8  13
ENDBRANCH   7   8
ENDBRANCH   1   7
BRANCH   4  16
HETATM   16  C   UNL     1     -41.705 -48.059  10.837  1.00  0.00     0.127 A 
HETATM   17  C   UNL     1     -40.578 -47.347  11.178  1.00  0.00     0.076 A 
HETATM   18  C   UNL     1     -40.668 -46.119  10.490  1.00  0.00     0.025 A 
HETATM   19  C   UNL     1     -39.709 -44.989  10.545  1.00  0.00     0.070 C 
HETATM   20  N   UNL     1     -41.776 -46.058   9.744  1.00  0.00    -0.302 N 
HETATM   21  N   UNL     1     -42.384 -47.240   9.963  1.00  0.00    -0.281 N 
ATOM     22  HN  UNL     1     -42.088 -45.293   9.148  1.00  0.00     0.186 HD
HETATM   23  C   UNL     1     -43.623 -47.522   9.280  1.00  0.00     0.179 C 
ENDBRANCH   4  16
TORSDOF 4
ENDMDL
MODEL 3
REMARK VINA RESULT:      -6.0      3.954      5.368
REMARK  4 active torsions:
REMARK  status: ('A' for Active; 'I' for Inactive)
REMARK    1  A    between atoms: N_2  and  C_4 
REMARK    2  A    between atoms: C_4  and  C_5 
REMARK    3  A    between atoms: C_5  and  N_6 
REMARK       I    between atoms: N_6  and  C_7 
REMARK       I    between atoms: C_7  and  N_9 
REMARK    4  A    between atoms: N_9  and  C_10 
ROOT
HETATM    1  N   UNL     1     -43.230 -50.796  12.641  1.00  0.00    -0.340 N 
HETATM    2  C   UNL     1     -42.866 -49.496  12.475  1.00  0.00     0.321 C 
HETATM    3  O   UNL     1     -43.122 -48.587  13.244  1.00  0.00    -0.247 OA
HETATM    4  N   UNL     1     -42.103 -49.304  11.294  1.00  0.00    -0.293 N 
HETATM    5  H   UNL     1     -43.170 -51.475  11.898  1.00  0.00     0.164 HD
HETATM    6  H   UNL     1     -41.819 -50.113  10.761  1.00  0.00     0.172 HD
ENDROOT
BRANCH   1   7
HETATM    7  C   UNL     1     -44.003 -51.171  13.818  1.00  0.00     0.166 C 
BRANCH   7   8
HETATM    8  C   UNL     1     -44.696 -52.587  13.728  1.00  0.00     0.174 C 
HETATM    9  C   UNL     1     -43.997 -53.374  12.586  1.00  0.00     0.043 C 
HETATM   10  C   UNL     1     -42.809 -54.115  13.212  1.00  0.00     0.003 C 
HETATM   11  C   UNL     1     -42.890 -53.904  14.717  1.00  0.00     0.003 C 
HETATM   12  C   UNL     1     -44.317 -53.441  14.970  1.00  0.00     0.043 C 
BRANCH   8  13
HETATM   13  N   UNL     1     -46.175 -52.410  13.565  1.00  0.00     0.091 N 
HETATM   14  C   UNL     1     -46.751 -51.430  14.503  1.00  0.00     0.310 C 
HETATM   15  C   UNL     1     -46.585 -52.017  12.203  1.00  0.00     0.310 C 
ENDBRANCH   8  13
ENDBRANCH   7   8
ENDBRANCH   1   7
BRANCH   4  16
HETATM   16  C   UNL     1     -41.701 -48.038  10.865  1.00  0.00     0.127 A 
HETATM   17  C   UNL     1     -40.600 -47.319  11.271  1.00  0.00     0.076 A 
HETATM   18  C   UNL     1     -40.657 -46.091  10.580  1.00  0.00     0.025 A 
HETATM   19  C   UNL     1     -39.710 -44.956  10.691  1.00  0.00     0.070 C 
HETATM   20  N   UNL     1     -41.720 -46.036   9.771  1.00  0.00    -0.302 N 
HETATM   21  N   UNL     1     -42.333 -47.223   9.954  1.00  0.00    -0.281 N 
ATOM     22  HN  UNL     1     -42.003 -45.273   9.158  1.00  0.00     0.186 HD
HETATM   23  C   UNL     1     -43.528 -47.512   9.201  1.00  0.00     0.179 C 
ENDBRANCH   4  16
TORSDOF 4
ENDMDL
MODEL 4
REMARK VINA RESULT:      -5.5      4.004      4.972
REMARK  4 active torsions:
REMARK  status: ('A' for Active; 'I' for Inactive)
REMARK    1  A    between atoms: N_2  and  C_4 
REMARK    2  A    between atoms: C_4  and  C_5 
REMARK    3  A    between atoms: C_5  and  N_6 
REMARK       I    between atoms: N_6  and  C_7 
REMARK       I    between atoms: C_7  and  N_9 
REMARK    4  A    between atoms: N_9  and  C_10 
ROOT
HETATM    1  N   UNL     1     -42.541 -51.039  12.952  1.00  0.00    -0.340 N 
HETATM    2  C   UNL     1     -42.701 -49.723  12.644  1.00  0.00     0.321 C 
HETATM    3  O   UNL     1     -43.166 -48.876  13.383  1.00  0.00    -0.247 OA
HETATM    4  N   UNL     1     -42.222 -49.421  11.342  1.00  0.00    -0.293 N 
HETATM    5  H   UNL     1     -42.337 -51.738  12.256  1.00  0.00     0.164 HD
HETATM    6  H   UNL     1     -41.736 -50.137  10.824  1.00  0.00     0.172 HD
ENDROOT
BRANCH   1   7
HETATM    7  C   UNL     1     -42.963 -51.516  14.262  1.00  0.00     0.166 C 
BRANCH   7   8
HETATM    8  C   UNL     1     -44.390 -52.191  14.291  1.00  0.00     0.174 C 
HETATM    9  C   UNL     1     -44.646 -52.796  12.884  1.00  0.00     0.043 C 
HETATM   10  C   UNL     1     -44.088 -54.224  12.900  1.00  0.00     0.003 C 
HETATM   11  C   UNL     1     -43.654 -54.522  14.328  1.00  0.00     0.003 C 
HETATM   12  C   UNL     1     -44.353 -53.468  15.176  1.00  0.00     0.043 C 
BRANCH   8  13
HETATM   13  N   UNL     1     -45.407 -51.189  14.747  1.00  0.00     0.091 N 
HETATM   14  C   UNL     1     -46.751 -51.431  14.195  1.00  0.00     0.310 C 
HETATM   15  C   UNL     1     -45.538 -51.095  16.214  1.00  0.00     0.310 C 
ENDBRANCH   8  13
ENDBRANCH   7   8
ENDBRANCH   1   7
BRANCH   4  16
HETATM   16  C   UNL     1     -42.369 -48.156  10.771  1.00  0.00     0.127 A 
HETATM   17  C   UNL     1     -43.474 -47.639  10.135  1.00  0.00     0.076 A 
HETATM   18  C   UNL     1     -43.109 -46.347   9.702  1.00  0.00     0.025 A 
HETATM   19  C   UNL     1     -43.946 -45.388   8.941  1.00  0.00     0.070 C 
HETATM   20  N   UNL     1     -41.854 -46.052  10.054  1.00  0.00    -0.302 N 
HETATM   21  N   UNL     1     -41.428 -47.154  10.703  1.00  0.00    -0.281 N 
ATOM     22  HN  UNL     1     -41.338 -45.192   9.874  1.00  0.00     0.186 HD
HETATM   23  C   UNL     1     -40.092 -47.167  11.248  1.00  0.00     0.179 C 
ENDBRANCH   4  16
TORSDOF 4
ENDMDL
MODEL 5
REMARK VINA RESULT:      -5.5      3.362      6.311
REMARK  4 active torsions:
REMARK  status: ('A' for Active; 'I' for Inactive)
REMARK    1  A    between atoms: N_2  and  C_4 
REMARK    2  A    between atoms: C_4  and  C_5 
REMARK    3  A    between atoms: C_5  and  N_6 
REMARK       I    between atoms: N_6  and  C_7 
REMARK       I    between atoms: C_7  and  N_9 
REMARK    4  A    between atoms: N_9  and  C_10 
ROOT
HETATM    1  N   UNL     1     -40.931 -49.865  11.191  1.00  0.00    -0.340 N 
HETATM    2  C   UNL     1     -41.528 -50.639  12.138  1.00  0.00     0.321 C 
HETATM    3  O   UNL     1     -41.690 -50.329  13.304  1.00  0.00    -0.247 OA
HETATM    4  N   UNL     1     -41.987 -51.872  11.604  1.00  0.00    -0.293 N 
HETATM    5  H   UNL     1     -40.643 -50.228  10.296  1.00  0.00     0.164 HD
HETATM    6  H   UNL     1     -41.933 -52.020  10.608  1.00  0.00     0.172 HD
ENDROOT
BRANCH   1   7
HETATM    7  C   UNL     1     -40.419 -48.554  11.567  1.00  0.00     0.166 C 
BRANCH   7   8
HETATM    8  C   UNL     1     -41.401 -47.353  11.274  1.00  0.00     0.174 C 
HETATM    9  C   UNL     1     -41.817 -46.748  12.643  1.00  0.00     0.043 C 
HETATM   10  C   UNL     1     -40.780 -45.674  12.993  1.00  0.00     0.003 C 
HETATM   11  C   UNL     1     -39.859 -45.528  11.790  1.00  0.00     0.003 C 
HETATM   12  C   UNL     1     -40.617 -46.172  10.638  1.00  0.00     0.043 C 
BRANCH   8  13
HETATM   13  N   UNL     1     -42.535 -47.833  10.420  1.00  0.00     0.091 N 
HETATM   14  C   UNL     1     -43.832 -47.833  11.120  1.00  0.00     0.310 C 
HETATM   15  C   UNL     1     -42.705 -47.073   9.167  1.00  0.00     0.310 C 
ENDBRANCH   8  13
ENDBRANCH   7   8
ENDBRANCH   1   7
BRANCH   4  16
HETATM   16  C   UNL     1     -42.544 -52.868  12.407  1.00  0.00     0.127 A 
HETATM   17  C   UNL     1     -43.873 -53.197  12.545  1.00  0.00     0.076 A 
HETATM   18  C   UNL     1     -43.923 -54.236  13.497  1.00  0.00     0.025 A 
HETATM   19  C   UNL     1     -45.132 -54.921  14.014  1.00  0.00     0.070 C 
HETATM   20  N   UNL     1     -42.700 -54.561  13.928  1.00  0.00    -0.302 N 
HETATM   21  N   UNL     1     -41.882 -53.728  13.254  1.00  0.00    -0.281 N 
ATOM     22  HN  UNL     1     -42.444 -55.274  14.610  1.00  0.00     0.186 HD
HETATM   23  C   UNL     1     -40.459 -53.826  13.468  1.00  0.00     0.179 C 
ENDBRANCH   4  16
TORSDOF 4
ENDMDL
MODEL 6
REMARK VINA RESULT:      -5.3      2.850      4.327
REMARK  4 active torsions:
REMARK  status: ('A' for Active; 'I' for Inactive)
REMARK    1  A    between atoms: N_2  and  C_4 
REMARK    2  A    between atoms: C_4  and  C_5 
REMARK    3  A    between atoms: C_5  and  N_6 
REMARK       I    between atoms: N_6  and  C_7 
REMARK       I    between atoms: C_7  and  N_9 
REMARK    4  A    between atoms: N_9  and  C_10 
ROOT
HETATM    1  N   UNL     1     -42.270 -51.260  12.138  1.00  0.00    -0.340 N 
HETATM    2  C   UNL     1     -41.575 -50.233  11.579  1.00  0.00     0.321 C 
HETATM    3  O   UNL     1     -40.408 -50.274  11.235  1.00  0.00    -0.247 OA
HETATM    4  N   UNL     1     -42.384 -49.080  11.399  1.00  0.00    -0.293 N 
HETATM    5  H   UNL     1     -43.166 -51.131  12.582  1.00  0.00     0.164 HD
HETATM    6  H   UNL     1     -43.372 -49.145  11.590  1.00  0.00     0.172 HD
ENDROOT
BRANCH   1   7
HETATM    7  C   UNL     1     -41.593 -52.529  12.373  1.00  0.00     0.166 C 
BRANCH   7   8
HETATM    8  C   UNL     1     -41.282 -52.839  13.889  1.00  0.00     0.174 C 
HETATM    9  C   UNL     1     -42.371 -52.131  14.741  1.00  0.00     0.043 C 
HETATM   10  C   UNL     1     -43.536 -53.117  14.890  1.00  0.00     0.003 C 
HETATM   11  C   UNL     1     -43.090 -54.438  14.279  1.00  0.00     0.003 C 
HETATM   12  C   UNL     1     -41.573 -54.335  14.194  1.00  0.00     0.043 C 
BRANCH   8  13
HETATM   13  N   UNL     1     -39.872 -52.440  14.201  1.00  0.00     0.091 N 
HETATM   14  C   UNL     1     -39.760 -51.578  15.391  1.00  0.00     0.310 C 
HETATM   15  C   UNL     1     -38.954 -53.580  14.388  1.00  0.00     0.310 C 
ENDBRANCH   8  13
ENDBRANCH   7   8
ENDBRANCH   1   7
BRANCH   4  16
HETATM   16  C   UNL     1     -41.864 -47.872  10.933  1.00  0.00     0.127 A 
HETATM   17  C   UNL     1     -40.786 -47.170  11.425  1.00  0.00     0.076 A 
HETATM   18  C   UNL     1     -40.689 -46.002  10.641  1.00  0.00     0.025 A 
HETATM   19  C   UNL     1     -39.704 -44.903  10.790  1.00  0.00     0.070 C 
HETATM   20  N   UNL     1     -41.636 -45.967   9.699  1.00  0.00    -0.302 N 
HETATM   21  N   UNL     1     -42.330 -47.107   9.888  1.00  0.00    -0.281 N 
ATOM     22  HN  UNL     1     -41.797 -45.244   8.997  1.00  0.00     0.186 HD
HETATM   23  C   UNL     1     -43.433 -47.404   9.008  1.00  0.00     0.179 C 
ENDBRANCH   4  16
TORSDOF 4
ENDMDL
MODEL 7
REMARK VINA RESULT:      -5.2      4.199      5.920
REMARK  4 active torsions:
REMARK  status: ('A' for Active; 'I' for Inactive)
REMARK    1  A    between atoms: N_2  and  C_4 
REMARK    2  A    between atoms: C_4  and  C_5 
REMARK    3  A    between atoms: C_5  and  N_6 
REMARK       I    between atoms: N_6  and  C_7 
REMARK       I    between atoms: C_7  and  N_9 
REMARK    4  A    between atoms: N_9  and  C_10 
ROOT
HETATM    1  N   UNL     1     -43.130 -51.185  12.707  1.00  0.00    -0.340 N 
HETATM    2  C   UNL     1     -42.344 -50.077  12.761  1.00  0.00     0.321 C 
HETATM    3  O   UNL     1     -41.963 -49.530  13.780  1.00  0.00    -0.247 OA
HETATM    4  N   UNL     1     -41.971 -49.627  11.467  1.00  0.00    -0.293 N 
HETATM    5  H   UNL     1     -43.580 -51.492  11.859  1.00  0.00     0.164 HD
HETATM    6  H   UNL     1     -42.216 -50.191  10.667  1.00  0.00     0.172 HD
ENDROOT
BRANCH   1   7
HETATM    7  C   UNL     1     -43.587 -51.791  13.952  1.00  0.00     0.166 C 
BRANCH   7   8
HETATM    8  C   UNL     1     -44.662 -52.934  13.773  1.00  0.00     0.174 C 
HETATM    9  C   UNL     1     -45.691 -52.788  14.927  1.00  0.00     0.043 C 
HETATM   10  C   UNL     1     -46.785 -51.832  14.435  1.00  0.00     0.003 C 
HETATM   11  C   UNL     1     -46.500 -51.540  12.968  1.00  0.00     0.003 C 
HETATM   12  C   UNL     1     -45.545 -52.640  12.529  1.00  0.00     0.043 C 
BRANCH   8  13
HETATM   13  N   UNL     1     -43.970 -54.262  13.702  1.00  0.00     0.091 N 
HETATM   14  C   UNL     1     -42.558 -54.162  13.295  1.00  0.00     0.310 C 
HETATM   15  C   UNL     1     -44.017 -55.030  14.962  1.00  0.00     0.310 C 
ENDBRANCH   8  13
ENDBRANCH   7   8
ENDBRANCH   1   7
BRANCH   4  16
HETATM   16  C   UNL     1     -41.247 -48.450  11.269  1.00  0.00     0.127 A 
HETATM   17  C   UNL     1     -41.729 -47.211  10.914  1.00  0.00     0.076 A 
HETATM   18  C   UNL     1     -40.602 -46.371  10.801  1.00  0.00     0.025 A 
HETATM   19  C   UNL     1     -40.588 -44.939  10.413  1.00  0.00     0.070 C 
HETATM   20  N   UNL     1     -39.473 -47.029  11.081  1.00  0.00    -0.302 N 
HETATM   21  N   UNL     1     -39.885 -48.280  11.367  1.00  0.00    -0.281 N 
ATOM     22  HN  UNL     1     -38.520 -46.667  11.080  1.00  0.00     0.186 HD
HETATM   23  C   UNL     1     -38.902 -49.266  11.743  1.00  0.00     0.179 C 
ENDBRANCH   4  16
TORSDOF 4
ENDMDL
MODEL 8
REMARK VINA RESULT:      -5.2      4.057      5.392
REMARK  4 active torsions:
REMARK  status: ('A' for Active; 'I' for Inactive)
REMARK    1  A    between atoms: N_2  and  C_4 
REMARK    2  A    between atoms: C_4  and  C_5 
REMARK    3  A    between atoms: C_5  and  N_6 
REMARK       I    between atoms: N_6  and  C_7 
REMARK       I    between atoms: C_7  and  N_9 
REMARK    4  A    between atoms: N_9  and  C_10 
ROOT
HETATM    1  N   UNL     1     -43.199 -51.620  13.216  1.00  0.00    -0.340 N 
HETATM    2  C   UNL     1     -42.397 -50.524  13.139  1.00  0.00     0.321 C 
HETATM    3  O   UNL     1     -41.868 -49.969  14.085  1.00  0.00    -0.247 OA
HETATM    4  N   UNL     1     -42.204 -50.099  11.798  1.00  0.00    -0.293 N 
HETATM    5  H   UNL     1     -43.768 -51.932  12.444  1.00  0.00     0.164 HD
HETATM    6  H   UNL     1     -42.567 -50.671  11.051  1.00  0.00     0.172 HD
ENDROOT
BRANCH   1   7
HETATM    7  C   UNL     1     -43.484 -52.201  14.522  1.00  0.00     0.166 C 
BRANCH   7   8
HETATM    8  C   UNL     1     -43.349 -53.772  14.589  1.00  0.00     0.174 C 
HETATM    9  C   UNL     1     -42.701 -54.240  13.259  1.00  0.00     0.043 C 
HETATM   10  C   UNL     1     -41.181 -54.209  13.464  1.00  0.00     0.003 C 
HETATM   11  C   UNL     1     -40.932 -53.884  14.930  1.00  0.00     0.003 C 
HETATM   12  C   UNL     1     -42.258 -54.165  15.623  1.00  0.00     0.043 C 
BRANCH   8  13
HETATM   13  N   UNL     1     -44.688 -54.375  14.891  1.00  0.00     0.091 N 
HETATM   14  C   UNL     1     -45.626 -53.426  15.516  1.00  0.00     0.310 C 
HETATM   15  C   UNL     1     -45.361 -54.957  13.714  1.00  0.00     0.310 C 
ENDBRANCH   8  13
ENDBRANCH   7   8
ENDBRANCH   1   7
BRANCH   4  16
HETATM   16  C   UNL     1     -41.498 -48.938  11.480  1.00  0.00     0.127 A 
HETATM   17  C   UNL     1     -42.008 -47.699  11.168  1.00  0.00     0.076 A 
HETATM   18  C   UNL     1     -40.896 -46.878  10.887  1.00  0.00     0.025 A 
HETATM   19  C   UNL     1     -40.916 -45.454  10.472  1.00  0.00     0.070 C 
HETATM   20  N   UNL     1     -39.748 -47.548  11.027  1.00  0.00    -0.302 N 
HETATM   21  N   UNL     1     -40.133 -48.787  11.391  1.00  0.00    -0.281 N 
ATOM     22  HN  UNL     1     -38.799 -47.201  10.890  1.00  0.00     0.186 HD
HETATM   23  C   UNL     1     -39.121 -49.781  11.652  1.00  0.00     0.179 C 
ENDBRANCH   4  16
TORSDOF 4
ENDMDL
MODEL 9
REMARK VINA RESULT:      -5.2      2.820      7.002
REMARK  4 active torsions:
REMARK  status: ('A' for Active; 'I' for Inactive)
REMARK    1  A    between atoms: N_2  and  C_4 
REMARK    2  A    between atoms: C_4  and  C_5 
REMARK    3  A    between atoms: C_5  and  N_6 
REMARK       I    between atoms: N_6  and  C_7 
REMARK       I    between atoms: C_7  and  N_9 
REMARK    4  A    between atoms: N_9  and  C_10 
ROOT
HETATM    1  N   UNL     1     -42.598 -49.224  11.480  1.00  0.00    -0.340 N 
HETATM    2  C   UNL     1     -42.342 -50.170  12.423  1.00  0.00     0.321 C 
HETATM    3  O   UNL     1     -42.468 -50.022  13.625  1.00  0.00    -0.247 OA
HETATM    4  N   UNL     1     -41.933 -51.401  11.844  1.00  0.00    -0.293 N 
HETATM    5  H   UNL     1     -42.301 -49.318  10.521  1.00  0.00     0.164 HD
HETATM    6  H   UNL     1     -41.965 -51.500  10.841  1.00  0.00     0.172 HD
ENDROOT
BRANCH   1   7
HETATM    7  C   UNL     1     -43.050 -47.905  11.903  1.00  0.00     0.166 C 
BRANCH   7   8
HETATM    8  C   UNL     1     -42.664 -46.729  10.923  1.00  0.00     0.174 C 
HETATM    9  C   UNL     1     -42.553 -45.434  11.772  1.00  0.00     0.043 C 
HETATM   10  C   UNL     1     -41.106 -45.347  12.273  1.00  0.00     0.003 C 
HETATM   11  C   UNL     1     -40.331 -46.477  11.609  1.00  0.00     0.003 C 
HETATM   12  C   UNL     1     -41.200 -46.907  10.435  1.00  0.00     0.043 C 
BRANCH   8  13
HETATM   13  N   UNL     1     -43.655 -46.670   9.800  1.00  0.00     0.091 N 
HETATM   14  C   UNL     1     -43.850 -45.311   9.267  1.00  0.00     0.310 C 
HETATM   15  C   UNL     1     -43.325 -47.553   8.664  1.00  0.00     0.310 C 
ENDBRANCH   8  13
ENDBRANCH   7   8
ENDBRANCH   1   7
BRANCH   4  16
HETATM   16  C   UNL     1     -41.524 -52.487  12.618  1.00  0.00     0.127 A 
HETATM   17  C   UNL     1     -40.261 -52.757  13.095  1.00  0.00     0.076 A 
HETATM   18  C   UNL     1     -40.356 -53.984  13.783  1.00  0.00     0.025 A 
HETATM   19  C   UNL     1     -39.259 -54.720  14.457  1.00  0.00     0.070 C 
HETATM   20  N   UNL     1     -41.605 -54.460  13.761  1.00  0.00    -0.302 N 
HETATM   21  N   UNL     1     -42.294 -53.539  13.058  1.00  0.00    -0.281 N 
ATOM     22  HN  UNL     1     -41.955 -55.321  14.178  1.00  0.00     0.186 HD
HETATM   23  C   UNL     1     -43.709 -53.733  12.859  1.00  0.00     0.179 C 
ENDBRANCH   4  16
TORSDOF 4
ENDMDL
