MODEL 1
REMARK VINA RESULT:      -6.1      0.000      0.000
REMARK  5 active torsions:
REMARK  status: ('A' for Active; 'I' for Inactive)
REMARK    1  A    between atoms: C_8  and  C_9 
REMARK    2  A    between atoms: C_9  and  C_10 
REMARK       I    between atoms: C_10  and  N_12 
REMARK    3  A    between atoms: N_12  and  S_13 
REMARK    4  A    between atoms: S_13  and  C_16 
REMARK    5  A    between atoms: C_16  and  C_17 
ROOT
HETATM    1  C   UNL     1     -42.956 -49.246  12.670  1.00  0.00     0.235 C 
HETATM    2  O   UNL     1     -41.813 -48.901  12.932  1.00  0.00    -0.272 OA
HETATM    3  N   UNL     1     -43.651 -48.783  11.523  1.00  0.00    -0.254 N 
HETATM    4  H   UNL     1     -44.578 -49.119  11.289  1.00  0.00     0.181 HD
ENDROOT
BRANCH   1   5
HETATM    5  C   UNL     1     -43.694 -50.202  13.586  1.00  0.00     0.147 C 
BRANCH   5   6
HETATM    6  C   UNL     1     -43.985 -51.548  13.011  1.00  0.00     0.006 A 
HETATM    7  C   UNL     1     -43.121 -52.590  12.544  1.00  0.00     0.038 A 
HETATM    8  C   UNL     1     -41.639 -52.653  12.467  1.00  0.00     0.071 C 
HETATM    9  N   UNL     1     -43.822 -53.657  12.140  1.00  0.00    -0.265 N 
HETATM   10  O   UNL     1     -45.142 -53.358  12.369  1.00  0.00    -0.242 OA
ATOM     11  HN  UNL     1     -43.450 -54.518  11.742  1.00  0.00     0.194 HD
HETATM   12  C   UNL     1     -45.242 -52.115  12.897  1.00  0.00     0.081 A 
HETATM   13  C   UNL     1     -46.609 -51.674  13.242  1.00  0.00     0.079 C 
ENDBRANCH   5   6
ENDBRANCH   1   5
BRANCH   3  14
HETATM   14  S   UNL     1     -42.907 -47.678  10.506  1.00  0.00     0.233 S 
HETATM   15  O   UNL     1     -42.934 -46.402  11.193  1.00  0.00    -0.206 OA
HETATM   16  O   UNL     1     -41.677 -48.290  10.058  1.00  0.00    -0.206 OA
BRANCH  14  17
HETATM   17  C   UNL     1     -44.009 -47.536   9.079  1.00  0.00     0.168 C 
BRANCH  17  18
HETATM   18  C   UNL     1     -45.401 -47.646   9.658  1.00  0.00     0.001 A 
HETATM   19  C   UNL     1     -46.507 -48.376   8.935  1.00  0.00     0.006 A 
HETATM   20  C   UNL     1     -46.548 -46.880   9.043  1.00  0.00     0.006 A 
ENDBRANCH  17  18
ENDBRANCH  14  17
ENDBRANCH   3  14
TORSDOF 5
ENDMDL
MODEL 2
REMARK VINA RESULT:      -5.7      2.651      5.496
REMARK  5 active torsions:
REMARK  status: ('A' for Active; 'I' for Inactive)
REMARK    1  A    between atoms: C_8  and  C_9 
REMARK    2  A    between atoms: C_9  and  C_10 
REMARK       I    between atoms: C_10  and  N_12 
REMARK    3  A    between atoms: N_12  and  S_13 
REMARK    4  A    between atoms: S_13  and  C_16 
REMARK    5  A    between atoms: C_16  and  C_17 
ROOT
HETATM    1  C   UNL     1     -43.648 -51.230  13.407  1.00  0.00     0.235 C 
HETATM    2  O   UNL     1     -43.182 -52.240  13.914  1.00  0.00    -0.272 OA
HETATM    3  N   UNL     1     -44.905 -51.215  12.749  1.00  0.00    -0.254 N 
HETATM    4  H   UNL     1     -45.304 -50.359  12.381  1.00  0.00     0.181 HD
ENDROOT
BRANCH   1   5
HETATM    5  C   UNL     1     -42.880 -49.925  13.459  1.00  0.00     0.147 C 
BRANCH   5   6
HETATM    6  C   UNL     1     -42.026 -49.633  12.269  1.00  0.00     0.006 A 
HETATM    7  C   UNL     1     -40.860 -50.282  11.753  1.00  0.00     0.038 A 
HETATM    8  C   UNL     1     -40.109 -51.461  12.256  1.00  0.00     0.071 C 
HETATM    9  N   UNL     1     -40.437 -49.695  10.626  1.00  0.00    -0.265 N 
HETATM   10  O   UNL     1     -41.328 -48.686  10.360  1.00  0.00    -0.242 OA
ATOM     11  HN  UNL     1     -39.617 -49.947  10.076  1.00  0.00     0.194 HD
HETATM   12  C   UNL     1     -42.280 -48.654  11.325  1.00  0.00     0.081 A 
HETATM   13  C   UNL     1     -43.341 -47.643  11.143  1.00  0.00     0.079 C 
ENDBRANCH   5   6
ENDBRANCH   1   5
BRANCH   3  14
HETATM   14  S   UNL     1     -45.772 -52.642  12.607  1.00  0.00     0.233 S 
HETATM   15  O   UNL     1     -46.897 -52.357  11.740  1.00  0.00    -0.206 OA
HETATM   16  O   UNL     1     -44.813 -53.683  12.315  1.00  0.00    -0.206 OA
BRANCH  14  17
HETATM   17  C   UNL     1     -46.440 -52.952  14.260  1.00  0.00     0.168 C 
BRANCH  17  18
HETATM   18  C   UNL     1     -46.776 -51.581  14.799  1.00  0.00     0.001 A 
HETATM   19  C   UNL     1     -46.131 -51.040  16.053  1.00  0.00     0.006 A 
HETATM   20  C   UNL     1     -47.580 -51.434  16.069  1.00  0.00     0.006 A 
ENDBRANCH  17  18
ENDBRANCH  14  17
ENDBRANCH   3  14
TORSDOF 5
ENDMDL
MODEL 3
REMARK VINA RESULT:      -5.5      2.757      3.480
REMARK  5 active torsions:
REMARK  status: ('A' for Active; 'I' for Inactive)
REMARK    1  A    between atoms: C_8  and  C_9 
REMARK    2  A    between atoms: C_9  and  C_10 
REMARK       I    between atoms: C_10  and  N_12 
REMARK    3  A    between atoms: N_12  and  S_13 
REMARK    4  A    between atoms: S_13  and  C_16 
REMARK    5  A    between atoms: C_16  and  C_17 
ROOT
HETATM    1  C   UNL     1     -41.022 -48.598  11.019  1.00  0.00     0.235 C 
HETATM    2  O   UNL     1     -41.065 -47.935  12.044  1.00  0.00    -0.272 OA
HETATM    3  N   UNL     1     -41.827 -48.309   9.887  1.00  0.00    -0.254 N 
HETATM    4  H   UNL     1     -41.743 -48.834   9.024  1.00  0.00     0.181 HD
ENDROOT
BRANCH   1   5
HETATM    5  C   UNL     1     -40.088 -49.787  10.917  1.00  0.00     0.147 C 
BRANCH   5   6
HETATM    6  C   UNL     1     -39.871 -50.546  12.184  1.00  0.00     0.006 A 
HETATM    7  C   UNL     1     -38.936 -50.366  13.252  1.00  0.00     0.038 A 
HETATM    8  C   UNL     1     -37.857 -49.361  13.431  1.00  0.00     0.071 C 
HETATM    9  N   UNL     1     -39.127 -51.270  14.221  1.00  0.00    -0.265 N 
HETATM   10  O   UNL     1     -40.204 -52.027  13.834  1.00  0.00    -0.242 OA
ATOM     11  HN  UNL     1     -38.581 -51.375  15.076  1.00  0.00     0.194 HD
HETATM   12  C   UNL     1     -40.657 -51.593  12.633  1.00  0.00     0.081 A 
HETATM   13  C   UNL     1     -41.851 -52.287  12.111  1.00  0.00     0.079 C 
ENDBRANCH   5   6
ENDBRANCH   1   5
BRANCH   3  14
HETATM   14  S   UNL     1     -42.923 -47.043   9.964  1.00  0.00     0.233 S 
HETATM   15  O   UNL     1     -43.617 -47.175  11.229  1.00  0.00    -0.206 OA
HETATM   16  O   UNL     1     -42.200 -45.846   9.598  1.00  0.00    -0.206 OA
BRANCH  14  17
HETATM   17  C   UNL     1     -44.129 -47.385   8.659  1.00  0.00     0.168 C 
BRANCH  17  18
HETATM   18  C   UNL     1     -45.412 -47.690   9.395  1.00  0.00     0.001 A 
HETATM   19  C   UNL     1     -46.558 -48.415   8.729  1.00  0.00     0.006 A 
HETATM   20  C   UNL     1     -46.685 -46.954   9.051  1.00  0.00     0.006 A 
ENDBRANCH  17  18
ENDBRANCH  14  17
ENDBRANCH   3  14
TORSDOF 5
ENDMDL
MODEL 4
REMARK VINA RESULT:      -5.5      4.792      6.525
REMARK  5 active torsions:
REMARK  status: ('A' for Active; 'I' for Inactive)
REMARK    1  A    between atoms: C_8  and  C_9 
REMARK    2  A    between atoms: C_9  and  C_10 
REMARK       I    between atoms: C_10  and  N_12 
REMARK    3  A    between atoms: N_12  and  S_13 
REMARK    4  A    between atoms: S_13  and  C_16 
REMARK    5  A    between atoms: C_16  and  C_17 
ROOT
HETATM    1  C   UNL     1     -43.054 -54.340  15.885  1.00  0.00     0.235 C 
HETATM    2  O   UNL     1     -43.140 -55.523  16.179  1.00  0.00    -0.272 OA
HETATM    3  N   UNL     1     -44.166 -53.582  15.434  1.00  0.00    -0.254 N 
HETATM    4  H   UNL     1     -44.094 -52.589  15.246  1.00  0.00     0.181 HD
ENDROOT
BRANCH   1   5
HETATM    5  C   UNL     1     -41.725 -53.621  15.989  1.00  0.00     0.147 C 
BRANCH   5   6
HETATM    6  C   UNL     1     -40.732 -53.947  14.923  1.00  0.00     0.006 A 
HETATM    7  C   UNL     1     -39.548 -54.750  14.941  1.00  0.00     0.038 A 
HETATM    8  C   UNL     1     -38.914 -55.511  16.048  1.00  0.00     0.071 C 
HETATM    9  N   UNL     1     -38.975 -54.796  13.731  1.00  0.00    -0.265 N 
HETATM   10  O   UNL     1     -39.782 -54.067  12.895  1.00  0.00    -0.242 OA
ATOM     11  HN  UNL     1     -38.111 -55.277  13.481  1.00  0.00     0.194 HD
HETATM   12  C   UNL     1     -40.832 -53.572  13.595  1.00  0.00     0.081 A 
HETATM   13  C   UNL     1     -41.818 -52.802  12.810  1.00  0.00     0.079 C 
ENDBRANCH   5   6
ENDBRANCH   1   5
BRANCH   3  14
HETATM   14  S   UNL     1     -45.649 -54.340  15.242  1.00  0.00     0.233 S 
HETATM   15  O   UNL     1     -45.462 -55.363  14.233  1.00  0.00    -0.206 OA
HETATM   16  O   UNL     1     -46.136 -54.640  16.569  1.00  0.00    -0.206 OA
BRANCH  14  17
HETATM   17  C   UNL     1     -46.731 -53.080  14.525  1.00  0.00     0.168 C 
BRANCH  17  18
HETATM   18  C   UNL     1     -46.021 -52.637  13.267  1.00  0.00     0.001 A 
HETATM   19  C   UNL     1     -45.533 -51.219  13.087  1.00  0.00     0.006 A 
HETATM   20  C   UNL     1     -46.705 -51.712  12.288  1.00  0.00     0.006 A 
ENDBRANCH  17  18
ENDBRANCH  14  17
ENDBRANCH   3  14
TORSDOF 5
ENDMDL
MODEL 5
REMARK VINA RESULT:      -5.5      2.523      3.672
REMARK  5 active torsions:
REMARK  status: ('A' for Active; 'I' for Inactive)
REMARK    1  A    between atoms: C_8  and  C_9 
REMARK    2  A    between atoms: C_9  and  C_10 
REMARK       I    between atoms: C_10  and  N_12 
REMARK    3  A    between atoms: N_12  and  S_13 
REMARK    4  A    between atoms: S_13  and  C_16 
REMARK    5  A    between atoms: C_16  and  C_17 
ROOT
HETATM    1  C   UNL     1     -40.952 -48.859  11.198  1.00  0.00     0.235 C 
HETATM    2  O   UNL     1     -40.931 -48.197  12.225  1.00  0.00    -0.272 OA
HETATM    3  N   UNL     1     -41.793 -48.542  10.100  1.00  0.00    -0.254 N 
HETATM    4  H   UNL     1     -41.761 -49.067   9.235  1.00  0.00     0.181 HD
ENDROOT
BRANCH   1   5
HETATM    5  C   UNL     1     -40.061 -50.077  11.056  1.00  0.00     0.147 C 
BRANCH   5   6
HETATM    6  C   UNL     1     -40.012 -50.981  12.243  1.00  0.00     0.006 A 
HETATM    7  C   UNL     1     -40.974 -51.890  12.786  1.00  0.00     0.038 A 
HETATM    8  C   UNL     1     -42.354 -52.214  12.342  1.00  0.00     0.071 C 
HETATM    9  N   UNL     1     -40.486 -52.532  13.854  1.00  0.00    -0.265 N 
HETATM   10  O   UNL     1     -39.194 -52.094  14.009  1.00  0.00    -0.242 OA
ATOM     11  HN  UNL     1     -40.975 -53.211  14.437  1.00  0.00     0.194 HD
HETATM   12  C   UNL     1     -38.905 -51.184  13.048  1.00  0.00     0.081 A 
HETATM   13  C   UNL     1     -37.525 -50.657  13.060  1.00  0.00     0.079 C 
ENDBRANCH   5   6
ENDBRANCH   1   5
BRANCH   3  14
HETATM   14  S   UNL     1     -42.844 -47.242  10.224  1.00  0.00     0.233 S 
HETATM   15  O   UNL     1     -43.625 -47.456  11.426  1.00  0.00    -0.206 OA
HETATM   16  O   UNL     1     -42.055 -46.049  10.016  1.00  0.00    -0.206 OA
BRANCH  14  17
HETATM   17  C   UNL     1     -43.972 -47.414   8.821  1.00  0.00     0.168 C 
BRANCH  17  18
HETATM   18  C   UNL     1     -45.317 -47.705   9.445  1.00  0.00     0.001 A 
HETATM   19  C   UNL     1     -46.433 -48.355   8.661  1.00  0.00     0.006 A 
HETATM   20  C   UNL     1     -46.535 -46.907   9.044  1.00  0.00     0.006 A 
ENDBRANCH  17  18
ENDBRANCH  14  17
ENDBRANCH   3  14
TORSDOF 5
ENDMDL
MODEL 6
REMARK VINA RESULT:      -5.4      5.429      6.853
REMARK  5 active torsions:
REMARK  status: ('A' for Active; 'I' for Inactive)
REMARK    1  A    between atoms: C_8  and  C_9 
REMARK    2  A    between atoms: C_9  and  C_10 
REMARK       I    between atoms: C_10  and  N_12 
REMARK    3  A    between atoms: N_12  and  S_13 
REMARK    4  A    between atoms: S_13  and  C_16 
REMARK    5  A    between atoms: C_16  and  C_17 
ROOT
HETATM    1  C   UNL     1     -43.162 -54.209  15.593  1.00  0.00     0.235 C 
HETATM    2  O   UNL     1     -43.730 -54.992  16.340  1.00  0.00    -0.272 OA
HETATM    3  N   UNL     1     -43.740 -53.755  14.378  1.00  0.00    -0.254 N 
HETATM    4  H   UNL     1     -43.282 -53.065  13.796  1.00  0.00     0.181 HD
ENDROOT
BRANCH   1   5
HETATM    5  C   UNL     1     -41.785 -53.682  15.942  1.00  0.00     0.147 C 
BRANCH   5   6
HETATM    6  C   UNL     1     -40.646 -54.344  15.240  1.00  0.00     0.006 A 
HETATM    7  C   UNL     1     -40.140 -54.205  13.908  1.00  0.00     0.038 A 
HETATM    8  C   UNL     1     -40.606 -53.356  12.782  1.00  0.00     0.071 C 
HETATM    9  N   UNL     1     -39.064 -54.977  13.716  1.00  0.00    -0.265 N 
HETATM   10  O   UNL     1     -38.819 -55.601  14.913  1.00  0.00    -0.242 OA
ATOM     11  HN  UNL     1     -38.532 -55.082  12.852  1.00  0.00     0.194 HD
HETATM   12  C   UNL     1     -39.747 -55.218  15.823  1.00  0.00     0.081 A 
HETATM   13  C   UNL     1     -39.580 -55.776  17.181  1.00  0.00     0.079 C 
ENDBRANCH   5   6
ENDBRANCH   1   5
BRANCH   3  14
HETATM   14  S   UNL     1     -45.235 -54.351  13.912  1.00  0.00     0.233 S 
HETATM   15  O   UNL     1     -45.558 -53.713  12.651  1.00  0.00    -0.206 OA
HETATM   16  O   UNL     1     -45.175 -55.787  14.059  1.00  0.00    -0.206 OA
BRANCH  14  17
HETATM   17  C   UNL     1     -46.399 -53.715  15.142  1.00  0.00     0.168 C 
BRANCH  17  18
HETATM   18  C   UNL     1     -46.498 -52.236  14.846  1.00  0.00     0.001 A 
HETATM   19  C   UNL     1     -45.872 -51.201  15.750  1.00  0.00     0.006 A 
HETATM   20  C   UNL     1     -47.365 -51.342  15.699  1.00  0.00     0.006 A 
ENDBRANCH  17  18
ENDBRANCH  14  17
ENDBRANCH   3  14
TORSDOF 5
ENDMDL
MODEL 7
REMARK VINA RESULT:      -5.4      3.565      5.766
REMARK  5 active torsions:
REMARK  status: ('A' for Active; 'I' for Inactive)
REMARK    1  A    between atoms: C_8  and  C_9 
REMARK    2  A    between atoms: C_9  and  C_10 
REMARK       I    between atoms: C_10  and  N_12 
REMARK    3  A    between atoms: N_12  and  S_13 
REMARK    4  A    between atoms: S_13  and  C_16 
REMARK    5  A    between atoms: C_16  and  C_17 
ROOT
HETATM    1  C   UNL     1     -43.124 -51.693  13.603  1.00  0.00     0.235 C 
HETATM    2  O   UNL     1     -42.859 -52.706  14.233  1.00  0.00    -0.272 OA
HETATM    3  N   UNL     1     -44.282 -51.578  12.791  1.00  0.00    -0.254 N 
HETATM    4  H   UNL     1     -44.518 -50.714  12.317  1.00  0.00     0.181 HD
ENDROOT
BRANCH   1   5
HETATM    5  C   UNL     1     -42.200 -50.494  13.661  1.00  0.00     0.147 C 
BRANCH   5   6
HETATM    6  C   UNL     1     -41.042 -50.527  12.720  1.00  0.00     0.006 A 
HETATM    7  C   UNL     1     -40.753 -49.770  11.540  1.00  0.00     0.038 A 
HETATM    8  C   UNL     1     -41.537 -48.708  10.859  1.00  0.00     0.071 C 
HETATM    9  N   UNL     1     -39.566 -50.111  11.024  1.00  0.00    -0.265 N 
HETATM   10  O   UNL     1     -39.037 -51.057  11.867  1.00  0.00    -0.242 OA
ATOM     11  HN  UNL     1     -39.139 -49.742  10.175  1.00  0.00     0.194 HD
HETATM   12  C   UNL     1     -39.903 -51.296  12.881  1.00  0.00     0.081 A 
HETATM   13  C   UNL     1     -39.444 -52.263  13.899  1.00  0.00     0.079 C 
ENDBRANCH   5   6
ENDBRANCH   1   5
BRANCH   3  14
HETATM   14  S   UNL     1     -45.309 -52.894  12.640  1.00  0.00     0.233 S 
HETATM   15  O   UNL     1     -46.378 -52.484  11.751  1.00  0.00    -0.206 OA
HETATM   16  O   UNL     1     -44.475 -54.043  12.369  1.00  0.00    -0.206 OA
BRANCH  14  17
HETATM   17  C   UNL     1     -46.039 -53.112  14.281  1.00  0.00     0.168 C 
BRANCH  17  18
HETATM   18  C   UNL     1     -46.512 -51.732  14.675  1.00  0.00     0.001 A 
HETATM   19  C   UNL     1     -45.994 -51.037  15.911  1.00  0.00     0.006 A 
HETATM   20  C   UNL     1     -47.406 -51.544  15.878  1.00  0.00     0.006 A 
ENDBRANCH  17  18
ENDBRANCH  14  17
ENDBRANCH   3  14
TORSDOF 5
ENDMDL
MODEL 8
REMARK VINA RESULT:      -5.3      2.467      6.087
REMARK  5 active torsions:
REMARK  status: ('A' for Active; 'I' for Inactive)
REMARK    1  A    between atoms: C_8  and  C_9 
REMARK    2  A    between atoms: C_9  and  C_10 
REMARK       I    between atoms: C_10  and  N_12 
REMARK    3  A    between atoms: N_12  and  S_13 
REMARK    4  A    between atoms: S_13  and  C_16 
REMARK    5  A    between atoms: C_16  and  C_17 
ROOT
HETATM    1  C   UNL     1     -41.958 -49.112  11.873  1.00  0.00     0.235 C 
HETATM    2  O   UNL     1     -42.140 -48.472  12.898  1.00  0.00    -0.272 OA
HETATM    3  N   UNL     1     -42.182 -50.511  11.794  1.00  0.00    -0.254 N 
HETATM    4  H   UNL     1     -42.079 -51.019  10.924  1.00  0.00     0.181 HD
ENDROOT
BRANCH   1   5
HETATM    5  C   UNL     1     -41.468 -48.419  10.618  1.00  0.00     0.147 C 
BRANCH   5   6
HETATM    6  C   UNL     1     -42.072 -47.082  10.343  1.00  0.00     0.006 A 
HETATM    7  C   UNL     1     -43.412 -46.690  10.028  1.00  0.00     0.038 A 
HETATM    8  C   UNL     1     -44.640 -47.506   9.854  1.00  0.00     0.071 C 
HETATM    9  N   UNL     1     -43.510 -45.361   9.896  1.00  0.00    -0.265 N 
HETATM   10  O   UNL     1     -42.262 -44.855  10.159  1.00  0.00    -0.242 OA
ATOM     11  HN  UNL     1     -44.345 -44.831   9.649  1.00  0.00     0.194 HD
HETATM   12  C   UNL     1     -41.409 -45.871  10.438  1.00  0.00     0.081 A 
HETATM   13  C   UNL     1     -40.032 -45.471  10.791  1.00  0.00     0.079 C 
ENDBRANCH   5   6
ENDBRANCH   1   5
BRANCH   3  14
HETATM   14  S   UNL     1     -42.667 -51.340  13.168  1.00  0.00     0.233 S 
HETATM   15  O   UNL     1     -42.987 -52.689  12.744  1.00  0.00    -0.206 OA
HETATM   16  O   UNL     1     -41.683 -51.062  14.189  1.00  0.00    -0.206 OA
BRANCH  14  17
HETATM   17  C   UNL     1     -44.220 -50.558  13.666  1.00  0.00     0.168 C 
BRANCH  17  18
HETATM   18  C   UNL     1     -45.243 -51.669  13.606  1.00  0.00     0.001 A 
HETATM   19  C   UNL     1     -46.465 -51.578  12.723  1.00  0.00     0.006 A 
HETATM   20  C   UNL     1     -46.613 -51.480  14.213  1.00  0.00     0.006 A 
ENDBRANCH  17  18
ENDBRANCH  14  17
ENDBRANCH   3  14
TORSDOF 5
ENDMDL
MODEL 9
REMARK VINA RESULT:      -5.2      4.214      6.067
REMARK  5 active torsions:
REMARK  status: ('A' for Active; 'I' for Inactive)
REMARK    1  A    between atoms: C_8  and  C_9 
REMARK    2  A    between atoms: C_9  and  C_10 
REMARK       I    between atoms: C_10  and  N_12 
REMARK    3  A    between atoms: N_12  and  S_13 
REMARK    4  A    between atoms: S_13  and  C_16 
REMARK    5  A    between atoms: C_16  and  C_17 
ROOT
HETATM    1  C   UNL     1     -42.987 -53.208  15.722  1.00  0.00     0.235 C 
HETATM    2  O   UNL     1     -42.879 -54.255  16.343  1.00  0.00    -0.272 OA
HETATM    3  N   UNL     1     -44.243 -52.675  15.333  1.00  0.00    -0.254 N 
HETATM    4  H   UNL     1     -44.321 -51.779  14.866  1.00  0.00     0.181 HD
ENDROOT
BRANCH   1   5
HETATM    5  C   UNL     1     -41.752 -52.422  15.329  1.00  0.00     0.147 C 
BRANCH   5   6
HETATM    6  C   UNL     1     -41.400 -52.458  13.879  1.00  0.00     0.006 A 
HETATM    7  C   UNL     1     -41.785 -51.620  12.786  1.00  0.00     0.038 A 
HETATM    8  C   UNL     1     -42.686 -50.439  12.745  1.00  0.00     0.071 C 
HETATM    9  N   UNL     1     -41.193 -52.004  11.648  1.00  0.00    -0.265 N 
HETATM   10  O   UNL     1     -40.384 -53.064  11.974  1.00  0.00    -0.242 OA
ATOM     11  HN  UNL     1     -41.317 -51.591  10.724  1.00  0.00     0.194 HD
HETATM   12  C   UNL     1     -40.494 -53.328  13.298  1.00  0.00     0.081 A 
HETATM   13  C   UNL     1     -39.639 -54.420  13.806  1.00  0.00     0.079 C 
ENDBRANCH   5   6
ENDBRANCH   1   5
BRANCH   3  14
HETATM   14  S   UNL     1     -45.640 -53.532  15.687  1.00  0.00     0.233 S 
HETATM   15  O   UNL     1     -45.470 -54.852  15.115  1.00  0.00    -0.206 OA
HETATM   16  O   UNL     1     -45.909 -53.325  17.091  1.00  0.00    -0.206 OA
BRANCH  14  17
HETATM   17  C   UNL     1     -46.947 -52.710  14.744  1.00  0.00     0.168 C 
BRANCH  17  18
HETATM   18  C   UNL     1     -46.216 -51.931  13.675  1.00  0.00     0.001 A 
HETATM   19  C   UNL     1     -46.872 -51.574  12.363  1.00  0.00     0.006 A 
HETATM   20  C   UNL     1     -45.785 -52.608  12.395  1.00  0.00     0.006 A 
ENDBRANCH  17  18
ENDBRANCH  14  17
ENDBRANCH   3  14
TORSDOF 5
ENDMDL
