MODEL 1
REMARK VINA RESULT:      -7.1      0.000      0.000
REMARK  7 active torsions:
REMARK  status: ('A' for Active; 'I' for Inactive)
REMARK    1  A    between atoms: N_1  and  C_10 
REMARK    2  A    between atoms: N_2  and  C_8 
REMARK    3  A    between atoms: C_7  and  O_11 
REMARK    4  A    between atoms: C_10  and  C_20 
REMARK    5  A    between atoms: O_11  and  C_21 
REMARK    6  A    between atoms: C_20  and  C_21 
REMARK    7  A    between atoms: C_20  and  O_22 
ROOT
HETATM    1  C   UNL     1     -38.573 -52.020  14.348  1.00  0.00     0.171 C 
ENDROOT
BRANCH   1   2
HETATM    2  N   UNL     1     -38.589 -50.912  13.381  1.00  0.00    -0.261 N 
HETATM    3  C   UNL     1     -39.345 -49.760  13.601  1.00  0.00     0.333 C 
HETATM    4  N   UNL     1     -39.409 -48.864  12.531  1.00  0.00    -0.279 N 
HETATM    5  O   UNL     1     -39.956 -49.545  14.648  1.00  0.00    -0.246 OA
HETATM    6  C   UNL     1     -38.543 -48.945  11.460  1.00  0.00     0.146 C 
HETATM    7  C   UNL     1     -37.659 -49.927  11.362  1.00  0.00     0.200 C 
HETATM    8  C   UNL     1     -37.635 -51.002  12.369  1.00  0.00     0.291 C 
HETATM    9  F   UNL     1     -36.801 -50.018  10.326  1.00  0.00    -0.199 F 
HETATM   10  O   UNL     1     -36.797 -51.899  12.284  1.00  0.00    -0.264 OA
BRANCH   4  11
HETATM   11  C   UNL     1     -40.494 -47.894  12.549  1.00  0.00     0.232 C 
HETATM   12  O   UNL     1     -41.150 -47.848  11.266  1.00  0.00    -0.366 OA
HETATM   13  C   UNL     1     -41.775 -46.561  11.147  1.00  0.00     0.170 C 
HETATM   14  C   UNL     1     -41.381 -45.751  12.370  1.00  0.00     0.031 C 
HETATM   15  C   UNL     1     -40.125 -46.452  12.844  1.00  0.00     0.056 C 
ENDBRANCH   4  11
ENDBRANCH   1   2
BRANCH   1  16
HETATM   16  C   UNL     1     -39.460 -53.263  14.132  1.00  0.00     0.161 C 
BRANCH  16  17
HETATM   17  C   UNL     1     -40.808 -52.994  13.452  1.00  0.00     0.209 C 
BRANCH  17  18
HETATM   18  O   UNL     1     -41.742 -52.369  14.355  1.00  0.00    -0.347 OA
BRANCH  18  19
HETATM   19  C   UNL     1     -43.060 -52.638  14.043  1.00  0.00     0.081 C 
HETATM   20  C   UNL     1     -43.672 -53.894  14.277  1.00  0.00    -0.022 C 
HETATM   21  C   UNL     1     -44.967 -54.136  13.757  1.00  0.00    -0.053 C 
HETATM   22  C   UNL     1     -43.021 -54.970  15.106  1.00  0.00     0.052 C 
HETATM   23  C   UNL     1     -45.660 -53.098  13.121  1.00  0.00     0.008 C 
HETATM   24  C   UNL     1     -45.628 -55.490  13.788  1.00  0.00     0.049 C 
HETATM   25  C   UNL     1     -45.101 -51.829  13.020  1.00  0.00     0.010 C 
HETATM   26  C   UNL     1     -43.801 -51.581  13.481  1.00  0.00    -0.028 C 
HETATM   27  C   UNL     1     -43.279 -50.177  13.340  1.00  0.00     0.051 C 
ENDBRANCH  18  19
ENDBRANCH  17  18
ENDBRANCH  16  17
BRANCH  16  28
HETATM   28  O   UNL     1     -38.723 -54.212  13.337  1.00  0.00    -0.392 OA
HETATM   29  H   UNL     1     -39.180 -55.068  13.428  1.00  0.00     0.210 HD
ENDBRANCH  16  28
ENDBRANCH   1  16
TORSDOF 7
ENDMDL
MODEL 2
REMARK VINA RESULT:      -7.1      1.674      2.592
REMARK  7 active torsions:
REMARK  status: ('A' for Active; 'I' for Inactive)
REMARK    1  A    between atoms: N_1  and  C_10 
REMARK    2  A    between atoms: N_2  and  C_8 
REMARK    3  A    between atoms: C_7  and  O_11 
REMARK    4  A    between atoms: C_10  and  C_20 
REMARK    5  A    between atoms: O_11  and  C_21 
REMARK    6  A    between atoms: C_20  and  C_21 
REMARK    7  A    between atoms: C_20  and  O_22 
ROOT
HETATM    1  C   UNL     1     -40.583 -52.039  13.559  1.00  0.00     0.171 C 
ENDROOT
BRANCH   1   2
HETATM    2  N   UNL     1     -40.123 -50.814  12.887  1.00  0.00    -0.261 N 
HETATM    3  C   UNL     1     -40.921 -49.672  12.822  1.00  0.00     0.333 C 
HETATM    4  N   UNL     1     -40.440 -48.642  12.010  1.00  0.00    -0.279 N 
HETATM    5  O   UNL     1     -42.002 -49.571  13.402  1.00  0.00    -0.246 OA
HETATM    6  C   UNL     1     -39.135 -48.616  11.562  1.00  0.00     0.146 C 
HETATM    7  C   UNL     1     -38.299 -49.612  11.820  1.00  0.00     0.200 C 
HETATM    8  C   UNL     1     -38.775 -50.809  12.534  1.00  0.00     0.291 C 
HETATM    9  F   UNL     1     -37.019 -49.601  11.395  1.00  0.00    -0.199 F 
HETATM   10  O   UNL     1     -37.989 -51.720  12.789  1.00  0.00    -0.264 OA
BRANCH   4  11
HETATM   11  C   UNL     1     -41.402 -47.640  11.576  1.00  0.00     0.232 C 
HETATM   12  O   UNL     1     -42.240 -48.166  10.529  1.00  0.00    -0.366 OA
HETATM   13  C   UNL     1     -42.739 -47.050   9.774  1.00  0.00     0.170 C 
HETATM   14  C   UNL     1     -42.078 -45.799  10.325  1.00  0.00     0.031 C 
HETATM   15  C   UNL     1     -40.844 -46.347  11.010  1.00  0.00     0.056 C 
ENDBRANCH   4  11
ENDBRANCH   1   2
BRANCH   1  16
HETATM   16  C   UNL     1     -41.302 -53.147  12.764  1.00  0.00     0.161 C 
BRANCH  16  17
HETATM   17  C   UNL     1     -42.759 -52.845  12.394  1.00  0.00     0.209 C 
BRANCH  17  18
HETATM   18  O   UNL     1     -43.638 -53.923  12.777  1.00  0.00    -0.347 OA
BRANCH  18  19
HETATM   19  C   UNL     1     -44.375 -53.644  13.911  1.00  0.00     0.081 C 
HETATM   20  C   UNL     1     -45.503 -52.786  13.912  1.00  0.00    -0.022 C 
HETATM   21  C   UNL     1     -46.081 -52.414  15.150  1.00  0.00    -0.053 C 
HETATM   22  C   UNL     1     -46.147 -52.294  12.643  1.00  0.00     0.052 C 
HETATM   23  C   UNL     1     -45.603 -52.984  16.336  1.00  0.00     0.008 C 
HETATM   24  C   UNL     1     -47.159 -51.367  15.274  1.00  0.00     0.049 C 
HETATM   25  C   UNL     1     -44.585 -53.931  16.307  1.00  0.00     0.010 C 
HETATM   26  C   UNL     1     -43.962 -54.276  15.099  1.00  0.00    -0.028 C 
HETATM   27  C   UNL     1     -42.877 -55.315  15.159  1.00  0.00     0.051 C 
ENDBRANCH  18  19
ENDBRANCH  17  18
ENDBRANCH  16  17
BRANCH  16  28
HETATM   28  O   UNL     1     -40.559 -53.390  11.554  1.00  0.00    -0.392 OA
HETATM   29  H   UNL     1     -40.607 -52.572  11.026  1.00  0.00     0.210 HD
ENDBRANCH  16  28
ENDBRANCH   1  16
TORSDOF 7
ENDMDL
MODEL 3
REMARK VINA RESULT:      -6.6      2.064      2.844
REMARK  7 active torsions:
REMARK  status: ('A' for Active; 'I' for Inactive)
REMARK    1  A    between atoms: N_1  and  C_10 
REMARK    2  A    between atoms: N_2  and  C_8 
REMARK    3  A    between atoms: C_7  and  O_11 
REMARK    4  A    between atoms: C_10  and  C_20 
REMARK    5  A    between atoms: O_11  and  C_21 
REMARK    6  A    between atoms: C_20  and  C_21 
REMARK    7  A    between atoms: C_20  and  O_22 
ROOT
HETATM    1  C   UNL     1     -41.049 -51.798  11.773  1.00  0.00     0.171 C 
ENDROOT
BRANCH   1   2
HETATM    2  N   UNL     1     -40.272 -50.649  12.261  1.00  0.00    -0.261 N 
HETATM    3  C   UNL     1     -40.805 -49.360  12.280  1.00  0.00     0.333 C 
HETATM    4  N   UNL     1     -39.909 -48.338  12.602  1.00  0.00    -0.279 N 
HETATM    5  O   UNL     1     -41.977 -49.112  11.997  1.00  0.00    -0.246 OA
HETATM    6  C   UNL     1     -38.678 -48.600  13.167  1.00  0.00     0.146 C 
HETATM    7  C   UNL     1     -38.259 -49.842  13.360  1.00  0.00     0.200 C 
HETATM    8  C   UNL     1     -39.078 -50.976  12.902  1.00  0.00     0.291 C 
HETATM    9  F   UNL     1     -37.062 -50.116  13.918  1.00  0.00    -0.199 F 
HETATM   10  O   UNL     1     -38.694 -52.128  13.103  1.00  0.00    -0.264 OA
BRANCH   4  11
HETATM   11  C   UNL     1     -40.290 -46.984  12.226  1.00  0.00     0.232 C 
HETATM   12  O   UNL     1     -40.025 -46.755  10.829  1.00  0.00    -0.366 OA
HETATM   13  C   UNL     1     -39.868 -45.339  10.646  1.00  0.00     0.170 C 
HETATM   14  C   UNL     1     -39.930 -44.695  12.021  1.00  0.00     0.031 C 
HETATM   15  C   UNL     1     -39.588 -45.846  12.944  1.00  0.00     0.056 C 
ENDBRANCH   4  11
ENDBRANCH   1   2
BRANCH   1  16
HETATM   16  C   UNL     1     -41.526 -52.894  12.748  1.00  0.00     0.161 C 
BRANCH  16  17
HETATM   17  C   UNL     1     -43.045 -53.002  12.919  1.00  0.00     0.209 C 
BRANCH  17  18
HETATM   18  O   UNL     1     -43.690 -51.722  12.756  1.00  0.00    -0.347 OA
BRANCH  18  19
HETATM   19  C   UNL     1     -44.563 -51.421  13.783  1.00  0.00     0.081 C 
HETATM   20  C   UNL     1     -44.141 -50.894  15.029  1.00  0.00    -0.022 C 
HETATM   21  C   UNL     1     -45.080 -50.791  16.084  1.00  0.00    -0.053 C 
HETATM   22  C   UNL     1     -42.743 -50.386  15.263  1.00  0.00     0.052 C 
HETATM   23  C   UNL     1     -46.424 -51.104  15.846  1.00  0.00     0.008 C 
HETATM   24  C   UNL     1     -44.697 -50.421  17.495  1.00  0.00     0.049 C 
HETATM   25  C   UNL     1     -46.849 -51.489  14.579  1.00  0.00     0.010 C 
HETATM   26  C   UNL     1     -45.929 -51.648  13.534  1.00  0.00    -0.028 C 
HETATM   27  C   UNL     1     -46.476 -52.058  12.194  1.00  0.00     0.051 C 
ENDBRANCH  18  19
ENDBRANCH  17  18
ENDBRANCH  16  17
BRANCH  16  28
HETATM   28  O   UNL     1     -41.021 -54.162  12.285  1.00  0.00    -0.392 OA
HETATM   29  H   UNL     1     -40.511 -54.546  13.021  1.00  0.00     0.210 HD
ENDBRANCH  16  28
ENDBRANCH   1  16
TORSDOF 7
ENDMDL
MODEL 4
REMARK VINA RESULT:      -6.3      2.299      4.711
REMARK  7 active torsions:
REMARK  status: ('A' for Active; 'I' for Inactive)
REMARK    1  A    between atoms: N_1  and  C_10 
REMARK    2  A    between atoms: N_2  and  C_8 
REMARK    3  A    between atoms: C_7  and  O_11 
REMARK    4  A    between atoms: C_10  and  C_20 
REMARK    5  A    between atoms: O_11  and  C_21 
REMARK    6  A    between atoms: C_20  and  C_21 
REMARK    7  A    between atoms: C_20  and  O_22 
ROOT
HETATM    1  C   UNL     1     -39.456 -49.999  13.781  1.00  0.00     0.171 C 
ENDROOT
BRANCH   1   2
HETATM    2  N   UNL     1     -40.860 -49.755  13.423  1.00  0.00    -0.261 N 
HETATM    3  C   UNL     1     -41.910 -50.289  14.171  1.00  0.00     0.333 C 
HETATM    4  N   UNL     1     -43.187 -50.127  13.626  1.00  0.00    -0.279 N 
HETATM    5  O   UNL     1     -41.742 -50.902  15.225  1.00  0.00    -0.246 OA
HETATM    6  C   UNL     1     -43.434 -49.237  12.601  1.00  0.00     0.146 C 
HETATM    7  C   UNL     1     -42.452 -48.551  12.034  1.00  0.00     0.200 C 
HETATM    8  C   UNL     1     -41.057 -48.783  12.443  1.00  0.00     0.291 C 
HETATM    9  F   UNL     1     -42.676 -47.672  11.035  1.00  0.00    -0.199 F 
HETATM   10  O   UNL     1     -40.152 -48.127  11.927  1.00  0.00    -0.264 OA
BRANCH   4  11
HETATM   11  C   UNL     1     -44.232 -51.008  14.124  1.00  0.00     0.232 C 
HETATM   12  O   UNL     1     -45.268 -51.170  13.135  1.00  0.00    -0.366 OA
HETATM   13  C   UNL     1     -46.473 -51.534  13.828  1.00  0.00     0.170 C 
HETATM   14  C   UNL     1     -46.174 -51.477  15.316  1.00  0.00     0.031 C 
HETATM   15  C   UNL     1     -44.964 -50.569  15.380  1.00  0.00     0.056 C 
ENDBRANCH   4  11
ENDBRANCH   1   2
BRANCH   1  16
HETATM   16  C   UNL     1     -38.758 -51.311  13.369  1.00  0.00     0.161 C 
BRANCH  16  17
HETATM   17  C   UNL     1     -38.851 -52.450  14.390  1.00  0.00     0.209 C 
BRANCH  17  18
HETATM   18  O   UNL     1     -39.245 -53.690  13.769  1.00  0.00    -0.347 OA
BRANCH  18  19
HETATM   19  C   UNL     1     -40.239 -54.352  14.462  1.00  0.00     0.081 C 
HETATM   20  C   UNL     1     -41.610 -54.279  14.110  1.00  0.00    -0.022 C 
HETATM   21  C   UNL     1     -42.574 -54.837  14.984  1.00  0.00    -0.053 C 
HETATM   22  C   UNL     1     -42.083 -53.677  12.813  1.00  0.00     0.052 C 
HETATM   23  C   UNL     1     -42.152 -55.545  16.117  1.00  0.00     0.008 C 
HETATM   24  C   UNL     1     -44.059 -54.653  14.799  1.00  0.00     0.049 C 
HETATM   25  C   UNL     1     -40.798 -55.727  16.376  1.00  0.00     0.010 C 
HETATM   26  C   UNL     1     -39.827 -55.139  15.553  1.00  0.00    -0.028 C 
HETATM   27  C   UNL     1     -38.387 -55.395  15.902  1.00  0.00     0.051 C 
ENDBRANCH  18  19
ENDBRANCH  17  18
ENDBRANCH  16  17
BRANCH  16  28
HETATM   28  O   UNL     1     -39.333 -51.757  12.125  1.00  0.00    -0.392 OA
HETATM   29  H   UNL     1     -40.269 -51.959  12.306  1.00  0.00     0.210 HD
ENDBRANCH  16  28
ENDBRANCH   1  16
TORSDOF 7
ENDMDL
MODEL 5
REMARK VINA RESULT:      -6.2      2.194      3.558
REMARK  7 active torsions:
REMARK  status: ('A' for Active; 'I' for Inactive)
REMARK    1  A    between atoms: N_1  and  C_10 
REMARK    2  A    between atoms: N_2  and  C_8 
REMARK    3  A    between atoms: C_7  and  O_11 
REMARK    4  A    between atoms: C_10  and  C_20 
REMARK    5  A    between atoms: O_11  and  C_21 
REMARK    6  A    between atoms: C_20  and  C_21 
REMARK    7  A    between atoms: C_20  and  O_22 
ROOT
HETATM    1  C   UNL     1     -37.919 -49.756  12.117  1.00  0.00     0.171 C 
ENDROOT
BRANCH   1   2
HETATM    2  N   UNL     1     -38.971 -48.735  12.234  1.00  0.00    -0.261 N 
HETATM    3  C   UNL     1     -40.163 -48.827  11.515  1.00  0.00     0.333 C 
HETATM    4  N   UNL     1     -41.000 -47.710  11.583  1.00  0.00    -0.279 N 
HETATM    5  O   UNL     1     -40.462 -49.803  10.827  1.00  0.00    -0.246 OA
HETATM    6  C   UNL     1     -40.824 -46.724  12.532  1.00  0.00     0.146 C 
HETATM    7  C   UNL     1     -39.802 -46.757  13.376  1.00  0.00     0.200 C 
HETATM    8  C   UNL     1     -38.786 -47.816  13.265  1.00  0.00     0.291 C 
HETATM    9  F   UNL     1     -39.619 -45.805  14.315  1.00  0.00    -0.199 F 
HETATM   10  O   UNL     1     -37.852 -47.852  14.065  1.00  0.00    -0.264 OA
BRANCH   4  11
HETATM   11  C   UNL     1     -42.012 -47.581  10.545  1.00  0.00     0.232 C 
HETATM   12  O   UNL     1     -42.023 -46.242  10.014  1.00  0.00    -0.366 OA
HETATM   13  C   UNL     1     -43.327 -46.007   9.461  1.00  0.00     0.170 C 
HETATM   14  C   UNL     1     -44.179 -47.224   9.776  1.00  0.00     0.031 C 
HETATM   15  C   UNL     1     -43.451 -47.846  10.950  1.00  0.00     0.056 C 
ENDBRANCH   4  11
ENDBRANCH   1   2
BRANCH   1  16
HETATM   16  C   UNL     1     -37.831 -50.912  13.133  1.00  0.00     0.161 C 
BRANCH  16  17
HETATM   17  C   UNL     1     -39.178 -51.447  13.633  1.00  0.00     0.209 C 
BRANCH  17  18
HETATM   18  O   UNL     1     -39.457 -52.759  13.104  1.00  0.00    -0.347 OA
BRANCH  18  19
HETATM   19  C   UNL     1     -40.451 -53.423  13.796  1.00  0.00     0.081 C 
HETATM   20  C   UNL     1     -40.211 -54.158  14.984  1.00  0.00    -0.022 C 
HETATM   21  C   UNL     1     -41.251 -54.956  15.520  1.00  0.00    -0.053 C 
HETATM   22  C   UNL     1     -38.906 -54.083  15.733  1.00  0.00     0.052 C 
HETATM   23  C   UNL     1     -42.523 -54.917  14.935  1.00  0.00     0.008 C 
HETATM   24  C   UNL     1     -41.047 -55.915  16.665  1.00  0.00     0.049 C 
HETATM   25  C   UNL     1     -42.780 -54.084  13.852  1.00  0.00     0.010 C 
HETATM   26  C   UNL     1     -41.754 -53.326  13.273  1.00  0.00    -0.028 C 
HETATM   27  C   UNL     1     -42.123 -52.446  12.110  1.00  0.00     0.051 C 
ENDBRANCH  18  19
ENDBRANCH  17  18
ENDBRANCH  16  17
BRANCH  16  28
HETATM   28  O   UNL     1     -37.100 -51.994  12.525  1.00  0.00    -0.392 OA
HETATM   29  H   UNL     1     -36.773 -51.665  11.668  1.00  0.00     0.210 HD
ENDBRANCH  16  28
ENDBRANCH   1  16
TORSDOF 7
ENDMDL
MODEL 6
REMARK VINA RESULT:      -6.2      2.390      4.054
REMARK  7 active torsions:
REMARK  status: ('A' for Active; 'I' for Inactive)
REMARK    1  A    between atoms: N_1  and  C_10 
REMARK    2  A    between atoms: N_2  and  C_8 
REMARK    3  A    between atoms: C_7  and  O_11 
REMARK    4  A    between atoms: C_10  and  C_20 
REMARK    5  A    between atoms: O_11  and  C_21 
REMARK    6  A    between atoms: C_20  and  C_21 
REMARK    7  A    between atoms: C_20  and  O_22 
ROOT
HETATM    1  C   UNL     1     -38.900 -48.850  12.505  1.00  0.00     0.171 C 
ENDROOT
BRANCH   1   2
HETATM    2  N   UNL     1     -40.116 -48.025  12.463  1.00  0.00    -0.261 N 
HETATM    3  C   UNL     1     -41.044 -48.141  11.428  1.00  0.00     0.333 C 
HETATM    4  N   UNL     1     -42.062 -47.184  11.415  1.00  0.00    -0.279 N 
HETATM    5  O   UNL     1     -40.969 -49.000  10.550  1.00  0.00    -0.246 OA
HETATM    6  C   UNL     1     -42.322 -46.383  12.508  1.00  0.00     0.146 C 
HETATM    7  C   UNL     1     -41.565 -46.434  13.594  1.00  0.00     0.200 C 
HETATM    8  C   UNL     1     -40.377 -47.302  13.626  1.00  0.00     0.291 C 
HETATM    9  F   UNL     1     -41.809 -45.663  14.674  1.00  0.00    -0.199 F 
HETATM   10  O   UNL     1     -39.691 -47.362  14.646  1.00  0.00    -0.264 OA
BRANCH   4  11
HETATM   11  C   UNL     1     -42.778 -47.000  10.162  1.00  0.00     0.232 C 
HETATM   12  O   UNL     1     -42.857 -45.601   9.826  1.00  0.00    -0.366 OA
HETATM   13  C   UNL     1     -43.994 -45.427   8.965  1.00  0.00     0.170 C 
HETATM   14  C   UNL     1     -44.700 -46.769   8.871  1.00  0.00     0.031 C 
HETATM   15  C   UNL     1     -44.214 -47.490  10.111  1.00  0.00     0.056 C 
ENDBRANCH   4  11
ENDBRANCH   1   2
BRANCH   1  16
HETATM   16  C   UNL     1     -38.984 -50.357  12.818  1.00  0.00     0.161 C 
BRANCH  16  17
HETATM   17  C   UNL     1     -40.270 -50.808  13.520  1.00  0.00     0.209 C 
BRANCH  17  18
HETATM   18  O   UNL     1     -41.173 -51.462  12.606  1.00  0.00    -0.347 OA
BRANCH  18  19
HETATM   19  C   UNL     1     -42.243 -52.064  13.239  1.00  0.00     0.081 C 
HETATM   20  C   UNL     1     -43.416 -51.363  13.616  1.00  0.00    -0.022 C 
HETATM   21  C   UNL     1     -44.378 -52.018  14.423  1.00  0.00    -0.053 C 
HETATM   22  C   UNL     1     -43.707 -49.962  13.148  1.00  0.00     0.052 C 
HETATM   23  C   UNL     1     -44.209 -53.372  14.738  1.00  0.00     0.008 C 
HETATM   24  C   UNL     1     -45.563 -51.310  15.030  1.00  0.00     0.049 C 
HETATM   25  C   UNL     1     -43.121 -54.085  14.245  1.00  0.00     0.010 C 
HETATM   26  C   UNL     1     -42.130 -53.444  13.489  1.00  0.00    -0.028 C 
HETATM   27  C   UNL     1     -40.993 -54.293  12.989  1.00  0.00     0.051 C 
ENDBRANCH  18  19
ENDBRANCH  17  18
ENDBRANCH  16  17
BRANCH  16  28
HETATM   28  O   UNL     1     -38.855 -51.084  11.580  1.00  0.00    -0.392 OA
HETATM   29  H   UNL     1     -38.746 -50.419  10.875  1.00  0.00     0.210 HD
ENDBRANCH  16  28
ENDBRANCH   1  16
TORSDOF 7
ENDMDL
MODEL 7
REMARK VINA RESULT:      -6.1      2.729      7.355
REMARK  7 active torsions:
REMARK  status: ('A' for Active; 'I' for Inactive)
REMARK    1  A    between atoms: N_1  and  C_10 
REMARK    2  A    between atoms: N_2  and  C_8 
REMARK    3  A    between atoms: C_7  and  O_11 
REMARK    4  A    between atoms: C_10  and  C_20 
REMARK    5  A    between atoms: O_11  and  C_21 
REMARK    6  A    between atoms: C_20  and  C_21 
REMARK    7  A    between atoms: C_20  and  O_22 
ROOT
HETATM    1  C   UNL     1     -40.413 -49.838  12.886  1.00  0.00     0.171 C 
ENDROOT
BRANCH   1   2
HETATM    2  N   UNL     1     -41.495 -50.813  13.085  1.00  0.00    -0.261 N 
HETATM    3  C   UNL     1     -42.810 -50.410  13.321  1.00  0.00     0.333 C 
HETATM    4  N   UNL     1     -43.704 -51.427  13.664  1.00  0.00    -0.279 N 
HETATM    5  O   UNL     1     -43.172 -49.234  13.274  1.00  0.00    -0.246 OA
HETATM    6  C   UNL     1     -43.399 -52.760  13.474  1.00  0.00     0.146 C 
HETATM    7  C   UNL     1     -42.210 -53.137  13.029  1.00  0.00     0.200 C 
HETATM    8  C   UNL     1     -41.157 -52.134  12.795  1.00  0.00     0.291 C 
HETATM    9  F   UNL     1     -41.897 -54.434  12.831  1.00  0.00    -0.199 F 
HETATM   10  O   UNL     1     -40.062 -52.489  12.361  1.00  0.00    -0.264 OA
BRANCH   4  11
HETATM   11  C   UNL     1     -44.939 -51.025  14.320  1.00  0.00     0.232 C 
HETATM   12  O   UNL     1     -44.794 -51.091  15.752  1.00  0.00    -0.366 OA
HETATM   13  C   UNL     1     -46.107 -51.251  16.312  1.00  0.00     0.170 C 
HETATM   14  C   UNL     1     -47.078 -51.402  15.154  1.00  0.00     0.031 C 
HETATM   15  C   UNL     1     -46.179 -51.848  14.020  1.00  0.00     0.056 C 
ENDBRANCH   4  11
ENDBRANCH   1   2
BRANCH   1  16
HETATM   16  C   UNL     1     -40.215 -49.152  11.519  1.00  0.00     0.161 C 
BRANCH  16  17
HETATM   17  C   UNL     1     -39.837 -47.668  11.581  1.00  0.00     0.209 C 
BRANCH  17  18
HETATM   18  O   UNL     1     -40.641 -46.955  12.544  1.00  0.00    -0.347 OA
BRANCH  18  19
HETATM   19  C   UNL     1     -40.942 -45.667  12.149  1.00  0.00     0.081 C 
HETATM   20  C   UNL     1     -40.152 -44.544  12.499  1.00  0.00    -0.022 C 
HETATM   21  C   UNL     1     -40.637 -43.245  12.209  1.00  0.00    -0.053 C 
HETATM   22  C   UNL     1     -38.786 -44.676  13.121  1.00  0.00     0.052 C 
HETATM   23  C   UNL     1     -41.827 -43.098  11.486  1.00  0.00     0.008 C 
HETATM   24  C   UNL     1     -39.968 -41.986  12.701  1.00  0.00     0.049 C 
HETATM   25  C   UNL     1     -42.522 -44.212  11.029  1.00  0.00     0.010 C 
HETATM   26  C   UNL     1     -42.089 -45.506  11.350  1.00  0.00    -0.028 C 
HETATM   27  C   UNL     1     -42.895 -46.654  10.806  1.00  0.00     0.051 C 
ENDBRANCH  18  19
ENDBRANCH  17  18
ENDBRANCH  16  17
BRANCH  16  28
HETATM   28  O   UNL     1     -39.187 -49.862  10.802  1.00  0.00    -0.392 OA
HETATM   29  H   UNL     1     -38.333 -49.526  11.131  1.00  0.00     0.210 HD
ENDBRANCH  16  28
ENDBRANCH   1  16
TORSDOF 7
ENDMDL
MODEL 8
REMARK VINA RESULT:      -6.1      2.836      4.376
REMARK  7 active torsions:
REMARK  status: ('A' for Active; 'I' for Inactive)
REMARK    1  A    between atoms: N_1  and  C_10 
REMARK    2  A    between atoms: N_2  and  C_8 
REMARK    3  A    between atoms: C_7  and  O_11 
REMARK    4  A    between atoms: C_10  and  C_20 
REMARK    5  A    between atoms: O_11  and  C_21 
REMARK    6  A    between atoms: C_20  and  C_21 
REMARK    7  A    between atoms: C_20  and  O_22 
ROOT
HETATM    1  C   UNL     1     -41.817 -54.504  14.097  1.00  0.00     0.171 C 
ENDROOT
BRANCH   1   2
HETATM    2  N   UNL     1     -41.159 -53.220  13.809  1.00  0.00    -0.261 N 
HETATM    3  C   UNL     1     -39.862 -52.949  14.244  1.00  0.00     0.333 C 
HETATM    4  N   UNL     1     -39.421 -51.636  14.056  1.00  0.00    -0.279 N 
HETATM    5  O   UNL     1     -39.148 -53.786  14.796  1.00  0.00    -0.246 OA
HETATM    6  C   UNL     1     -40.083 -50.758  13.223  1.00  0.00     0.146 C 
HETATM    7  C   UNL     1     -41.214 -51.099  12.622  1.00  0.00     0.200 C 
HETATM    8  C   UNL     1     -41.829 -52.409  12.894  1.00  0.00     0.291 C 
HETATM    9  F   UNL     1     -41.871 -50.255  11.799  1.00  0.00    -0.199 F 
HETATM   10  O   UNL     1     -42.867 -52.728  12.316  1.00  0.00    -0.264 OA
BRANCH   4  11
HETATM   11  C   UNL     1     -38.283 -51.202  14.853  1.00  0.00     0.232 C 
HETATM   12  O   UNL     1     -38.706 -50.846  16.183  1.00  0.00    -0.366 OA
HETATM   13  C   UNL     1     -37.735 -49.930  16.714  1.00  0.00     0.170 C 
HETATM   14  C   UNL     1     -36.739 -49.634  15.606  1.00  0.00     0.031 C 
HETATM   15  C   UNL     1     -37.515 -49.992  14.355  1.00  0.00     0.056 C 
ENDBRANCH   4  11
ENDBRANCH   1   2
BRANCH   1  16
HETATM   16  C   UNL     1     -42.250 -54.858  15.533  1.00  0.00     0.161 C 
BRANCH  16  17
HETATM   17  C   UNL     1     -43.124 -53.809  16.230  1.00  0.00     0.209 C 
BRANCH  17  18
HETATM   18  O   UNL     1     -44.507 -54.216  16.275  1.00  0.00    -0.347 OA
BRANCH  18  19
HETATM   19  C   UNL     1     -45.355 -53.322  15.651  1.00  0.00     0.081 C 
HETATM   20  C   UNL     1     -45.685 -53.397  14.275  1.00  0.00    -0.022 C 
HETATM   21  C   UNL     1     -46.410 -52.335  13.683  1.00  0.00    -0.053 C 
HETATM   22  C   UNL     1     -45.340 -54.590  13.423  1.00  0.00     0.052 C 
HETATM   23  C   UNL     1     -46.884 -51.290  14.487  1.00  0.00     0.008 C 
HETATM   24  C   UNL     1     -46.650 -52.227  12.198  1.00  0.00     0.049 C 
HETATM   25  C   UNL     1     -46.671 -51.300  15.861  1.00  0.00     0.010 C 
HETATM   26  C   UNL     1     -45.911 -52.314  16.460  1.00  0.00    -0.028 C 
HETATM   27  C   UNL     1     -45.738 -52.251  17.953  1.00  0.00     0.051 C 
ENDBRANCH  18  19
ENDBRANCH  17  18
ENDBRANCH  16  17
BRANCH  16  28
HETATM   28  O   UNL     1     -42.969 -56.107  15.493  1.00  0.00    -0.392 OA
HETATM   29  H   UNL     1     -43.917 -55.883  15.469  1.00  0.00     0.210 HD
ENDBRANCH  16  28
ENDBRANCH   1  16
TORSDOF 7
ENDMDL
MODEL 9
REMARK VINA RESULT:      -6.0      3.980      6.459
REMARK  7 active torsions:
REMARK  status: ('A' for Active; 'I' for Inactive)
REMARK    1  A    between atoms: N_1  and  C_10 
REMARK    2  A    between atoms: N_2  and  C_8 
REMARK    3  A    between atoms: C_7  and  O_11 
REMARK    4  A    between atoms: C_10  and  C_20 
REMARK    5  A    between atoms: O_11  and  C_21 
REMARK    6  A    between atoms: C_20  and  C_21 
REMARK    7  A    between atoms: C_20  and  O_22 
ROOT
HETATM    1  C   UNL     1     -42.286 -54.186  12.907  1.00  0.00     0.171 C 
ENDROOT
BRANCH   1   2
HETATM    2  N   UNL     1     -41.771 -54.403  14.267  1.00  0.00    -0.261 N 
HETATM    3  C   UNL     1     -42.568 -54.952  15.273  1.00  0.00     0.333 C 
HETATM    4  N   UNL     1     -42.016 -54.943  16.556  1.00  0.00    -0.279 N 
HETATM    5  O   UNL     1     -43.702 -55.386  15.071  1.00  0.00    -0.246 OA
HETATM    6  C   UNL     1     -40.673 -54.708  16.771  1.00  0.00     0.146 C 
HETATM    7  C   UNL     1     -39.860 -54.404  15.770  1.00  0.00     0.200 C 
HETATM    8  C   UNL     1     -40.394 -54.237  14.409  1.00  0.00     0.291 C 
HETATM    9  F   UNL     1     -38.544 -54.178  15.961  1.00  0.00    -0.199 F 
HETATM   10  O   UNL     1     -39.630 -53.975  13.480  1.00  0.00    -0.264 OA
BRANCH   4  11
HETATM   11  C   UNL     1     -42.939 -55.099  17.671  1.00  0.00     0.232 C 
HETATM   12  O   UNL     1     -43.568 -53.841  17.984  1.00  0.00    -0.366 OA
HETATM   13  C   UNL     1     -43.986 -53.897  19.358  1.00  0.00     0.170 C 
HETATM   14  C   UNL     1     -43.482 -55.211  19.930  1.00  0.00     0.031 C 
HETATM   15  C   UNL     1     -42.354 -55.576  18.988  1.00  0.00     0.056 C 
ENDBRANCH   4  11
ENDBRANCH   1   2
BRANCH   1  16
HETATM   16  C   UNL     1     -42.795 -52.797  12.473  1.00  0.00     0.161 C 
BRANCH  16  17
HETATM   17  C   UNL     1     -42.800 -51.729  13.573  1.00  0.00     0.209 C 
BRANCH  17  18
HETATM   18  O   UNL     1     -43.883 -50.793  13.398  1.00  0.00    -0.347 OA
BRANCH  18  19
HETATM   19  C   UNL     1     -44.846 -50.888  14.384  1.00  0.00     0.081 C 
HETATM   20  C   UNL     1     -44.648 -50.425  15.708  1.00  0.00    -0.022 C 
HETATM   21  C   UNL     1     -45.616 -50.731  16.695  1.00  0.00    -0.053 C 
HETATM   22  C   UNL     1     -43.471 -49.571  16.100  1.00  0.00     0.052 C 
HETATM   23  C   UNL     1     -46.798 -51.384  16.324  1.00  0.00     0.008 C 
HETATM   24  C   UNL     1     -45.416 -50.449  18.162  1.00  0.00     0.049 C 
HETATM   25  C   UNL     1     -47.041 -51.710  14.994  1.00  0.00     0.010 C 
HETATM   26  C   UNL     1     -46.074 -51.464  14.009  1.00  0.00    -0.028 C 
HETATM   27  C   UNL     1     -46.423 -51.841  12.595  1.00  0.00     0.051 C 
ENDBRANCH  18  19
ENDBRANCH  17  18
ENDBRANCH  16  17
BRANCH  16  28
HETATM   28  O   UNL     1     -41.972 -52.335  11.384  1.00  0.00    -0.392 OA
HETATM   29  H   UNL     1     -41.184 -51.922  11.783  1.00  0.00     0.210 HD
ENDBRANCH  16  28
ENDBRANCH   1  16
TORSDOF 7
ENDMDL
