MODEL 1
REMARK VINA RESULT:      -6.8      0.000      0.000
REMARK  8 active torsions:
REMARK  status: ('A' for Active; 'I' for Inactive)
REMARK    1  A    between atoms: C_2  and  C_3 
REMARK    2  A    between atoms: C_3  and  S_4 
REMARK    3  A    between atoms: S_4  and  N_7 
REMARK    4  A    between atoms: N_7  and  C_9 
REMARK    5  A    between atoms: C_9  and  C_10 
REMARK    6  A    between atoms: C_10  and  O_11 
REMARK    7  A    between atoms: C_10  and  C_12 
REMARK    8  A    between atoms: C_12  and  N_13 
ROOT
HETATM    1  C   UNL     1     -41.366 -49.827  12.521  1.00  0.00     0.163 C 
ENDROOT
BRANCH   1   2
HETATM    2  C   UNL     1     -41.296 -49.184  11.127  1.00  0.00     0.150 C 
BRANCH   2   3
HETATM    3  C   UNL     1     -42.409 -48.114  10.998  1.00  0.00     0.140 C 
BRANCH   3   4
HETATM    4  N   UNL     1     -42.182 -47.083   9.922  1.00  0.00    -0.212 NA
HETATM    5  C   UNL     1     -41.695 -45.775  10.450  1.00  0.00     0.129 C 
BRANCH   4   6
HETATM    6  S   UNL     1     -43.534 -46.860   8.873  1.00  0.00     0.211 S 
HETATM    7  O   UNL     1     -43.383 -47.773   7.758  1.00  0.00    -0.211 OA
HETATM    8  O   UNL     1     -43.674 -45.435   8.662  1.00  0.00    -0.211 OA
BRANCH   6   9
HETATM    9  C   UNL     1     -44.904 -47.438   9.873  1.00  0.00     0.157 C 
BRANCH   9  10
HETATM   10  C   UNL     1     -46.221 -47.286   9.117  1.00  0.00     0.012 C 
HETATM   11  C   UNL     1     -46.817 -48.637   8.761  1.00  0.00     0.006 C 
ENDBRANCH   9  10
ENDBRANCH   6   9
ENDBRANCH   4   6
ENDBRANCH   3   4
ENDBRANCH   2   3
BRANCH   2  12
HETATM   12  O   UNL     1     -39.999 -48.589  10.967  1.00  0.00    -0.393 OA
HETATM   13  H   UNL     1     -39.573 -48.955  10.174  1.00  0.00     0.210 HD
ENDBRANCH   2  12
ENDBRANCH   1   2
BRANCH   1  14
HETATM   14  N   UNL     1     -41.790 -51.213  12.490  1.00  0.00    -0.339 N 
HETATM   15  C   UNL     1     -41.017 -52.255  12.053  1.00  0.00     0.184 A 
HETATM   16  N   UNL     1     -41.609 -53.411  12.231  1.00  0.00    -0.350 N 
HETATM   17  C   UNL     1     -42.824 -53.104  12.789  1.00  0.00     0.060 A 
ATOM     18  HN  UNL     1     -41.245 -54.337  12.004  1.00  0.00     0.166 HD
HETATM   19  C   UNL     1     -43.856 -53.962  13.191  1.00  0.00     0.039 A 
HETATM   20  C   UNL     1     -42.973 -51.731  12.956  1.00  0.00     0.062 A 
HETATM   21  C   UNL     1     -45.030 -53.428  13.758  1.00  0.00    -0.054 A 
HETATM   22  C   UNL     1     -46.102 -54.387  14.196  1.00  0.00     0.049 C 
HETATM   23  C   UNL     1     -45.168 -52.030  13.901  1.00  0.00    -0.054 A 
HETATM   24  C   UNL     1     -46.405 -51.391  14.479  1.00  0.00     0.049 C 
HETATM   25  C   UNL     1     -44.130 -51.162  13.499  1.00  0.00     0.039 A 
ENDBRANCH   1  14
TORSDOF 8
ENDMDL
MODEL 2
REMARK VINA RESULT:      -6.4      3.750      6.799
REMARK  8 active torsions:
REMARK  status: ('A' for Active; 'I' for Inactive)
REMARK    1  A    between atoms: C_2  and  C_3 
REMARK    2  A    between atoms: C_3  and  S_4 
REMARK    3  A    between atoms: S_4  and  N_7 
REMARK    4  A    between atoms: N_7  and  C_9 
REMARK    5  A    between atoms: C_9  and  C_10 
REMARK    6  A    between atoms: C_10  and  O_11 
REMARK    7  A    between atoms: C_10  and  C_12 
REMARK    8  A    between atoms: C_12  and  N_13 
ROOT
HETATM    1  C   UNL     1     -41.809 -51.606  12.189  1.00  0.00     0.163 C 
ENDROOT
BRANCH   1   2
HETATM    2  C   UNL     1     -41.161 -52.949  12.561  1.00  0.00     0.150 C 
BRANCH   2   3
HETATM    3  C   UNL     1     -42.239 -53.893  13.152  1.00  0.00     0.140 C 
BRANCH   3   4
HETATM    4  N   UNL     1     -43.298 -53.212  13.981  1.00  0.00    -0.212 NA
HETATM    5  C   UNL     1     -42.866 -52.937  15.383  1.00  0.00     0.129 C 
BRANCH   4   6
HETATM    6  S   UNL     1     -44.828 -54.012  13.951  1.00  0.00     0.211 S 
HETATM    7  O   UNL     1     -44.908 -54.855  15.126  1.00  0.00    -0.211 OA
HETATM    8  O   UNL     1     -44.990 -54.561  12.621  1.00  0.00    -0.211 OA
BRANCH   6   9
HETATM    9  C   UNL     1     -45.981 -52.658  14.167  1.00  0.00     0.157 C 
BRANCH   9  10
HETATM   10  C   UNL     1     -45.763 -51.593  13.095  1.00  0.00     0.012 C 
HETATM   11  C   UNL     1     -46.840 -51.652  12.026  1.00  0.00     0.006 C 
ENDBRANCH   9  10
ENDBRANCH   6   9
ENDBRANCH   4   6
ENDBRANCH   3   4
ENDBRANCH   2   3
BRANCH   2  12
HETATM   12  O   UNL     1     -40.584 -53.518  11.376  1.00  0.00    -0.393 OA
HETATM   13  H   UNL     1     -39.816 -54.062  11.621  1.00  0.00     0.210 HD
ENDBRANCH   2  12
ENDBRANCH   1   2
BRANCH   1  14
HETATM   14  N   UNL     1     -40.911 -50.477  12.342  1.00  0.00    -0.339 N 
HETATM   15  C   UNL     1     -39.727 -50.511  13.028  1.00  0.00     0.184 A 
HETATM   16  N   UNL     1     -39.068 -49.383  12.920  1.00  0.00    -0.350 N 
HETATM   17  C   UNL     1     -39.867 -48.579  12.147  1.00  0.00     0.060 A 
ATOM     18  HN  UNL     1     -38.158 -49.153  13.323  1.00  0.00     0.166 HD
HETATM   19  C   UNL     1     -39.645 -47.266  11.713  1.00  0.00     0.039 A 
HETATM   20  C   UNL     1     -41.037 -49.233  11.776  1.00  0.00     0.062 A 
HETATM   21  C   UNL     1     -40.606 -46.623  10.907  1.00  0.00    -0.054 A 
HETATM   22  C   UNL     1     -40.316 -45.221  10.444  1.00  0.00     0.049 C 
HETATM   23  C   UNL     1     -41.795 -47.299  10.557  1.00  0.00    -0.054 A 
HETATM   24  C   UNL     1     -42.874 -46.664   9.717  1.00  0.00     0.049 C 
HETATM   25  C   UNL     1     -42.022 -48.623  10.992  1.00  0.00     0.039 A 
ENDBRANCH   1  14
TORSDOF 8
ENDMDL
MODEL 3
REMARK VINA RESULT:      -6.2      1.673      3.088
REMARK  8 active torsions:
REMARK  status: ('A' for Active; 'I' for Inactive)
REMARK    1  A    between atoms: C_2  and  C_3 
REMARK    2  A    between atoms: C_3  and  S_4 
REMARK    3  A    between atoms: S_4  and  N_7 
REMARK    4  A    between atoms: N_7  and  C_9 
REMARK    5  A    between atoms: C_9  and  C_10 
REMARK    6  A    between atoms: C_10  and  O_11 
REMARK    7  A    between atoms: C_10  and  C_12 
REMARK    8  A    between atoms: C_12  and  N_13 
ROOT
HETATM    1  C   UNL     1     -40.963 -50.403  12.647  1.00  0.00     0.163 C 
ENDROOT
BRANCH   1   2
HETATM    2  C   UNL     1     -41.286 -49.630  11.358  1.00  0.00     0.150 C 
BRANCH   2   3
HETATM    3  C   UNL     1     -41.109 -48.112  11.611  1.00  0.00     0.140 C 
BRANCH   3   4
HETATM    4  N   UNL     1     -42.265 -47.252  11.168  1.00  0.00    -0.212 NA
HETATM    5  C   UNL     1     -43.029 -47.831  10.024  1.00  0.00     0.129 C 
BRANCH   4   6
HETATM    6  S   UNL     1     -41.833 -45.610  10.855  1.00  0.00     0.211 S 
HETATM    7  O   UNL     1     -42.052 -44.856  12.072  1.00  0.00    -0.211 OA
HETATM    8  O   UNL     1     -42.477 -45.235   9.613  1.00  0.00    -0.211 OA
BRANCH   6   9
HETATM    9  C   UNL     1     -40.065 -45.716  10.585  1.00  0.00     0.157 C 
BRANCH   9  10
HETATM   10  C   UNL     1     -39.535 -44.415   9.989  1.00  0.00     0.012 C 
HETATM   11  C   UNL     1     -38.579 -44.679   8.839  1.00  0.00     0.006 C 
ENDBRANCH   9  10
ENDBRANCH   6   9
ENDBRANCH   4   6
ENDBRANCH   3   4
ENDBRANCH   2   3
BRANCH   2  12
HETATM   12  O   UNL     1     -40.397 -50.079  10.324  1.00  0.00    -0.393 OA
HETATM   13  H   UNL     1     -39.629 -50.518  10.728  1.00  0.00     0.210 HD
ENDBRANCH   2  12
ENDBRANCH   1   2
BRANCH   1  14
HETATM   14  N   UNL     1     -41.516 -51.743  12.663  1.00  0.00    -0.339 N 
HETATM   15  C   UNL     1     -40.828 -52.874  12.313  1.00  0.00     0.184 A 
HETATM   16  N   UNL     1     -41.535 -53.959  12.519  1.00  0.00    -0.350 N 
HETATM   17  C   UNL     1     -42.737 -53.511  13.005  1.00  0.00     0.060 A 
ATOM     18  HN  UNL     1     -41.252 -54.926  12.354  1.00  0.00     0.166 HD
HETATM   19  C   UNL     1     -43.862 -54.246  13.400  1.00  0.00     0.039 A 
HETATM   20  C   UNL     1     -42.761 -52.123  13.098  1.00  0.00     0.062 A 
HETATM   21  C   UNL     1     -45.002 -53.576  13.885  1.00  0.00    -0.054 A 
HETATM   22  C   UNL     1     -46.178 -54.407  14.320  1.00  0.00     0.049 C 
HETATM   23  C   UNL     1     -45.012 -52.166  13.955  1.00  0.00    -0.054 A 
HETATM   24  C   UNL     1     -46.205 -51.385  14.443  1.00  0.00     0.049 C 
HETATM   25  C   UNL     1     -43.880 -51.421  13.559  1.00  0.00     0.039 A 
ENDBRANCH   1  14
TORSDOF 8
ENDMDL
MODEL 4
REMARK VINA RESULT:      -6.2      4.379      5.794
REMARK  8 active torsions:
REMARK  status: ('A' for Active; 'I' for Inactive)
REMARK    1  A    between atoms: C_2  and  C_3 
REMARK    2  A    between atoms: C_3  and  S_4 
REMARK    3  A    between atoms: S_4  and  N_7 
REMARK    4  A    between atoms: N_7  and  C_9 
REMARK    5  A    between atoms: C_9  and  C_10 
REMARK    6  A    between atoms: C_10  and  O_11 
REMARK    7  A    between atoms: C_10  and  C_12 
REMARK    8  A    between atoms: C_12  and  N_13 
ROOT
HETATM    1  C   UNL     1     -42.104 -53.385  13.410  1.00  0.00     0.163 C 
ENDROOT
BRANCH   1   2
HETATM    2  C   UNL     1     -41.493 -52.512  12.302  1.00  0.00     0.150 C 
BRANCH   2   3
HETATM    3  C   UNL     1     -40.580 -51.435  12.941  1.00  0.00     0.140 C 
BRANCH   3   4
HETATM    4  N   UNL     1     -39.173 -51.886  13.240  1.00  0.00    -0.212 NA
HETATM    5  C   UNL     1     -38.954 -52.225  14.677  1.00  0.00     0.129 C 
BRANCH   4   6
HETATM    6  S   UNL     1     -37.957 -50.803  12.668  1.00  0.00     0.211 S 
HETATM    7  O   UNL     1     -38.579 -49.898  11.724  1.00  0.00    -0.211 OA
HETATM    8  O   UNL     1     -36.816 -51.612  12.292  1.00  0.00    -0.211 OA
BRANCH   6   9
HETATM    9  C   UNL     1     -37.547 -49.865  14.138  1.00  0.00     0.157 C 
BRANCH   9  10
HETATM   10  C   UNL     1     -37.618 -48.367  13.856  1.00  0.00     0.012 C 
HETATM   11  C   UNL     1     -38.780 -47.718  14.587  1.00  0.00     0.006 C 
ENDBRANCH   9  10
ENDBRANCH   6   9
ENDBRANCH   4   6
ENDBRANCH   3   4
ENDBRANCH   2   3
BRANCH   2  12
HETATM   12  O   UNL     1     -40.739 -53.359  11.421  1.00  0.00    -0.393 OA
HETATM   13  H   UNL     1     -40.986 -54.286  11.575  1.00  0.00     0.210 HD
ENDBRANCH   2  12
ENDBRANCH   1   2
BRANCH   1  14
HETATM   14  N   UNL     1     -43.552 -53.331  13.445  1.00  0.00    -0.339 N 
HETATM   15  C   UNL     1     -44.379 -54.074  12.646  1.00  0.00     0.184 A 
HETATM   16  N   UNL     1     -45.642 -53.907  12.959  1.00  0.00    -0.350 N 
HETATM   17  C   UNL     1     -45.632 -53.003  13.991  1.00  0.00     0.060 A 
ATOM     18  HN  UNL     1     -46.453 -54.351  12.528  1.00  0.00     0.166 HD
HETATM   19  C   UNL     1     -46.710 -52.472  14.713  1.00  0.00     0.039 A 
HETATM   20  C   UNL     1     -44.337 -52.614  14.314  1.00  0.00     0.062 A 
HETATM   21  C   UNL     1     -46.471 -51.554  15.754  1.00  0.00    -0.054 A 
HETATM   22  C   UNL     1     -47.655 -51.027  16.517  1.00  0.00     0.049 C 
HETATM   23  C   UNL     1     -45.148 -51.159  16.053  1.00  0.00    -0.054 A 
HETATM   24  C   UNL     1     -44.824 -50.165  17.139  1.00  0.00     0.049 C 
HETATM   25  C   UNL     1     -44.060 -51.692  15.329  1.00  0.00     0.039 A 
ENDBRANCH   1  14
TORSDOF 8
ENDMDL
MODEL 5
REMARK VINA RESULT:      -6.2      4.301      7.099
REMARK  8 active torsions:
REMARK  status: ('A' for Active; 'I' for Inactive)
REMARK    1  A    between atoms: C_2  and  C_3 
REMARK    2  A    between atoms: C_3  and  S_4 
REMARK    3  A    between atoms: S_4  and  N_7 
REMARK    4  A    between atoms: N_7  and  C_9 
REMARK    5  A    between atoms: C_9  and  C_10 
REMARK    6  A    between atoms: C_10  and  O_11 
REMARK    7  A    between atoms: C_10  and  C_12 
REMARK    8  A    between atoms: C_12  and  N_13 
ROOT
HETATM    1  C   UNL     1     -43.425 -52.115  12.957  1.00  0.00     0.163 C 
ENDROOT
BRANCH   1   2
HETATM    2  C   UNL     1     -43.239 -53.639  12.872  1.00  0.00     0.150 C 
BRANCH   2   3
HETATM    3  C   UNL     1     -43.283 -54.242  14.299  1.00  0.00     0.140 C 
BRANCH   3   4
HETATM    4  N   UNL     1     -44.264 -53.588  15.238  1.00  0.00    -0.212 NA
HETATM    5  C   UNL     1     -43.749 -53.459  16.633  1.00  0.00     0.129 C 
BRANCH   4   6
HETATM    6  S   UNL     1     -45.833 -54.309  15.223  1.00  0.00     0.211 S 
HETATM    7  O   UNL     1     -46.234 -54.521  16.598  1.00  0.00    -0.211 OA
HETATM    8  O   UNL     1     -45.783 -55.404  14.277  1.00  0.00    -0.211 OA
BRANCH   6   9
HETATM    9  C   UNL     1     -46.856 -53.002  14.548  1.00  0.00     0.157 C 
BRANCH   9  10
HETATM   10  C   UNL     1     -46.466 -51.653  15.145  1.00  0.00     0.012 C 
HETATM   11  C   UNL     1     -47.384 -51.266  16.291  1.00  0.00     0.006 C 
ENDBRANCH   9  10
ENDBRANCH   6   9
ENDBRANCH   4   6
ENDBRANCH   3   4
ENDBRANCH   2   3
BRANCH   2  12
HETATM   12  O   UNL     1     -44.291 -54.180  12.059  1.00  0.00    -0.393 OA
HETATM   13  H   UNL     1     -43.904 -54.705  11.339  1.00  0.00     0.210 HD
ENDBRANCH   2  12
ENDBRANCH   1   2
BRANCH   1  14
HETATM   14  N   UNL     1     -42.299 -51.372  12.425  1.00  0.00    -0.339 N 
HETATM   15  C   UNL     1     -41.260 -51.926  11.728  1.00  0.00     0.184 A 
HETATM   16  N   UNL     1     -40.434 -51.013  11.276  1.00  0.00    -0.350 N 
HETATM   17  C   UNL     1     -40.951 -49.820  11.714  1.00  0.00     0.060 A 
ATOM     18  HN  UNL     1     -39.591 -51.158  10.719  1.00  0.00     0.166 HD
HETATM   19  C   UNL     1     -40.472 -48.519  11.511  1.00  0.00     0.039 A 
HETATM   20  C   UNL     1     -42.117 -50.012  12.448  1.00  0.00     0.062 A 
HETATM   21  C   UNL     1     -41.173 -47.423  12.049  1.00  0.00    -0.054 A 
HETATM   22  C   UNL     1     -40.635 -46.042  11.787  1.00  0.00     0.049 C 
HETATM   23  C   UNL     1     -42.345 -47.641  12.806  1.00  0.00    -0.054 A 
HETATM   24  C   UNL     1     -43.131 -46.515  13.428  1.00  0.00     0.049 C 
HETATM   25  C   UNL     1     -42.831 -48.950  13.013  1.00  0.00     0.039 A 
ENDBRANCH   1  14
TORSDOF 8
ENDMDL
MODEL 6
REMARK VINA RESULT:      -6.1      4.378      5.996
REMARK  8 active torsions:
REMARK  status: ('A' for Active; 'I' for Inactive)
REMARK    1  A    between atoms: C_2  and  C_3 
REMARK    2  A    between atoms: C_3  and  S_4 
REMARK    3  A    between atoms: S_4  and  N_7 
REMARK    4  A    between atoms: N_7  and  C_9 
REMARK    5  A    between atoms: C_9  and  C_10 
REMARK    6  A    between atoms: C_10  and  O_11 
REMARK    7  A    between atoms: C_10  and  C_12 
REMARK    8  A    between atoms: C_12  and  N_13 
ROOT
HETATM    1  C   UNL     1     -42.247 -53.129  13.338  1.00  0.00     0.163 C 
ENDROOT
BRANCH   1   2
HETATM    2  C   UNL     1     -41.779 -52.437  12.048  1.00  0.00     0.150 C 
BRANCH   2   3
HETATM    3  C   UNL     1     -41.215 -51.035  12.392  1.00  0.00     0.140 C 
BRANCH   3   4
HETATM    4  N   UNL     1     -40.714 -50.878  13.805  1.00  0.00    -0.212 NA
HETATM    5  C   UNL     1     -41.073 -49.565  14.417  1.00  0.00     0.129 C 
BRANCH   4   6
HETATM    6  S   UNL     1     -39.028 -51.204  13.987  1.00  0.00     0.211 S 
HETATM    7  O   UNL     1     -38.431 -50.072  14.664  1.00  0.00    -0.211 OA
HETATM    8  O   UNL     1     -38.544 -51.649  12.697  1.00  0.00    -0.211 OA
BRANCH   6   9
HETATM    9  C   UNL     1     -39.019 -52.590  15.123  1.00  0.00     0.157 C 
BRANCH   9  10
HETATM   10  C   UNL     1     -38.919 -53.907  14.359  1.00  0.00     0.012 C 
HETATM   11  C   UNL     1     -38.902 -55.097  15.303  1.00  0.00     0.006 C 
ENDBRANCH   9  10
ENDBRANCH   6   9
ENDBRANCH   4   6
ENDBRANCH   3   4
ENDBRANCH   2   3
BRANCH   2  12
HETATM   12  O   UNL     1     -40.770 -53.253  11.435  1.00  0.00    -0.393 OA
HETATM   13  H   UNL     1     -40.108 -52.682  11.011  1.00  0.00     0.210 HD
ENDBRANCH   2  12
ENDBRANCH   1   2
BRANCH   1  14
HETATM   14  N   UNL     1     -43.690 -53.192  13.462  1.00  0.00    -0.339 N 
HETATM   15  C   UNL     1     -44.495 -54.049  12.762  1.00  0.00     0.184 A 
HETATM   16  N   UNL     1     -45.747 -53.965  13.144  1.00  0.00    -0.350 N 
HETATM   17  C   UNL     1     -45.755 -53.000  14.119  1.00  0.00     0.060 A 
ATOM     18  HN  UNL     1     -46.542 -54.501  12.793  1.00  0.00     0.166 HD
HETATM   19  C   UNL     1     -46.830 -52.514  14.875  1.00  0.00     0.039 A 
HETATM   20  C   UNL     1     -44.480 -52.487  14.335  1.00  0.00     0.062 A 
HETATM   21  C   UNL     1     -46.610 -51.514  15.843  1.00  0.00    -0.054 A 
HETATM   22  C   UNL     1     -47.788 -51.038  16.647  1.00  0.00     0.049 C 
HETATM   23  C   UNL     1     -45.310 -50.995  16.034  1.00  0.00    -0.054 A 
HETATM   24  C   UNL     1     -45.009 -49.910  17.037  1.00  0.00     0.049 C 
HETATM   25  C   UNL     1     -44.225 -51.482  15.275  1.00  0.00     0.039 A 
ENDBRANCH   1  14
TORSDOF 8
ENDMDL
MODEL 7
REMARK VINA RESULT:      -6.0      4.260      7.122
REMARK  8 active torsions:
REMARK  status: ('A' for Active; 'I' for Inactive)
REMARK    1  A    between atoms: C_2  and  C_3 
REMARK    2  A    between atoms: C_3  and  S_4 
REMARK    3  A    between atoms: S_4  and  N_7 
REMARK    4  A    between atoms: N_7  and  C_9 
REMARK    5  A    between atoms: C_9  and  C_10 
REMARK    6  A    between atoms: C_10  and  O_11 
REMARK    7  A    between atoms: C_10  and  C_12 
REMARK    8  A    between atoms: C_12  and  N_13 
ROOT
HETATM    1  C   UNL     1     -41.537 -51.783  12.611  1.00  0.00     0.163 C 
ENDROOT
BRANCH   1   2
HETATM    2  C   UNL     1     -40.919 -53.190  12.592  1.00  0.00     0.150 C 
BRANCH   2   3
HETATM    3  C   UNL     1     -41.969 -54.218  13.084  1.00  0.00     0.140 C 
BRANCH   3   4
HETATM    4  N   UNL     1     -42.822 -53.758  14.239  1.00  0.00    -0.212 NA
HETATM    5  C   UNL     1     -42.476 -54.422  15.530  1.00  0.00     0.129 C 
BRANCH   4   6
HETATM    6  S   UNL     1     -44.518 -53.847  13.933  1.00  0.00     0.211 S 
HETATM    7  O   UNL     1     -45.130 -54.548  15.042  1.00  0.00    -0.211 OA
HETATM    8  O   UNL     1     -44.676 -54.312  12.571  1.00  0.00    -0.211 OA
BRANCH   6   9
HETATM    9  C   UNL     1     -45.022 -52.130  14.024  1.00  0.00     0.157 C 
BRANCH   9  10
HETATM   10  C   UNL     1     -46.543 -52.019  14.064  1.00  0.00     0.012 C 
HETATM   11  C   UNL     1     -47.025 -51.454  15.389  1.00  0.00     0.006 C 
ENDBRANCH   9  10
ENDBRANCH   6   9
ENDBRANCH   4   6
ENDBRANCH   3   4
ENDBRANCH   2   3
BRANCH   2  12
HETATM   12  O   UNL     1     -40.509 -53.487  11.249  1.00  0.00    -0.393 OA
HETATM   13  H   UNL     1     -40.699 -54.421  11.053  1.00  0.00     0.210 HD
ENDBRANCH   2  12
ENDBRANCH   1   2
BRANCH   1  14
HETATM   14  N   UNL     1     -40.561 -50.728  12.418  1.00  0.00    -0.339 N 
HETATM   15  C   UNL     1     -40.451 -49.966  11.286  1.00  0.00     0.184 A 
HETATM   16  N   UNL     1     -39.554 -49.019  11.420  1.00  0.00    -0.350 N 
HETATM   17  C   UNL     1     -39.049 -49.187  12.685  1.00  0.00     0.060 A 
ATOM     18  HN  UNL     1     -39.289 -48.312  10.733  1.00  0.00     0.166 HD
HETATM   19  C   UNL     1     -38.066 -48.443  13.351  1.00  0.00     0.039 A 
HETATM   20  C   UNL     1     -39.653 -50.258  13.334  1.00  0.00     0.062 A 
HETATM   21  C   UNL     1     -37.702 -48.787  14.668  1.00  0.00    -0.054 A 
HETATM   22  C   UNL     1     -36.659 -47.947  15.354  1.00  0.00     0.049 C 
HETATM   23  C   UNL     1     -38.315 -49.889  15.303  1.00  0.00    -0.054 A 
HETATM   24  C   UNL     1     -37.957 -50.324  16.700  1.00  0.00     0.049 C 
HETATM   25  C   UNL     1     -39.306 -50.640  14.634  1.00  0.00     0.039 A 
ENDBRANCH   1  14
TORSDOF 8
ENDMDL
MODEL 8
REMARK VINA RESULT:      -5.8      1.997      2.623
REMARK  8 active torsions:
REMARK  status: ('A' for Active; 'I' for Inactive)
REMARK    1  A    between atoms: C_2  and  C_3 
REMARK    2  A    between atoms: C_3  and  S_4 
REMARK    3  A    between atoms: S_4  and  N_7 
REMARK    4  A    between atoms: N_7  and  C_9 
REMARK    5  A    between atoms: C_9  and  C_10 
REMARK    6  A    between atoms: C_10  and  O_11 
REMARK    7  A    between atoms: C_10  and  C_12 
REMARK    8  A    between atoms: C_12  and  N_13 
ROOT
HETATM    1  C   UNL     1     -40.950 -50.913  12.482  1.00  0.00     0.163 C 
ENDROOT
BRANCH   1   2
HETATM    2  C   UNL     1     -41.322 -49.868  11.419  1.00  0.00     0.150 C 
BRANCH   2   3
HETATM    3  C   UNL     1     -41.117 -48.447  12.002  1.00  0.00     0.140 C 
BRANCH   3   4
HETATM    4  N   UNL     1     -41.181 -47.327  10.994  1.00  0.00    -0.212 NA
HETATM    5  C   UNL     1     -39.972 -46.452  11.005  1.00  0.00     0.129 C 
BRANCH   4   6
HETATM    6  S   UNL     1     -42.625 -46.386  11.086  1.00  0.00     0.211 S 
HETATM    7  O   UNL     1     -42.420 -45.185  10.304  1.00  0.00    -0.211 OA
HETATM    8  O   UNL     1     -42.995 -46.319  12.484  1.00  0.00    -0.211 OA
BRANCH   6   9
HETATM    9  C   UNL     1     -43.813 -47.409  10.219  1.00  0.00     0.157 C 
BRANCH   9  10
HETATM   10  C   UNL     1     -44.050 -46.877   8.808  1.00  0.00     0.012 C 
HETATM   11  C   UNL     1     -43.480 -47.814   7.757  1.00  0.00     0.006 C 
ENDBRANCH   9  10
ENDBRANCH   6   9
ENDBRANCH   4   6
ENDBRANCH   3   4
ENDBRANCH   2   3
BRANCH   2  12
HETATM   12  O   UNL     1     -40.483 -50.070  10.271  1.00  0.00    -0.393 OA
HETATM   13  H   UNL     1     -40.529 -49.287   9.697  1.00  0.00     0.210 HD
ENDBRANCH   2  12
ENDBRANCH   1   2
BRANCH   1  14
HETATM   14  N   UNL     1     -41.738 -50.799  13.694  1.00  0.00    -0.339 N 
HETATM   15  C   UNL     1     -41.261 -50.342  14.893  1.00  0.00     0.184 A 
HETATM   16  N   UNL     1     -42.211 -50.245  15.792  1.00  0.00    -0.350 N 
HETATM   17  C   UNL     1     -43.346 -50.675  15.154  1.00  0.00     0.060 A 
ATOM     18  HN  UNL     1     -42.124 -49.921  16.756  1.00  0.00     0.166 HD
HETATM   19  C   UNL     1     -44.655 -50.772  15.644  1.00  0.00     0.039 A 
HETATM   20  C   UNL     1     -43.082 -51.040  13.838  1.00  0.00     0.062 A 
HETATM   21  C   UNL     1     -45.686 -51.235  14.803  1.00  0.00    -0.054 A 
HETATM   22  C   UNL     1     -47.080 -51.301  15.365  1.00  0.00     0.049 C 
HETATM   23  C   UNL     1     -45.392 -51.618  13.476  1.00  0.00    -0.054 A 
HETATM   24  C   UNL     1     -46.442 -52.142  12.530  1.00  0.00     0.049 C 
HETATM   25  C   UNL     1     -44.075 -51.521  12.978  1.00  0.00     0.039 A 
ENDBRANCH   1  14
TORSDOF 8
ENDMDL
MODEL 9
REMARK VINA RESULT:      -5.6      5.267      7.430
REMARK  8 active torsions:
REMARK  status: ('A' for Active; 'I' for Inactive)
REMARK    1  A    between atoms: C_2  and  C_3 
REMARK    2  A    between atoms: C_3  and  S_4 
REMARK    3  A    between atoms: S_4  and  N_7 
REMARK    4  A    between atoms: N_7  and  C_9 
REMARK    5  A    between atoms: C_9  and  C_10 
REMARK    6  A    between atoms: C_10  and  O_11 
REMARK    7  A    between atoms: C_10  and  C_12 
REMARK    8  A    between atoms: C_12  and  N_13 
ROOT
HETATM    1  C   UNL     1     -40.935 -54.019  13.808  1.00  0.00     0.163 C 
ENDROOT
BRANCH   1   2
HETATM    2  C   UNL     1     -42.206 -53.831  14.652  1.00  0.00     0.150 C 
BRANCH   2   3
HETATM    3  C   UNL     1     -43.176 -55.011  14.390  1.00  0.00     0.140 C 
BRANCH   3   4
HETATM    4  N   UNL     1     -44.541 -54.617  13.888  1.00  0.00    -0.212 NA
HETATM    5  C   UNL     1     -44.497 -53.629  12.769  1.00  0.00     0.129 C 
BRANCH   4   6
HETATM    6  S   UNL     1     -45.618 -54.093  15.132  1.00  0.00     0.211 S 
HETATM    7  O   UNL     1     -45.020 -54.436  16.405  1.00  0.00    -0.211 OA
HETATM    8  O   UNL     1     -46.939 -54.564  14.770  1.00  0.00    -0.211 OA
BRANCH   6   9
HETATM    9  C   UNL     1     -45.570 -52.310  14.965  1.00  0.00     0.157 C 
BRANCH   9  10
HETATM   10  C   UNL     1     -46.973 -51.723  15.087  1.00  0.00     0.012 C 
HETATM   11  C   UNL     1     -47.277 -51.301  16.514  1.00  0.00     0.006 C 
ENDBRANCH   9  10
ENDBRANCH   6   9
ENDBRANCH   4   6
ENDBRANCH   3   4
ENDBRANCH   2   3
BRANCH   2  12
HETATM   12  O   UNL     1     -41.829 -53.782  16.036  1.00  0.00    -0.393 OA
HETATM   13  H   UNL     1     -40.938 -54.155  16.140  1.00  0.00     0.210 HD
ENDBRANCH   2  12
ENDBRANCH   1   2
BRANCH   1  14
HETATM   14  N   UNL     1     -40.547 -52.824  13.086  1.00  0.00    -0.339 N 
HETATM   15  C   UNL     1     -41.065 -52.441  11.878  1.00  0.00     0.184 A 
HETATM   16  N   UNL     1     -40.613 -51.269  11.502  1.00  0.00    -0.350 N 
HETATM   17  C   UNL     1     -39.751 -50.886  12.499  1.00  0.00     0.060 A 
ATOM     18  HN  UNL     1     -40.850 -50.754  10.654  1.00  0.00     0.166 HD
HETATM   19  C   UNL     1     -38.995 -49.712  12.614  1.00  0.00     0.039 A 
HETATM   20  C   UNL     1     -39.679 -51.845  13.504  1.00  0.00     0.062 A 
HETATM   21  C   UNL     1     -38.173 -49.516  13.740  1.00  0.00    -0.054 A 
HETATM   22  C   UNL     1     -37.396 -48.231  13.833  1.00  0.00     0.049 C 
HETATM   23  C   UNL     1     -38.101 -50.511  14.740  1.00  0.00    -0.054 A 
HETATM   24  C   UNL     1     -37.226 -50.375  15.960  1.00  0.00     0.049 C 
HETATM   25  C   UNL     1     -38.862 -51.694  14.629  1.00  0.00     0.039 A 
ENDBRANCH   1  14
TORSDOF 8
ENDMDL
