MODEL 1
REMARK VINA RESULT:      -6.2      0.000      0.000
REMARK  10 active torsions:
REMARK  status: ('A' for Active; 'I' for Inactive)
REMARK    1  A    between atoms: N_2  and  C_9 
REMARK    2  A    between atoms: N_3  and  C_5 
REMARK    3  A    between atoms: C_11  and  N_22 
REMARK    4  A    between atoms: C_18  and  C_23 
REMARK    5  A    between atoms: C_18  and  C_24 
REMARK    6  A    between atoms: N_22  and  C_29 
REMARK    7  A    between atoms: C_23  and  O_26 
REMARK    8  A    between atoms: C_24  and  O_27 
REMARK    9  A    between atoms: O_28  and  C_31 
REMARK   10  A    between atoms: C_29  and  C_31 
ROOT
HETATM    1  C   UNL     1     -40.438 -50.713  12.816  1.00  0.00     0.122 A 
HETATM    2  N   UNL     1     -41.697 -49.355  11.661  1.00  0.00    -0.322 N 
HETATM    3  C   UNL     1     -40.410 -49.827  11.738  1.00  0.00     0.140 A 
HETATM    4  C   UNL     1     -39.217 -51.317  13.224  1.00  0.00     0.135 A 
HETATM    5  N   UNL     1     -41.715 -50.812  13.341  1.00  0.00    -0.346 N 
ATOM      6  HN  UNL     1     -42.026 -51.401  14.113  1.00  0.00     0.167 HD
HETATM    7  C   UNL     1     -42.434 -49.982  12.629  1.00  0.00     0.185 A 
HETATM    8  N   UNL     1     -39.337 -49.507  10.998  1.00  0.00    -0.336 N 
ATOM      9  HN  UNL     1     -39.347 -48.854  10.214  1.00  0.00     0.168 HD
HETATM   10  N   UNL     1     -38.122 -51.026  12.473  1.00  0.00    -0.337 N 
ATOM     11  HN  UNL     1     -37.220 -51.449  12.691  1.00  0.00     0.168 HD
HETATM   12  C   UNL     1     -38.241 -50.167  11.432  1.00  0.00     0.183 A 
ENDROOT
BRANCH   4  13
HETATM   13  N   UNL     1     -39.111 -52.154  14.329  1.00  0.00    -0.359 N 
HETATM   14  C   UNL     1     -39.128 -53.631  14.223  1.00  0.00     0.115 C 
HETATM   15  C   UNL     1     -39.021 -54.126  15.743  1.00  0.00     0.246 C 
HETATM   16  C   UNL     1     -40.389 -54.099  13.480  1.00  0.00     0.034 C 
HETATM   17  C   UNL     1     -39.181 -52.804  16.547  1.00  0.00     0.057 C 
HETATM   18  C   UNL     1     -39.726 -51.763  15.578  1.00  0.00     0.127 C 
BRANCH  15  19
HETATM   19  N   UNL     1     -39.881 -55.247  16.218  1.00  0.00     0.092 N 
HETATM   20  C   UNL     1     -39.130 -56.319  16.881  1.00  0.00     0.310 C 
BRANCH  19  21
HETATM   21  C   UNL     1     -41.000 -54.846  17.109  1.00  0.00     0.298 C 
BRANCH  21  22
HETATM   22  C   UNL     1     -42.218 -55.786  17.202  1.00  0.00     0.194 C 
BRANCH  22  23
HETATM   23  O   UNL     1     -42.711 -56.071  15.894  1.00  0.00    -0.399 OA
HETATM   24  H   UNL     1     -42.776 -57.038  15.821  1.00  0.00     0.209 HD
ENDBRANCH  22  23
ENDBRANCH  21  22
ENDBRANCH  19  21
ENDBRANCH  15  19
ENDBRANCH   4  13
BRANCH   2  25
HETATM   25  C   UNL     1     -42.328 -48.419  10.781  1.00  0.00     0.094 C 
HETATM   26  C   UNL     1     -41.474 -47.169  10.420  1.00  0.00     0.039 C 
HETATM   27  C   UNL     1     -42.836 -46.407  10.246  1.00  0.00     0.006 C 
HETATM   28  C   UNL     1     -43.341 -47.398  11.369  1.00  0.00     0.039 C 
BRANCH  27  29
HETATM   29  C   UNL     1     -42.768 -44.929  10.630  1.00  0.00     0.175 C 
BRANCH  29  30
HETATM   30  O   UNL     1     -43.652 -44.168   9.813  1.00  0.00    -0.400 OA
HETATM   31  H   UNL     1     -44.313 -43.759  10.409  1.00  0.00     0.209 HD
ENDBRANCH  29  30
ENDBRANCH  27  29
BRANCH  27  32
HETATM   32  C   UNL     1     -43.437 -46.576   8.837  1.00  0.00     0.175 C 
BRANCH  32  33
HETATM   33  O   UNL     1     -42.623 -45.906   7.880  1.00  0.00    -0.400 OA
HETATM   34  H   UNL     1     -42.037 -45.300   8.369  1.00  0.00     0.209 HD
ENDBRANCH  32  33
ENDBRANCH  27  32
ENDBRANCH   2  25
TORSDOF 10
ENDMDL
MODEL 2
REMARK VINA RESULT:      -6.1      2.976      8.555
REMARK  10 active torsions:
REMARK  status: ('A' for Active; 'I' for Inactive)
REMARK    1  A    between atoms: N_2  and  C_9 
REMARK    2  A    between atoms: N_3  and  C_5 
REMARK    3  A    between atoms: C_11  and  N_22 
REMARK    4  A    between atoms: C_18  and  C_23 
REMARK    5  A    between atoms: C_18  and  C_24 
REMARK    6  A    between atoms: N_22  and  C_29 
REMARK    7  A    between atoms: C_23  and  O_26 
REMARK    8  A    between atoms: C_24  and  O_27 
REMARK    9  A    between atoms: O_28  and  C_31 
REMARK   10  A    between atoms: C_29  and  C_31 
ROOT
HETATM    1  C   UNL     1     -41.219 -48.851  12.102  1.00  0.00     0.122 A 
HETATM    2  N   UNL     1     -42.427 -50.602  12.585  1.00  0.00    -0.322 N 
HETATM    3  C   UNL     1     -41.141 -50.233  12.278  1.00  0.00     0.140 A 
HETATM    4  C   UNL     1     -40.050 -48.159  11.679  1.00  0.00     0.135 A 
HETATM    5  N   UNL     1     -42.501 -48.392  12.348  1.00  0.00    -0.346 N 
ATOM      6  HN  UNL     1     -42.834 -47.428  12.318  1.00  0.00     0.167 HD
HETATM    7  C   UNL     1     -43.193 -49.467  12.627  1.00  0.00     0.185 A 
HETATM    8  N   UNL     1     -40.046 -50.995  12.128  1.00  0.00    -0.336 N 
ATOM      9  HN  UNL     1     -40.021 -52.006  12.264  1.00  0.00     0.168 HD
HETATM   10  N   UNL     1     -38.923 -48.908  11.546  1.00  0.00    -0.337 N 
ATOM     11  HN  UNL     1     -38.043 -48.470  11.275  1.00  0.00     0.168 HD
HETATM   12  C   UNL     1     -38.982 -50.241  11.775  1.00  0.00     0.183 A 
ENDROOT
BRANCH   4  13
HETATM   13  N   UNL     1     -40.028 -46.796  11.399  1.00  0.00    -0.359 N 
HETATM   14  C   UNL     1     -39.792 -45.767  12.437  1.00  0.00     0.115 C 
HETATM   15  C   UNL     1     -39.902 -44.384  11.637  1.00  0.00     0.246 C 
HETATM   16  C   UNL     1     -40.796 -45.927  13.588  1.00  0.00     0.034 C 
HETATM   17  C   UNL     1     -40.420 -44.835  10.241  1.00  0.00     0.057 C 
HETATM   18  C   UNL     1     -40.926 -46.263  10.400  1.00  0.00     0.127 C 
BRANCH  15  19
HETATM   19  N   UNL     1     -40.650 -43.241  12.235  1.00  0.00     0.092 N 
HETATM   20  C   UNL     1     -39.789 -42.286  12.941  1.00  0.00     0.310 C 
BRANCH  19  21
HETATM   21  C   UNL     1     -41.502 -42.482  11.283  1.00  0.00     0.298 C 
BRANCH  21  22
HETATM   22  C   UNL     1     -43.031 -42.606  11.430  1.00  0.00     0.194 C 
BRANCH  22  23
HETATM   23  O   UNL     1     -43.575 -43.268  10.289  1.00  0.00    -0.399 OA
HETATM   24  H   UNL     1     -42.962 -43.987  10.060  1.00  0.00     0.209 HD
ENDBRANCH  22  23
ENDBRANCH  21  22
ENDBRANCH  19  21
ENDBRANCH  15  19
ENDBRANCH   4  13
BRANCH   2  25
HETATM   25  C   UNL     1     -43.022 -51.871  12.875  1.00  0.00     0.094 C 
HETATM   26  C   UNL     1     -44.519 -51.821  13.297  1.00  0.00     0.039 C 
HETATM   27  C   UNL     1     -44.233 -53.127  14.119  1.00  0.00     0.006 C 
HETATM   28  C   UNL     1     -42.784 -52.514  14.269  1.00  0.00     0.039 C 
BRANCH  27  29
HETATM   29  C   UNL     1     -45.056 -53.239  15.403  1.00  0.00     0.175 C 
BRANCH  29  30
HETATM   30  O   UNL     1     -44.965 -54.558  15.931  1.00  0.00    -0.400 OA
HETATM   31  H   UNL     1     -45.858 -54.803  16.248  1.00  0.00     0.209 HD
ENDBRANCH  29  30
ENDBRANCH  27  29
BRANCH  27  32
HETATM   32  C   UNL     1     -44.370 -54.407  13.271  1.00  0.00     0.175 C 
BRANCH  32  33
HETATM   33  O   UNL     1     -45.720 -54.860  13.294  1.00  0.00    -0.400 OA
HETATM   34  H   UNL     1     -46.293 -54.071  13.264  1.00  0.00     0.209 HD
ENDBRANCH  32  33
ENDBRANCH  27  32
ENDBRANCH   2  25
TORSDOF 10
ENDMDL
MODEL 3
REMARK VINA RESULT:      -6.0      1.886      2.743
REMARK  10 active torsions:
REMARK  status: ('A' for Active; 'I' for Inactive)
REMARK    1  A    between atoms: N_2  and  C_9 
REMARK    2  A    between atoms: N_3  and  C_5 
REMARK    3  A    between atoms: C_11  and  N_22 
REMARK    4  A    between atoms: C_18  and  C_23 
REMARK    5  A    between atoms: C_18  and  C_24 
REMARK    6  A    between atoms: N_22  and  C_29 
REMARK    7  A    between atoms: C_23  and  O_26 
REMARK    8  A    between atoms: C_24  and  O_27 
REMARK    9  A    between atoms: O_28  and  C_31 
REMARK   10  A    between atoms: C_29  and  C_31 
ROOT
HETATM    1  C   UNL     1     -42.267 -51.257  13.549  1.00  0.00     0.122 A 
HETATM    2  N   UNL     1     -42.335 -49.304  12.578  1.00  0.00    -0.322 N 
HETATM    3  C   UNL     1     -41.858 -50.579  12.400  1.00  0.00     0.140 A 
HETATM    4  C   UNL     1     -41.848 -52.605  13.721  1.00  0.00     0.135 A 
HETATM    5  N   UNL     1     -43.013 -50.431  14.372  1.00  0.00    -0.346 N 
ATOM      6  HN  UNL     1     -43.455 -50.671  15.258  1.00  0.00     0.167 HD
HETATM    7  C   UNL     1     -43.025 -49.274  13.761  1.00  0.00     0.185 A 
HETATM    8  N   UNL     1     -41.129 -51.085  11.393  1.00  0.00    -0.336 N 
ATOM      9  HN  UNL     1     -40.844 -50.563  10.564  1.00  0.00     0.168 HD
HETATM   10  N   UNL     1     -41.129 -53.146  12.701  1.00  0.00    -0.337 N 
ATOM     11  HN  UNL     1     -40.822 -54.118  12.745  1.00  0.00     0.168 HD
HETATM   12  C   UNL     1     -40.823 -52.381  11.626  1.00  0.00     0.183 A 
ENDROOT
BRANCH   4  13
HETATM   13  N   UNL     1     -42.130 -53.354  14.858  1.00  0.00    -0.359 N 
HETATM   14  C   UNL     1     -41.472 -53.114  16.163  1.00  0.00     0.115 C 
HETATM   15  C   UNL     1     -42.094 -54.239  17.119  1.00  0.00     0.246 C 
HETATM   16  C   UNL     1     -39.944 -53.171  16.010  1.00  0.00     0.034 C 
HETATM   17  C   UNL     1     -42.891 -55.132  16.125  1.00  0.00     0.057 C 
HETATM   18  C   UNL     1     -42.415 -54.765  14.726  1.00  0.00     0.127 C 
BRANCH  15  19
HETATM   19  N   UNL     1     -41.207 -54.990  18.051  1.00  0.00     0.092 N 
HETATM   20  C   UNL     1     -41.442 -54.673  19.464  1.00  0.00     0.310 C 
BRANCH  19  21
HETATM   21  C   UNL     1     -41.240 -56.468  17.896  1.00  0.00     0.298 C 
BRANCH  21  22
HETATM   22  C   UNL     1     -39.926 -57.181  17.519  1.00  0.00     0.194 C 
BRANCH  22  23
HETATM   23  O   UNL     1     -39.397 -56.619  16.320  1.00  0.00    -0.399 OA
HETATM   24  H   UNL     1     -40.089 -56.697  15.641  1.00  0.00     0.209 HD
ENDBRANCH  22  23
ENDBRANCH  21  22
ENDBRANCH  19  21
ENDBRANCH  15  19
ENDBRANCH   4  13
BRANCH   2  25
HETATM   25  C   UNL     1     -42.254 -48.124  11.772  1.00  0.00     0.094 C 
HETATM   26  C   UNL     1     -43.601 -47.649  11.155  1.00  0.00     0.039 C 
HETATM   27  C   UNL     1     -42.744 -47.041   9.989  1.00  0.00     0.006 C 
HETATM   28  C   UNL     1     -41.771 -48.248  10.302  1.00  0.00     0.039 C 
BRANCH  27  29
HETATM   29  C   UNL     1     -43.443 -47.072   8.630  1.00  0.00     0.175 C 
BRANCH  29  30
HETATM   30  O   UNL     1     -42.803 -46.175   7.728  1.00  0.00    -0.400 OA
HETATM   31  H   UNL     1     -43.261 -46.258   6.867  1.00  0.00     0.209 HD
ENDBRANCH  29  30
ENDBRANCH  27  29
BRANCH  27  32
HETATM   32  C   UNL     1     -42.228 -45.624  10.304  1.00  0.00     0.175 C 
BRANCH  32  33
HETATM   33  O   UNL     1     -41.004 -45.389   9.616  1.00  0.00    -0.400 OA
HETATM   34  H   UNL     1     -40.746 -44.465   9.787  1.00  0.00     0.209 HD
ENDBRANCH  32  33
ENDBRANCH  27  32
ENDBRANCH   2  25
TORSDOF 10
ENDMDL
MODEL 4
REMARK VINA RESULT:      -6.0      1.453      2.395
REMARK  10 active torsions:
REMARK  status: ('A' for Active; 'I' for Inactive)
REMARK    1  A    between atoms: N_2  and  C_9 
REMARK    2  A    between atoms: N_3  and  C_5 
REMARK    3  A    between atoms: C_11  and  N_22 
REMARK    4  A    between atoms: C_18  and  C_23 
REMARK    5  A    between atoms: C_18  and  C_24 
REMARK    6  A    between atoms: N_22  and  C_29 
REMARK    7  A    between atoms: C_23  and  O_26 
REMARK    8  A    between atoms: C_24  and  O_27 
REMARK    9  A    between atoms: O_28  and  C_31 
REMARK   10  A    between atoms: C_29  and  C_31 
ROOT
HETATM    1  C   UNL     1     -41.425 -50.922  13.334  1.00  0.00     0.122 A 
HETATM    2  N   UNL     1     -42.099 -49.149  12.256  1.00  0.00    -0.322 N 
HETATM    3  C   UNL     1     -40.984 -49.922  12.467  1.00  0.00     0.140 A 
HETATM    4  C   UNL     1     -40.471 -51.854  13.829  1.00  0.00     0.135 A 
HETATM    5  N   UNL     1     -42.777 -50.788  13.597  1.00  0.00    -0.346 N 
ATOM      6  HN  UNL     1     -43.362 -51.391  14.176  1.00  0.00     0.167 HD
HETATM    7  C   UNL     1     -43.140 -49.716  12.941  1.00  0.00     0.185 A 
HETATM    8  N   UNL     1     -39.735 -49.764  12.003  1.00  0.00    -0.336 N 
ATOM      9  HN  UNL     1     -39.442 -49.020  11.369  1.00  0.00     0.168 HD
HETATM   10  N   UNL     1     -39.204 -51.727  13.352  1.00  0.00    -0.337 N 
ATOM     11  HN  UNL     1     -38.477 -52.382  13.642  1.00  0.00     0.168 HD
HETATM   12  C   UNL     1     -38.917 -50.723  12.490  1.00  0.00     0.183 A 
ENDROOT
BRANCH   4  13
HETATM   13  N   UNL     1     -40.780 -52.844  14.755  1.00  0.00    -0.359 N 
HETATM   14  C   UNL     1     -40.447 -52.732  16.193  1.00  0.00     0.115 C 
HETATM   15  C   UNL     1     -40.960 -54.116  16.816  1.00  0.00     0.246 C 
HETATM   16  C   UNL     1     -38.945 -52.461  16.376  1.00  0.00     0.034 C 
HETATM   17  C   UNL     1     -41.334 -54.943  15.552  1.00  0.00     0.057 C 
HETATM   18  C   UNL     1     -40.705 -54.233  14.361  1.00  0.00     0.127 C 
BRANCH  15  19
HETATM   19  N   UNL     1     -40.112 -54.843  17.803  1.00  0.00     0.092 N 
HETATM   20  C   UNL     1     -40.819 -55.183  19.042  1.00  0.00     0.310 C 
BRANCH  19  21
HETATM   21  C   UNL     1     -39.463 -56.075  17.285  1.00  0.00     0.298 C 
BRANCH  21  22
HETATM   22  C   UNL     1     -37.974 -55.995  16.895  1.00  0.00     0.194 C 
BRANCH  22  23
HETATM   23  O   UNL     1     -37.848 -55.956  15.475  1.00  0.00    -0.399 OA
HETATM   24  H   UNL     1     -36.896 -55.954  15.275  1.00  0.00     0.209 HD
ENDBRANCH  22  23
ENDBRANCH  21  22
ENDBRANCH  19  21
ENDBRANCH  15  19
ENDBRANCH   4  13
BRANCH   2  25
HETATM   25  C   UNL     1     -42.320 -47.971  11.473  1.00  0.00     0.094 C 
HETATM   26  C   UNL     1     -43.791 -47.744  11.019  1.00  0.00     0.039 C 
HETATM   27  C   UNL     1     -43.191 -46.989   9.780  1.00  0.00     0.006 C 
HETATM   28  C   UNL     1     -41.991 -48.002   9.956  1.00  0.00     0.039 C 
BRANCH  27  29
HETATM   29  C   UNL     1     -44.021 -47.140   8.506  1.00  0.00     0.175 C 
BRANCH  29  30
HETATM   30  O   UNL     1     -43.218 -46.873   7.361  1.00  0.00    -0.400 OA
HETATM   31  H   UNL     1     -42.300 -46.742   7.677  1.00  0.00     0.209 HD
ENDBRANCH  29  30
ENDBRANCH  27  29
BRANCH  27  32
HETATM   32  C   UNL     1     -42.904 -45.502  10.070  1.00  0.00     0.175 C 
BRANCH  32  33
HETATM   33  O   UNL     1     -43.819 -44.683   9.347  1.00  0.00    -0.400 OA
HETATM   34  H   UNL     1     -44.079 -43.949   9.934  1.00  0.00     0.209 HD
ENDBRANCH  32  33
ENDBRANCH  27  32
ENDBRANCH   2  25
TORSDOF 10
ENDMDL
MODEL 5
REMARK VINA RESULT:      -6.0      2.170      3.201
REMARK  10 active torsions:
REMARK  status: ('A' for Active; 'I' for Inactive)
REMARK    1  A    between atoms: N_2  and  C_9 
REMARK    2  A    between atoms: N_3  and  C_5 
REMARK    3  A    between atoms: C_11  and  N_22 
REMARK    4  A    between atoms: C_18  and  C_23 
REMARK    5  A    between atoms: C_18  and  C_24 
REMARK    6  A    between atoms: N_22  and  C_29 
REMARK    7  A    between atoms: C_23  and  O_26 
REMARK    8  A    between atoms: C_24  and  O_27 
REMARK    9  A    between atoms: O_28  and  C_31 
REMARK   10  A    between atoms: C_29  and  C_31 
ROOT
HETATM    1  C   UNL     1     -41.021 -49.679  12.311  1.00  0.00     0.122 A 
HETATM    2  N   UNL     1     -41.037 -47.598  11.657  1.00  0.00    -0.322 N 
HETATM    3  C   UNL     1     -40.320 -48.479  12.428  1.00  0.00     0.140 A 
HETATM    4  C   UNL     1     -40.581 -50.794  13.077  1.00  0.00     0.135 A 
HETATM    5  N   UNL     1     -42.098 -49.542  11.454  1.00  0.00    -0.346 N 
ATOM      6  HN  UNL     1     -42.762 -50.261  11.169  1.00  0.00     0.167 HD
HETATM    7  C   UNL     1     -42.077 -48.285  11.090  1.00  0.00     0.185 A 
HETATM    8  N   UNL     1     -39.223 -48.266  13.171  1.00  0.00    -0.336 N 
ATOM      9  HN  UNL     1     -38.731 -47.374  13.238  1.00  0.00     0.168 HD
HETATM   10  N   UNL     1     -39.456 -50.608  13.818  1.00  0.00    -0.337 N 
ATOM     11  HN  UNL     1     -39.067 -51.375  14.367  1.00  0.00     0.168 HD
HETATM   12  C   UNL     1     -38.856 -49.393  13.820  1.00  0.00     0.183 A 
ENDROOT
BRANCH   4  13
HETATM   13  N   UNL     1     -41.244 -52.016  13.099  1.00  0.00    -0.359 N 
HETATM   14  C   UNL     1     -42.675 -52.148  13.454  1.00  0.00     0.115 C 
HETATM   15  C   UNL     1     -42.947 -53.724  13.374  1.00  0.00     0.246 C 
HETATM   16  C   UNL     1     -42.946 -51.516  14.828  1.00  0.00     0.034 C 
HETATM   17  C   UNL     1     -41.518 -54.310  13.187  1.00  0.00     0.057 C 
HETATM   18  C   UNL     1     -40.538 -53.199  13.538  1.00  0.00     0.127 C 
BRANCH  15  19
HETATM   19  N   UNL     1     -43.755 -54.391  14.435  1.00  0.00     0.092 N 
HETATM   20  C   UNL     1     -44.988 -55.004  13.932  1.00  0.00     0.310 C 
BRANCH  19  21
HETATM   21  C   UNL     1     -43.023 -55.408  15.235  1.00  0.00     0.298 C 
BRANCH  21  22
HETATM   22  C   UNL     1     -42.634 -55.042  16.680  1.00  0.00     0.194 C 
BRANCH  22  23
HETATM   23  O   UNL     1     -43.042 -56.079  17.569  1.00  0.00    -0.399 OA
HETATM   24  H   UNL     1     -43.815 -56.511  17.165  1.00  0.00     0.209 HD
ENDBRANCH  22  23
ENDBRANCH  21  22
ENDBRANCH  19  21
ENDBRANCH  15  19
ENDBRANCH   4  13
BRANCH   2  25
HETATM   25  C   UNL     1     -40.856 -46.209  11.360  1.00  0.00     0.094 C 
HETATM   26  C   UNL     1     -41.328 -45.227  12.470  1.00  0.00     0.039 C 
HETATM   27  C   UNL     1     -41.590 -44.197  11.315  1.00  0.00     0.006 C 
HETATM   28  C   UNL     1     -41.898 -45.490  10.460  1.00  0.00     0.039 C 
BRANCH  27  29
HETATM   29  C   UNL     1     -42.773 -43.264  11.578  1.00  0.00     0.175 C 
BRANCH  29  30
HETATM   30  O   UNL     1     -43.225 -42.688  10.357  1.00  0.00    -0.400 OA
HETATM   31  H   UNL     1     -43.214 -41.716  10.477  1.00  0.00     0.209 HD
ENDBRANCH  29  30
ENDBRANCH  27  29
BRANCH  27  32
HETATM   32  C   UNL     1     -40.333 -43.389  10.940  1.00  0.00     0.175 C 
BRANCH  32  33
HETATM   33  O   UNL     1     -40.546 -42.008  11.213  1.00  0.00    -0.400 OA
HETATM   34  H   UNL     1     -40.286 -41.510  10.416  1.00  0.00     0.209 HD
ENDBRANCH  32  33
ENDBRANCH  27  32
ENDBRANCH   2  25
TORSDOF 10
ENDMDL
MODEL 6
REMARK VINA RESULT:      -6.0      1.887      2.760
REMARK  10 active torsions:
REMARK  status: ('A' for Active; 'I' for Inactive)
REMARK    1  A    between atoms: N_2  and  C_9 
REMARK    2  A    between atoms: N_3  and  C_5 
REMARK    3  A    between atoms: C_11  and  N_22 
REMARK    4  A    between atoms: C_18  and  C_23 
REMARK    5  A    between atoms: C_18  and  C_24 
REMARK    6  A    between atoms: N_22  and  C_29 
REMARK    7  A    between atoms: C_23  and  O_26 
REMARK    8  A    between atoms: C_24  and  O_27 
REMARK    9  A    between atoms: O_28  and  C_31 
REMARK   10  A    between atoms: C_29  and  C_31 
ROOT
HETATM    1  C   UNL     1     -40.813 -49.673  12.610  1.00  0.00     0.122 A 
HETATM    2  N   UNL     1     -40.927 -47.559  12.082  1.00  0.00    -0.322 N 
HETATM    3  C   UNL     1     -40.120 -48.661  11.945  1.00  0.00     0.140 A 
HETATM    4  C   UNL     1     -40.192 -50.947  12.732  1.00  0.00     0.135 A 
HETATM    5  N   UNL     1     -42.026 -49.210  13.089  1.00  0.00    -0.346 N 
ATOM      6  HN  UNL     1     -42.740 -49.738  13.589  1.00  0.00     0.167 HD
HETATM    7  C   UNL     1     -42.053 -47.944  12.759  1.00  0.00     0.185 A 
HETATM    8  N   UNL     1     -38.920 -48.773  11.355  1.00  0.00    -0.336 N 
ATOM      9  HN  UNL     1     -38.437 -48.013  10.875  1.00  0.00     0.168 HD
HETATM   10  N   UNL     1     -38.986 -51.090  12.120  1.00  0.00    -0.337 N 
ATOM     11  HN  UNL     1     -38.500 -51.986  12.142  1.00  0.00     0.168 HD
HETATM   12  C   UNL     1     -38.437 -50.028  11.482  1.00  0.00     0.183 A 
ENDROOT
BRANCH   4  13
HETATM   13  N   UNL     1     -40.754 -52.006  13.437  1.00  0.00    -0.359 N 
HETATM   14  C   UNL     1     -40.912 -51.998  14.909  1.00  0.00     0.115 C 
HETATM   15  C   UNL     1     -41.555 -53.428  15.234  1.00  0.00     0.246 C 
HETATM   16  C   UNL     1     -39.561 -51.728  15.591  1.00  0.00     0.034 C 
HETATM   17  C   UNL     1     -41.469 -54.162  13.866  1.00  0.00     0.057 C 
HETATM   18  C   UNL     1     -40.509 -53.361  12.997  1.00  0.00     0.127 C 
BRANCH  15  19
HETATM   19  N   UNL     1     -41.052 -54.219  16.394  1.00  0.00     0.092 N 
HETATM   20  C   UNL     1     -42.114 -54.664  17.302  1.00  0.00     0.310 C 
BRANCH  19  21
HETATM   21  C   UNL     1     -40.223 -55.400  16.036  1.00  0.00     0.298 C 
BRANCH  21  22
HETATM   22  C   UNL     1     -38.691 -55.261  16.139  1.00  0.00     0.194 C 
BRANCH  22  23
HETATM   23  O   UNL     1     -38.069 -55.967  15.067  1.00  0.00    -0.399 OA
HETATM   24  H   UNL     1     -37.108 -55.862  15.179  1.00  0.00     0.209 HD
ENDBRANCH  22  23
ENDBRANCH  21  22
ENDBRANCH  19  21
ENDBRANCH  15  19
ENDBRANCH   4  13
BRANCH   2  25
HETATM   25  C   UNL     1     -40.794 -46.206  11.635  1.00  0.00     0.094 C 
HETATM   26  C   UNL     1     -41.300 -45.125  12.634  1.00  0.00     0.039 C 
HETATM   27  C   UNL     1     -41.596 -44.236  11.374  1.00  0.00     0.006 C 
HETATM   28  C   UNL     1     -41.859 -45.625  10.665  1.00  0.00     0.039 C 
BRANCH  27  29
HETATM   29  C   UNL     1     -42.810 -43.322  11.538  1.00  0.00     0.175 C 
BRANCH  29  30
HETATM   30  O   UNL     1     -42.990 -42.530  10.368  1.00  0.00    -0.400 OA
HETATM   31  H   UNL     1     -42.156 -42.038  10.223  1.00  0.00     0.209 HD
ENDBRANCH  29  30
ENDBRANCH  27  29
BRANCH  27  32
HETATM   32  C   UNL     1     -40.367 -43.431  10.910  1.00  0.00     0.175 C 
BRANCH  32  33
HETATM   33  O   UNL     1     -40.487 -42.077  11.335  1.00  0.00    -0.400 OA
HETATM   34  H   UNL     1     -40.605 -41.531  10.536  1.00  0.00     0.209 HD
ENDBRANCH  32  33
ENDBRANCH  27  32
ENDBRANCH   2  25
TORSDOF 10
ENDMDL
MODEL 7
REMARK VINA RESULT:      -5.9      2.127      3.215
REMARK  10 active torsions:
REMARK  status: ('A' for Active; 'I' for Inactive)
REMARK    1  A    between atoms: N_2  and  C_9 
REMARK    2  A    between atoms: N_3  and  C_5 
REMARK    3  A    between atoms: C_11  and  N_22 
REMARK    4  A    between atoms: C_18  and  C_23 
REMARK    5  A    between atoms: C_18  and  C_24 
REMARK    6  A    between atoms: N_22  and  C_29 
REMARK    7  A    between atoms: C_23  and  O_26 
REMARK    8  A    between atoms: C_24  and  O_27 
REMARK    9  A    between atoms: O_28  and  C_31 
REMARK   10  A    between atoms: C_29  and  C_31 
ROOT
HETATM    1  C   UNL     1     -41.497 -51.894  14.233  1.00  0.00     0.122 A 
HETATM    2  N   UNL     1     -41.325 -49.959  13.239  1.00  0.00    -0.322 N 
HETATM    3  C   UNL     1     -41.918 -51.190  13.104  1.00  0.00     0.140 A 
HETATM    4  C   UNL     1     -41.869 -53.261  14.353  1.00  0.00     0.135 A 
HETATM    5  N   UNL     1     -40.717 -51.095  15.052  1.00  0.00    -0.346 N 
ATOM      6  HN  UNL     1     -40.300 -51.344  15.948  1.00  0.00     0.167 HD
HETATM    7  C   UNL     1     -40.634 -49.952  14.421  1.00  0.00     0.185 A 
HETATM    8  N   UNL     1     -42.691 -51.662  12.114  1.00  0.00    -0.336 N 
ATOM      9  HN  UNL     1     -42.982 -51.122  11.298  1.00  0.00     0.168 HD
HETATM   10  N   UNL     1     -42.674 -53.753  13.373  1.00  0.00    -0.337 N 
ATOM     11  HN  UNL     1     -43.004 -54.718  13.413  1.00  0.00     0.168 HD
HETATM   12  C   UNL     1     -43.031 -52.950  12.343  1.00  0.00     0.183 A 
ENDROOT
BRANCH   4  13
HETATM   13  N   UNL     1     -41.446 -54.081  15.394  1.00  0.00    -0.359 N 
HETATM   14  C   UNL     1     -40.019 -54.372  15.657  1.00  0.00     0.115 C 
HETATM   15  C   UNL     1     -40.056 -55.374  16.907  1.00  0.00     0.246 C 
HETATM   16  C   UNL     1     -39.346 -54.939  14.397  1.00  0.00     0.034 C 
HETATM   17  C   UNL     1     -41.572 -55.692  17.046  1.00  0.00     0.057 C 
HETATM   18  C   UNL     1     -42.238 -55.235  15.756  1.00  0.00     0.127 C 
BRANCH  15  19
HETATM   19  N   UNL     1     -39.168 -56.571  16.922  1.00  0.00     0.092 N 
HETATM   20  C   UNL     1     -37.944 -56.380  17.708  1.00  0.00     0.310 C 
BRANCH  19  21
HETATM   21  C   UNL     1     -39.818 -57.829  17.374  1.00  0.00     0.298 C 
BRANCH  21  22
HETATM   22  C   UNL     1     -38.957 -58.843  18.152  1.00  0.00     0.194 C 
BRANCH  22  23
HETATM   23  O   UNL     1     -39.327 -60.172  17.787  1.00  0.00    -0.399 OA
HETATM   24  H   UNL     1     -40.228 -60.317  18.121  1.00  0.00     0.209 HD
ENDBRANCH  22  23
ENDBRANCH  21  22
ENDBRANCH  19  21
ENDBRANCH  15  19
ENDBRANCH   4  13
BRANCH   2  25
HETATM   25  C   UNL     1     -41.350 -48.783  12.423  1.00  0.00     0.094 C 
HETATM   26  C   UNL     1     -42.752 -48.133  12.241  1.00  0.00     0.039 C 
HETATM   27  C   UNL     1     -42.226 -47.615  10.855  1.00  0.00     0.006 C 
HETATM   28  C   UNL     1     -41.364 -48.940  10.878  1.00  0.00     0.039 C 
BRANCH  27  29
HETATM   29  C   UNL     1     -43.308 -47.533   9.778  1.00  0.00     0.175 C 
BRANCH  29  30
HETATM   30  O   UNL     1     -42.734 -47.719   8.488  1.00  0.00    -0.400 OA
HETATM   31  H   UNL     1     -41.937 -47.152   8.444  1.00  0.00     0.209 HD
ENDBRANCH  29  30
ENDBRANCH  27  29
BRANCH  27  32
HETATM   32  C   UNL     1     -41.466 -46.280  10.966  1.00  0.00     0.175 C 
BRANCH  32  33
HETATM   33  O   UNL     1     -41.393 -45.656   9.688  1.00  0.00    -0.400 OA
HETATM   34  H   UNL     1     -42.284 -45.321   9.476  1.00  0.00     0.209 HD
ENDBRANCH  32  33
ENDBRANCH  27  32
ENDBRANCH   2  25
TORSDOF 10
ENDMDL
MODEL 8
REMARK VINA RESULT:      -5.8      2.054      9.262
REMARK  10 active torsions:
REMARK  status: ('A' for Active; 'I' for Inactive)
REMARK    1  A    between atoms: N_2  and  C_9 
REMARK    2  A    between atoms: N_3  and  C_5 
REMARK    3  A    between atoms: C_11  and  N_22 
REMARK    4  A    between atoms: C_18  and  C_23 
REMARK    5  A    between atoms: C_18  and  C_24 
REMARK    6  A    between atoms: N_22  and  C_29 
REMARK    7  A    between atoms: C_23  and  O_26 
REMARK    8  A    between atoms: C_24  and  O_27 
REMARK    9  A    between atoms: O_28  and  C_31 
REMARK   10  A    between atoms: C_29  and  C_31 
ROOT
HETATM    1  C   UNL     1     -40.265 -51.234  13.749  1.00  0.00     0.122 A 
HETATM    2  N   UNL     1     -39.994 -52.914  15.115  1.00  0.00    -0.322 N 
HETATM    3  C   UNL     1     -40.383 -52.622  13.831  1.00  0.00     0.140 A 
HETATM    4  C   UNL     1     -40.685 -50.591  12.552  1.00  0.00     0.135 A 
HETATM    5  N   UNL     1     -39.771 -50.709  14.931  1.00  0.00    -0.346 N 
ATOM      6  HN  UNL     1     -39.564 -49.732  15.139  1.00  0.00     0.167 HD
HETATM    7  C   UNL     1     -39.629 -51.742  15.722  1.00  0.00     0.185 A 
HETATM    8  N   UNL     1     -40.820 -53.442  12.864  1.00  0.00    -0.336 N 
ATOM      9  HN  UNL     1     -40.896 -54.456  12.954  1.00  0.00     0.168 HD
HETATM   10  N   UNL     1     -41.109 -51.406  11.550  1.00  0.00    -0.337 N 
ATOM     11  HN  UNL     1     -41.396 -51.014  10.653  1.00  0.00     0.168 HD
HETATM   12  C   UNL     1     -41.148 -52.744  11.754  1.00  0.00     0.183 A 
ENDROOT
BRANCH   4  13
HETATM   13  N   UNL     1     -40.685 -49.211  12.386  1.00  0.00    -0.359 N 
HETATM   14  C   UNL     1     -41.662 -48.321  13.052  1.00  0.00     0.115 C 
HETATM   15  C   UNL     1     -41.278 -46.860  12.518  1.00  0.00     0.246 C 
HETATM   16  C   UNL     1     -43.098 -48.767  12.733  1.00  0.00     0.034 C 
HETATM   17  C   UNL     1     -40.230 -47.165  11.410  1.00  0.00     0.057 C 
HETATM   18  C   UNL     1     -40.339 -48.651  11.098  1.00  0.00     0.127 C 
BRANCH  15  19
HETATM   19  N   UNL     1     -42.356 -45.916  12.107  1.00  0.00     0.092 N 
HETATM   20  C   UNL     1     -42.549 -44.806  13.047  1.00  0.00     0.310 C 
BRANCH  19  21
HETATM   21  C   UNL     1     -42.206 -45.347  10.743  1.00  0.00     0.298 C 
BRANCH  21  22
HETATM   22  C   UNL     1     -43.285 -45.693   9.697  1.00  0.00     0.194 C 
BRANCH  22  23
HETATM   23  O   UNL     1     -43.994 -44.513   9.325  1.00  0.00    -0.399 OA
HETATM   24  H   UNL     1     -44.942 -44.713   9.409  1.00  0.00     0.209 HD
ENDBRANCH  22  23
ENDBRANCH  21  22
ENDBRANCH  19  21
ENDBRANCH  15  19
ENDBRANCH   4  13
BRANCH   2  25
HETATM   25  C   UNL     1     -39.893 -54.148  15.834  1.00  0.00     0.094 C 
HETATM   26  C   UNL     1     -39.054 -54.085  17.143  1.00  0.00     0.039 C 
HETATM   27  C   UNL     1     -38.732 -55.601  16.896  1.00  0.00     0.006 C 
HETATM   28  C   UNL     1     -38.855 -55.206  15.371  1.00  0.00     0.039 C 
BRANCH  27  29
HETATM   29  C   UNL     1     -37.342 -56.021  17.375  1.00  0.00     0.175 C 
BRANCH  29  30
HETATM   30  O   UNL     1     -37.450 -57.038  18.366  1.00  0.00    -0.400 OA
HETATM   31  H   UNL     1     -37.090 -57.860  17.975  1.00  0.00     0.209 HD
ENDBRANCH  29  30
ENDBRANCH  27  29
BRANCH  27  32
HETATM   32  C   UNL     1     -39.811 -56.541  17.468  1.00  0.00     0.175 C 
BRANCH  32  33
HETATM   33  O   UNL     1     -39.659 -57.845  16.917  1.00  0.00    -0.400 OA
HETATM   34  H   UNL     1     -39.998 -58.481  17.574  1.00  0.00     0.209 HD
ENDBRANCH  32  33
ENDBRANCH  27  32
ENDBRANCH   2  25
TORSDOF 10
ENDMDL
MODEL 9
REMARK VINA RESULT:      -5.8      3.489      8.989
REMARK  10 active torsions:
REMARK  status: ('A' for Active; 'I' for Inactive)
REMARK    1  A    between atoms: N_2  and  C_9 
REMARK    2  A    between atoms: N_3  and  C_5 
REMARK    3  A    between atoms: C_11  and  N_22 
REMARK    4  A    between atoms: C_18  and  C_23 
REMARK    5  A    between atoms: C_18  and  C_24 
REMARK    6  A    between atoms: N_22  and  C_29 
REMARK    7  A    between atoms: C_23  and  O_26 
REMARK    8  A    between atoms: C_24  and  O_27 
REMARK    9  A    between atoms: O_28  and  C_31 
REMARK   10  A    between atoms: C_29  and  C_31 
ROOT
HETATM    1  C   UNL     1     -41.894 -48.801  12.751  1.00  0.00     0.122 A 
HETATM    2  N   UNL     1     -42.972 -50.673  13.060  1.00  0.00    -0.322 N 
HETATM    3  C   UNL     1     -41.943 -50.131  12.331  1.00  0.00     0.140 A 
HETATM    4  C   UNL     1     -40.976 -47.925  12.110  1.00  0.00     0.135 A 
HETATM    5  N   UNL     1     -42.831 -48.561  13.742  1.00  0.00    -0.346 N 
ATOM      6  HN  UNL     1     -42.996 -47.689  14.243  1.00  0.00     0.167 HD
HETATM    7  C   UNL     1     -43.457 -49.700  13.893  1.00  0.00     0.185 A 
HETATM    8  N   UNL     1     -41.168 -50.698  11.393  1.00  0.00    -0.336 N 
ATOM      9  HN  UNL     1     -41.228 -51.676  11.106  1.00  0.00     0.168 HD
HETATM   10  N   UNL     1     -40.163 -48.485  11.174  1.00  0.00    -0.337 N 
ATOM     11  HN  UNL     1     -39.460 -47.920  10.698  1.00  0.00     0.168 HD
HETATM   12  C   UNL     1     -40.299 -49.800  10.881  1.00  0.00     0.183 A 
ENDROOT
BRANCH   4  13
HETATM   13  N   UNL     1     -40.892 -46.565  12.393  1.00  0.00    -0.359 N 
HETATM   14  C   UNL     1     -41.976 -45.610  12.072  1.00  0.00     0.115 C 
HETATM   15  C   UNL     1     -41.393 -44.195  12.545  1.00  0.00     0.246 C 
HETATM   16  C   UNL     1     -42.339 -45.692  10.581  1.00  0.00     0.034 C 
HETATM   17  C   UNL     1     -39.912 -44.530  12.884  1.00  0.00     0.057 C 
HETATM   18  C   UNL     1     -39.618 -45.893  12.271  1.00  0.00     0.127 C 
BRANCH  15  19
HETATM   19  N   UNL     1     -41.573 -42.994  11.680  1.00  0.00     0.092 N 
HETATM   20  C   UNL     1     -42.902 -42.384  11.798  1.00  0.00     0.310 C 
BRANCH  19  21
HETATM   21  C   UNL     1     -40.555 -41.928  11.867  1.00  0.00     0.298 C 
BRANCH  21  22
HETATM   22  C   UNL     1     -40.605 -41.107  13.170  1.00  0.00     0.194 C 
BRANCH  22  23
HETATM   23  O   UNL     1     -39.306 -41.054  13.758  1.00  0.00    -0.399 OA
HETATM   24  H   UNL     1     -38.752 -41.695  13.281  1.00  0.00     0.209 HD
ENDBRANCH  22  23
ENDBRANCH  21  22
ENDBRANCH  19  21
ENDBRANCH  15  19
ENDBRANCH   4  13
BRANCH   2  25
HETATM   25  C   UNL     1     -43.536 -51.988  13.099  1.00  0.00     0.094 C 
HETATM   26  C   UNL     1     -44.424 -52.291  14.340  1.00  0.00     0.039 C 
HETATM   27  C   UNL     1     -44.000 -53.792  14.158  1.00  0.00     0.006 C 
HETATM   28  C   UNL     1     -42.660 -53.169  13.597  1.00  0.00     0.039 C 
BRANCH  27  29
HETATM   29  C   UNL     1     -43.888 -54.564  15.473  1.00  0.00     0.175 C 
BRANCH  29  30
HETATM   30  O   UNL     1     -43.512 -55.914  15.220  1.00  0.00    -0.400 OA
HETATM   31  H   UNL     1     -44.193 -56.296  14.630  1.00  0.00     0.209 HD
ENDBRANCH  29  30
ENDBRANCH  27  29
BRANCH  27  32
HETATM   32  C   UNL     1     -44.896 -54.548  13.158  1.00  0.00     0.175 C 
BRANCH  32  33
HETATM   33  O   UNL     1     -45.917 -55.252  13.859  1.00  0.00    -0.400 OA
HETATM   34  H   UNL     1     -45.749 -56.205  13.740  1.00  0.00     0.209 HD
ENDBRANCH  32  33
ENDBRANCH  27  32
ENDBRANCH   2  25
TORSDOF 10
ENDMDL
