MODEL 1
REMARK VINA RESULT:      -6.4      0.000      0.000
REMARK  6 active torsions:
REMARK  status: ('A' for Active; 'I' for Inactive)
REMARK    1  A    between atoms: O_2  and  C_3 
REMARK    2  A    between atoms: C_3  and  C_4 
REMARK    3  A    between atoms: C_4  and  C_5 
REMARK    4  A    between atoms: N_8  and  C_9 
REMARK    5  A    between atoms: C_19  and  O_20 
REMARK    6  A    between atoms: C_19  and  C_22 
ROOT
HETATM    1  C   UNL     1     -43.640 -53.265  12.953  1.00  0.00     0.011 C 
HETATM    2  N   UNL     1     -43.387 -52.065  12.529  1.00  0.00    -0.289 N 
ATOM      3  HN  UNL     1     -44.049 -51.295  12.431  1.00  0.00     0.187 HD
HETATM    4  N   UNL     1     -42.044 -52.042  12.237  1.00  0.00    -0.078 N 
HETATM    5  C   UNL     1     -41.332 -53.203  12.778  1.00  0.00     0.273 C 
HETATM    6  C   UNL     1     -42.484 -54.209  12.888  1.00  0.00     0.127 C 
ENDROOT
BRANCH   4   7
HETATM    7  C   UNL     1     -41.382 -50.870  11.873  1.00  0.00     0.702 A 
HETATM    8  N   UNL     1     -40.039 -50.847  11.806  1.00  0.00    -0.194 N 
HETATM    9  C   UNL     1     -39.430 -49.682  11.538  1.00  0.00     0.024 A 
ATOM     10  HN  UNL     1     -39.495 -51.697  11.955  1.00  0.00     0.184 HD
HETATM   11  C   UNL     1     -37.931 -49.687  11.474  1.00  0.00     0.068 C 
HETATM   12  C   UNL     1     -40.126 -48.509  11.363  1.00  0.00     0.050 A 
HETATM   13  C   UNL     1     -41.499 -48.594  11.463  1.00  0.00     0.024 A 
HETATM   14  C   UNL     1     -42.346 -47.366  11.321  1.00  0.00     0.068 C 
HETATM   15  N   UNL     1     -42.136 -49.761  11.714  1.00  0.00    -0.194 N 
ATOM     16  HN  UNL     1     -43.153 -49.802  11.780  1.00  0.00     0.184 HD
ENDBRANCH   4   7
BRANCH   5  17
HETATM   17  O   UNL     1     -40.430 -53.751  11.803  1.00  0.00    -0.361 OA
HETATM   18  H   UNL     1     -40.660 -53.266  10.985  1.00  0.00     0.213 HD
ENDBRANCH   5  17
BRANCH   5  19
HETATM   19  C   UNL     1     -40.687 -52.927  14.184  1.00  0.00     0.440 C 
HETATM   20  F   UNL     1     -40.904 -53.910  15.088  1.00  0.00    -0.166 F 
HETATM   21  F   UNL     1     -39.335 -52.778  14.104  1.00  0.00    -0.166 F 
HETATM   22  F   UNL     1     -41.155 -51.779  14.737  1.00  0.00    -0.166 F 
ENDBRANCH   5  19
BRANCH   1  23
HETATM   23  C   UNL     1     -45.009 -53.719  13.368  1.00  0.00     0.080 C 
BRANCH  23  24
HETATM   24  C   UNL     1     -46.068 -52.669  13.063  1.00  0.00     0.172 C 
BRANCH  24  25
HETATM   25  O   UNL     1     -46.313 -52.646  11.661  1.00  0.00    -0.396 OA
HETATM   26  C   UNL     1     -47.269 -51.658  11.300  1.00  0.00     0.201 C 
ENDBRANCH  24  25
ENDBRANCH  23  24
ENDBRANCH   1  23
TORSDOF 6
ENDMDL
MODEL 2
REMARK VINA RESULT:      -6.3      0.144      1.979
REMARK  6 active torsions:
REMARK  status: ('A' for Active; 'I' for Inactive)
REMARK    1  A    between atoms: O_2  and  C_3 
REMARK    2  A    between atoms: C_3  and  C_4 
REMARK    3  A    between atoms: C_4  and  C_5 
REMARK    4  A    between atoms: N_8  and  C_9 
REMARK    5  A    between atoms: C_19  and  O_20 
REMARK    6  A    between atoms: C_19  and  C_22 
ROOT
HETATM    1  C   UNL     1     -43.635 -53.268  12.931  1.00  0.00     0.011 C 
HETATM    2  N   UNL     1     -43.383 -52.050  12.562  1.00  0.00    -0.289 N 
ATOM      3  HN  UNL     1     -44.046 -51.278  12.496  1.00  0.00     0.187 HD
HETATM    4  N   UNL     1     -42.039 -52.012  12.276  1.00  0.00    -0.078 N 
HETATM    5  C   UNL     1     -41.326 -53.194  12.767  1.00  0.00     0.273 C 
HETATM    6  C   UNL     1     -42.477 -54.207  12.827  1.00  0.00     0.127 C 
ENDROOT
BRANCH   4   7
HETATM    7  C   UNL     1     -41.378 -50.823  11.967  1.00  0.00     0.702 A 
HETATM    8  N   UNL     1     -42.082 -49.730  11.626  1.00  0.00    -0.194 N 
HETATM    9  C   UNL     1     -41.413 -48.629  11.250  1.00  0.00     0.024 A 
ATOM     10  HN  UNL     1     -43.101 -49.737  11.653  1.00  0.00     0.184 HD
HETATM   11  C   UNL     1     -42.226 -47.425  10.871  1.00  0.00     0.068 C 
HETATM   12  C   UNL     1     -40.041 -48.590  11.170  1.00  0.00     0.050 A 
HETATM   13  C   UNL     1     -39.377 -49.748  11.514  1.00  0.00     0.024 A 
HETATM   14  C   UNL     1     -37.882 -49.819  11.429  1.00  0.00     0.068 C 
HETATM   15  N   UNL     1     -40.029 -50.865  11.914  1.00  0.00    -0.194 N 
ATOM     16  HN  UNL     1     -39.518 -51.710  12.167  1.00  0.00     0.184 HD
ENDBRANCH   4   7
BRANCH   5  17
HETATM   17  O   UNL     1     -40.421 -53.696  11.771  1.00  0.00    -0.361 OA
HETATM   18  H   UNL     1     -40.199 -52.901  11.245  1.00  0.00     0.213 HD
ENDBRANCH   5  17
BRANCH   5  19
HETATM   19  C   UNL     1     -40.686 -52.981  14.185  1.00  0.00     0.440 C 
HETATM   20  F   UNL     1     -41.135 -51.878  14.828  1.00  0.00    -0.166 F 
HETATM   21  F   UNL     1     -40.930 -54.031  15.018  1.00  0.00    -0.166 F 
HETATM   22  F   UNL     1     -39.335 -52.868  14.116  1.00  0.00    -0.166 F 
ENDBRANCH   5  19
BRANCH   1  23
HETATM   23  C   UNL     1     -45.004 -53.743  13.321  1.00  0.00     0.080 C 
BRANCH  23  24
HETATM   24  C   UNL     1     -46.067 -52.691  13.038  1.00  0.00     0.172 C 
BRANCH  24  25
HETATM   25  O   UNL     1     -46.315 -52.640  11.637  1.00  0.00    -0.396 OA
HETATM   26  C   UNL     1     -47.272 -51.646  11.298  1.00  0.00     0.201 C 
ENDBRANCH  24  25
ENDBRANCH  23  24
ENDBRANCH   1  23
TORSDOF 6
ENDMDL
MODEL 3
REMARK VINA RESULT:      -6.2      5.593      6.729
REMARK  6 active torsions:
REMARK  status: ('A' for Active; 'I' for Inactive)
REMARK    1  A    between atoms: O_2  and  C_3 
REMARK    2  A    between atoms: C_3  and  C_4 
REMARK    3  A    between atoms: C_4  and  C_5 
REMARK    4  A    between atoms: N_8  and  C_9 
REMARK    5  A    between atoms: C_19  and  O_20 
REMARK    6  A    between atoms: C_19  and  C_22 
ROOT
HETATM    1  C   UNL     1     -42.376 -46.244   9.810  1.00  0.00     0.011 C 
HETATM    2  N   UNL     1     -41.658 -47.243  10.224  1.00  0.00    -0.289 N 
ATOM      3  HN  UNL     1     -41.563 -48.157   9.780  1.00  0.00     0.187 HD
HETATM    4  N   UNL     1     -41.053 -46.819  11.383  1.00  0.00    -0.078 N 
HETATM    5  C   UNL     1     -41.154 -45.370  11.573  1.00  0.00     0.273 C 
HETATM    6  C   UNL     1     -42.398 -45.066  10.729  1.00  0.00     0.127 C 
ENDROOT
BRANCH   4   7
HETATM    7  C   UNL     1     -40.098 -47.589  12.047  1.00  0.00     0.702 A 
HETATM    8  N   UNL     1     -39.898 -47.424  13.367  1.00  0.00    -0.194 N 
HETATM    9  C   UNL     1     -38.913 -48.118  13.957  1.00  0.00     0.024 A 
ATOM     10  HN  UNL     1     -40.483 -46.786  13.907  1.00  0.00     0.184 HD
HETATM   11  C   UNL     1     -38.712 -47.909  15.430  1.00  0.00     0.068 C 
HETATM   12  C   UNL     1     -38.083 -48.962  13.258  1.00  0.00     0.050 A 
HETATM   13  C   UNL     1     -38.326 -49.073  11.906  1.00  0.00     0.024 A 
HETATM   14  C   UNL     1     -37.456 -49.943  11.049  1.00  0.00     0.068 C 
HETATM   15  N   UNL     1     -39.325 -48.399  11.291  1.00  0.00    -0.194 N 
ATOM     16  HN  UNL     1     -39.490 -48.498  10.290  1.00  0.00     0.184 HD
ENDBRANCH   4   7
BRANCH   5  17
HETATM   17  O   UNL     1     -41.517 -45.055  12.926  1.00  0.00    -0.361 OA
HETATM   18  H   UNL     1     -41.863 -44.142  12.862  1.00  0.00     0.213 HD
ENDBRANCH   5  17
BRANCH   5  19
HETATM   19  C   UNL     1     -39.901 -44.591  11.033  1.00  0.00     0.440 C 
HETATM   20  F   UNL     1     -38.933 -44.404  11.960  1.00  0.00    -0.166 F 
HETATM   21  F   UNL     1     -39.309 -45.237   9.991  1.00  0.00    -0.166 F 
HETATM   22  F   UNL     1     -40.236 -43.361  10.566  1.00  0.00    -0.166 F 
ENDBRANCH   5  19
BRANCH   1  23
HETATM   23  C   UNL     1     -43.218 -46.294   8.569  1.00  0.00     0.080 C 
BRANCH  23  24
HETATM   24  C   UNL     1     -44.025 -47.583   8.487  1.00  0.00     0.172 C 
BRANCH  24  25
HETATM   25  O   UNL     1     -44.941 -47.631   9.575  1.00  0.00    -0.396 OA
HETATM   26  C   UNL     1     -46.292 -47.684   9.136  1.00  0.00     0.201 C 
ENDBRANCH  24  25
ENDBRANCH  23  24
ENDBRANCH   1  23
TORSDOF 6
ENDMDL
MODEL 4
REMARK VINA RESULT:      -6.1      5.733      6.647
REMARK  6 active torsions:
REMARK  status: ('A' for Active; 'I' for Inactive)
REMARK    1  A    between atoms: O_2  and  C_3 
REMARK    2  A    between atoms: C_3  and  C_4 
REMARK    3  A    between atoms: C_4  and  C_5 
REMARK    4  A    between atoms: N_8  and  C_9 
REMARK    5  A    between atoms: C_19  and  O_20 
REMARK    6  A    between atoms: C_19  and  C_22 
ROOT
HETATM    1  C   UNL     1     -42.289 -46.605   9.847  1.00  0.00     0.011 C 
HETATM    2  N   UNL     1     -41.439 -47.506  10.239  1.00  0.00    -0.289 N 
ATOM      3  HN  UNL     1     -41.258 -48.410   9.802  1.00  0.00     0.187 HD
HETATM    4  N   UNL     1     -40.836 -46.993  11.363  1.00  0.00    -0.078 N 
HETATM    5  C   UNL     1     -41.099 -45.563  11.539  1.00  0.00     0.273 C 
HETATM    6  C   UNL     1     -42.408 -45.422  10.752  1.00  0.00     0.127 C 
ENDROOT
BRANCH   4   7
HETATM    7  C   UNL     1     -39.768 -47.634  11.990  1.00  0.00     0.702 A 
HETATM    8  N   UNL     1     -39.081 -48.591  11.342  1.00  0.00    -0.194 N 
HETATM    9  C   UNL     1     -38.116 -49.248  12.005  1.00  0.00     0.024 A 
ATOM     10  HN  UNL     1     -39.288 -48.813  10.368  1.00  0.00     0.184 HD
HETATM   11  C   UNL     1     -37.370 -50.313  11.256  1.00  0.00     0.068 C 
HETATM   12  C   UNL     1     -37.828 -49.000  13.326  1.00  0.00     0.050 A 
HETATM   13  C   UNL     1     -38.580 -48.021  13.940  1.00  0.00     0.024 A 
HETATM   14  C   UNL     1     -38.367 -47.698  15.389  1.00  0.00     0.068 C 
HETATM   15  N   UNL     1     -39.545 -47.332  13.288  1.00  0.00    -0.194 N 
ATOM     16  HN  UNL     1     -40.088 -46.609  13.760  1.00  0.00     0.184 HD
ENDBRANCH   4   7
BRANCH   5  17
HETATM   17  O   UNL     1     -41.434 -45.269  12.905  1.00  0.00    -0.361 OA
HETATM   18  H   UNL     1     -42.410 -45.336  12.918  1.00  0.00     0.213 HD
ENDBRANCH   5  17
BRANCH   5  19
HETATM   19  C   UNL     1     -39.973 -44.652  10.931  1.00  0.00     0.440 C 
HETATM   20  F   UNL     1     -40.413 -43.442  10.514  1.00  0.00    -0.166 F 
HETATM   21  F   UNL     1     -38.977 -44.404  11.827  1.00  0.00    -0.166 F 
HETATM   22  F   UNL     1     -39.373 -45.237   9.863  1.00  0.00    -0.166 F 
ENDBRANCH   5  19
BRANCH   1  23
HETATM   23  C   UNL     1     -43.174 -46.776   8.649  1.00  0.00     0.080 C 
BRANCH  23  24
HETATM   24  C   UNL     1     -44.608 -46.358   8.943  1.00  0.00     0.172 C 
BRANCH  24  25
HETATM   25  O   UNL     1     -45.457 -47.496   8.845  1.00  0.00    -0.396 OA
HETATM   26  C   UNL     1     -46.819 -47.173   9.093  1.00  0.00     0.201 C 
ENDBRANCH  24  25
ENDBRANCH  23  24
ENDBRANCH   1  23
TORSDOF 6
ENDMDL
MODEL 5
REMARK VINA RESULT:      -6.1      1.431      1.698
REMARK  6 active torsions:
REMARK  status: ('A' for Active; 'I' for Inactive)
REMARK    1  A    between atoms: O_2  and  C_3 
REMARK    2  A    between atoms: C_3  and  C_4 
REMARK    3  A    between atoms: C_4  and  C_5 
REMARK    4  A    between atoms: N_8  and  C_9 
REMARK    5  A    between atoms: C_19  and  O_20 
REMARK    6  A    between atoms: C_19  and  C_22 
ROOT
HETATM    1  C   UNL     1     -43.128 -52.717  13.604  1.00  0.00     0.011 C 
HETATM    2  N   UNL     1     -42.597 -51.539  13.481  1.00  0.00    -0.289 N 
ATOM      3  HN  UNL     1     -43.005 -50.649  13.769  1.00  0.00     0.187 HD
HETATM    4  N   UNL     1     -41.375 -51.734  12.883  1.00  0.00    -0.078 N 
HETATM    5  C   UNL     1     -40.968 -53.141  12.885  1.00  0.00     0.273 C 
HETATM    6  C   UNL     1     -42.335 -53.827  12.993  1.00  0.00     0.127 C 
ENDROOT
BRANCH   4   7
HETATM    7  C   UNL     1     -40.460 -50.697  12.707  1.00  0.00     0.702 A 
HETATM    8  N   UNL     1     -39.381 -50.876  11.924  1.00  0.00    -0.194 N 
HETATM    9  C   UNL     1     -38.476 -49.889  11.845  1.00  0.00     0.024 A 
ATOM     10  HN  UNL     1     -39.254 -51.743  11.401  1.00  0.00     0.184 HD
HETATM   11  C   UNL     1     -37.280 -50.120  10.967  1.00  0.00     0.068 C 
HETATM   12  C   UNL     1     -38.595 -48.720  12.559  1.00  0.00     0.050 A 
HETATM   13  C   UNL     1     -39.712 -48.604  13.358  1.00  0.00     0.024 A 
HETATM   14  C   UNL     1     -39.918 -47.382  14.201  1.00  0.00     0.068 C 
HETATM   15  N   UNL     1     -40.648 -49.578  13.439  1.00  0.00    -0.194 N 
ATOM     16  HN  UNL     1     -41.469 -49.471  14.034  1.00  0.00     0.184 HD
ENDBRANCH   4   7
BRANCH   5  17
HETATM   17  O   UNL     1     -40.442 -53.524  11.604  1.00  0.00    -0.361 OA
HETATM   18  H   UNL     1     -39.854 -54.277  11.816  1.00  0.00     0.213 HD
ENDBRANCH   5  17
BRANCH   5  19
HETATM   19  C   UNL     1     -40.051 -53.513  14.106  1.00  0.00     0.440 C 
HETATM   20  F   UNL     1     -38.726 -53.435  13.839  1.00  0.00    -0.166 F 
HETATM   21  F   UNL     1     -40.271 -52.699  15.175  1.00  0.00    -0.166 F 
HETATM   22  F   UNL     1     -40.285 -54.776  14.546  1.00  0.00    -0.166 F 
ENDBRANCH   5  19
BRANCH   1  23
HETATM   23  C   UNL     1     -44.483 -52.951  14.203  1.00  0.00     0.080 C 
BRANCH  23  24
HETATM   24  C   UNL     1     -45.361 -53.803  13.297  1.00  0.00     0.172 C 
BRANCH  24  25
HETATM   25  O   UNL     1     -45.739 -53.038  12.158  1.00  0.00    -0.396 OA
HETATM   26  C   UNL     1     -46.528 -51.908  12.509  1.00  0.00     0.201 C 
ENDBRANCH  24  25
ENDBRANCH  23  24
ENDBRANCH   1  23
TORSDOF 6
ENDMDL
MODEL 6
REMARK VINA RESULT:      -6.0      2.639      5.764
REMARK  6 active torsions:
REMARK  status: ('A' for Active; 'I' for Inactive)
REMARK    1  A    between atoms: O_2  and  C_3 
REMARK    2  A    between atoms: C_3  and  C_4 
REMARK    3  A    between atoms: C_4  and  C_5 
REMARK    4  A    between atoms: N_8  and  C_9 
REMARK    5  A    between atoms: C_19  and  O_20 
REMARK    6  A    between atoms: C_19  and  C_22 
ROOT
HETATM    1  C   UNL     1     -41.345 -53.925  14.470  1.00  0.00     0.011 C 
HETATM    2  N   UNL     1     -42.565 -53.631  14.803  1.00  0.00    -0.289 N 
ATOM      3  HN  UNL     1     -43.033 -53.857  15.681  1.00  0.00     0.187 HD
HETATM    4  N   UNL     1     -43.096 -52.953  13.732  1.00  0.00    -0.078 N 
HETATM    5  C   UNL     1     -42.075 -52.531  12.771  1.00  0.00     0.273 C 
HETATM    6  C   UNL     1     -40.971 -53.552  13.072  1.00  0.00     0.127 C 
ENDROOT
BRANCH   4   7
HETATM    7  C   UNL     1     -44.359 -52.363  13.779  1.00  0.00     0.702 A 
HETATM    8  N   UNL     1     -44.894 -52.007  14.960  1.00  0.00    -0.194 N 
HETATM    9  C   UNL     1     -46.146 -51.523  14.977  1.00  0.00     0.024 A 
ATOM     10  HN  UNL     1     -44.360 -52.103  15.824  1.00  0.00     0.184 HD
HETATM   11  C   UNL     1     -46.717 -51.139  16.311  1.00  0.00     0.068 C 
HETATM   12  C   UNL     1     -46.908 -51.410  13.839  1.00  0.00     0.050 A 
HETATM   13  C   UNL     1     -46.311 -51.809  12.663  1.00  0.00     0.024 A 
HETATM   14  C   UNL     1     -47.070 -51.755  11.371  1.00  0.00     0.068 C 
HETATM   15  N   UNL     1     -45.044 -52.282  12.618  1.00  0.00    -0.194 N 
ATOM     16  HN  UNL     1     -44.620 -52.569  11.736  1.00  0.00     0.184 HD
ENDBRANCH   4   7
BRANCH   5  17
HETATM   17  O   UNL     1     -42.496 -52.801  11.424  1.00  0.00    -0.361 OA
HETATM   18  H   UNL     1     -43.466 -52.902  11.506  1.00  0.00     0.213 HD
ENDBRANCH   5  17
BRANCH   5  19
HETATM   19  C   UNL     1     -41.569 -51.064  13.016  1.00  0.00     0.440 C 
HETATM   20  F   UNL     1     -42.210 -50.132  12.272  1.00  0.00    -0.166 F 
HETATM   21  F   UNL     1     -41.721 -50.682  14.315  1.00  0.00    -0.166 F 
HETATM   22  F   UNL     1     -40.245 -50.935  12.744  1.00  0.00    -0.166 F 
ENDBRANCH   5  19
BRANCH   1  23
HETATM   23  C   UNL     1     -40.410 -54.686  15.362  1.00  0.00     0.080 C 
BRANCH  23  24
HETATM   24  C   UNL     1     -39.092 -54.994  14.665  1.00  0.00     0.172 C 
BRANCH  24  25
HETATM   25  O   UNL     1     -38.263 -55.747  15.544  1.00  0.00    -0.396 OA
HETATM   26  C   UNL     1     -38.959 -56.164  16.711  1.00  0.00     0.201 C 
ENDBRANCH  24  25
ENDBRANCH  23  24
ENDBRANCH   1  23
TORSDOF 6
ENDMDL
MODEL 7
REMARK VINA RESULT:      -6.0      2.595      5.794
REMARK  6 active torsions:
REMARK  status: ('A' for Active; 'I' for Inactive)
REMARK    1  A    between atoms: O_2  and  C_3 
REMARK    2  A    between atoms: C_3  and  C_4 
REMARK    3  A    between atoms: C_4  and  C_5 
REMARK    4  A    between atoms: N_8  and  C_9 
REMARK    5  A    between atoms: C_19  and  O_20 
REMARK    6  A    between atoms: C_19  and  C_22 
ROOT
HETATM    1  C   UNL     1     -40.895 -53.289  14.397  1.00  0.00     0.011 C 
HETATM    2  N   UNL     1     -42.129 -53.181  14.785  1.00  0.00    -0.289 N 
ATOM      3  HN  UNL     1     -42.505 -53.400  15.708  1.00  0.00     0.187 HD
HETATM    4  N   UNL     1     -42.827 -52.711  13.698  1.00  0.00    -0.078 N 
HETATM    5  C   UNL     1     -41.947 -52.211  12.638  1.00  0.00     0.273 C 
HETATM    6  C   UNL     1     -40.665 -52.992  12.951  1.00  0.00     0.127 C 
ENDROOT
BRANCH   4   7
HETATM    7  C   UNL     1     -44.171 -52.348  13.778  1.00  0.00     0.702 A 
HETATM    8  N   UNL     1     -44.924 -52.297  12.665  1.00  0.00    -0.194 N 
HETATM    9  C   UNL     1     -46.188 -51.861  12.765  1.00  0.00     0.024 A 
ATOM     10  HN  UNL     1     -44.541 -52.585  11.764  1.00  0.00     0.184 HD
HETATM   11  C   UNL     1     -47.002 -51.812  11.504  1.00  0.00     0.068 C 
HETATM   12  C   UNL     1     -46.730 -51.434  13.955  1.00  0.00     0.050 A 
HETATM   13  C   UNL     1     -45.902 -51.492  15.056  1.00  0.00     0.024 A 
HETATM   14  C   UNL     1     -46.387 -51.019  16.393  1.00  0.00     0.068 C 
HETATM   15  N   UNL     1     -44.630 -51.946  14.983  1.00  0.00    -0.194 N 
ATOM     16  HN  UNL     1     -44.036 -51.984  15.811  1.00  0.00     0.184 HD
ENDBRANCH   4   7
BRANCH   5  17
HETATM   17  O   UNL     1     -42.381 -52.678  11.351  1.00  0.00    -0.361 OA
HETATM   18  H   UNL     1     -41.565 -52.644  10.811  1.00  0.00     0.213 HD
ENDBRANCH   5  17
BRANCH   5  19
HETATM   19  C   UNL     1     -41.701 -50.662  12.724  1.00  0.00     0.440 C 
HETATM   20  F   UNL     1     -41.665 -50.183  13.989  1.00  0.00    -0.166 F 
HETATM   21  F   UNL     1     -40.521 -50.300  12.148  1.00  0.00    -0.166 F 
HETATM   22  F   UNL     1     -42.664 -49.962  12.070  1.00  0.00    -0.166 F 
ENDBRANCH   5  19
BRANCH   1  23
HETATM   23  C   UNL     1     -39.794 -53.787  15.286  1.00  0.00     0.080 C 
BRANCH  23  24
HETATM   24  C   UNL     1     -38.968 -54.871  14.608  1.00  0.00     0.172 C 
BRANCH  24  25
HETATM   25  O   UNL     1     -38.843 -55.983  15.487  1.00  0.00    -0.396 OA
HETATM   26  C   UNL     1     -37.830 -55.783  16.464  1.00  0.00     0.201 C 
ENDBRANCH  24  25
ENDBRANCH  23  24
ENDBRANCH   1  23
TORSDOF 6
ENDMDL
MODEL 8
REMARK VINA RESULT:      -5.9      1.831      2.498
REMARK  6 active torsions:
REMARK  status: ('A' for Active; 'I' for Inactive)
REMARK    1  A    between atoms: O_2  and  C_3 
REMARK    2  A    between atoms: C_3  and  C_4 
REMARK    3  A    between atoms: C_4  and  C_5 
REMARK    4  A    between atoms: N_8  and  C_9 
REMARK    5  A    between atoms: C_19  and  O_20 
REMARK    6  A    between atoms: C_19  and  C_22 
ROOT
HETATM    1  C   UNL     1     -43.062 -52.291  13.435  1.00  0.00     0.011 C 
HETATM    2  N   UNL     1     -42.315 -51.231  13.495  1.00  0.00    -0.289 N 
ATOM      3  HN  UNL     1     -42.576 -50.316  13.861  1.00  0.00     0.187 HD
HETATM    4  N   UNL     1     -41.100 -51.594  12.963  1.00  0.00    -0.078 N 
HETATM    5  C   UNL     1     -40.960 -53.045  12.820  1.00  0.00     0.273 C 
HETATM    6  C   UNL     1     -42.435 -53.461  12.749  1.00  0.00     0.127 C 
ENDROOT
BRANCH   4   7
HETATM    7  C   UNL     1     -39.997 -50.741  12.979  1.00  0.00     0.702 A 
HETATM    8  N   UNL     1     -39.904 -49.777  13.912  1.00  0.00    -0.194 N 
HETATM    9  C   UNL     1     -38.874 -48.919  13.846  1.00  0.00     0.024 A 
ATOM     10  HN  UNL     1     -40.599 -49.701  14.654  1.00  0.00     0.184 HD
HETATM   11  C   UNL     1     -38.799 -47.852  14.899  1.00  0.00     0.068 C 
HETATM   12  C   UNL     1     -37.935 -48.969  12.844  1.00  0.00     0.050 A 
HETATM   13  C   UNL     1     -38.096 -49.967  11.906  1.00  0.00     0.024 A 
HETATM   14  C   UNL     1     -37.144 -50.087  10.755  1.00  0.00     0.068 C 
HETATM   15  N   UNL     1     -39.115 -50.856  11.962  1.00  0.00    -0.194 N 
ATOM     16  HN  UNL     1     -39.214 -51.589  11.260  1.00  0.00     0.184 HD
ENDBRANCH   4   7
BRANCH   5  17
HETATM   17  O   UNL     1     -40.400 -53.383  11.541  1.00  0.00    -0.361 OA
HETATM   18  H   UNL     1     -39.571 -53.848  11.772  1.00  0.00     0.213 HD
ENDBRANCH   5  17
BRANCH   5  19
HETATM   19  C   UNL     1     -40.243 -53.717  14.046  1.00  0.00     0.440 C 
HETATM   20  F   UNL     1     -40.821 -54.870  14.454  1.00  0.00    -0.166 F 
HETATM   21  F   UNL     1     -38.943 -54.020  13.773  1.00  0.00    -0.166 F 
HETATM   22  F   UNL     1     -40.213 -52.894  15.125  1.00  0.00    -0.166 F 
ENDBRANCH   5  19
BRANCH   1  23
HETATM   23  C   UNL     1     -44.486 -52.321  13.906  1.00  0.00     0.080 C 
BRANCH  23  24
HETATM   24  C   UNL     1     -45.427 -52.833  12.824  1.00  0.00     0.172 C 
BRANCH  24  25
HETATM   25  O   UNL     1     -45.648 -54.226  13.018  1.00  0.00    -0.396 OA
HETATM   26  C   UNL     1     -45.937 -54.540  14.374  1.00  0.00     0.201 C 
ENDBRANCH  24  25
ENDBRANCH  23  24
ENDBRANCH   1  23
TORSDOF 6
ENDMDL
MODEL 9
REMARK VINA RESULT:      -5.8      2.304      5.718
REMARK  6 active torsions:
REMARK  status: ('A' for Active; 'I' for Inactive)
REMARK    1  A    between atoms: O_2  and  C_3 
REMARK    2  A    between atoms: C_3  and  C_4 
REMARK    3  A    between atoms: C_4  and  C_5 
REMARK    4  A    between atoms: N_8  and  C_9 
REMARK    5  A    between atoms: C_19  and  O_20 
REMARK    6  A    between atoms: C_19  and  C_22 
ROOT
HETATM    1  C   UNL     1     -41.043 -50.760  12.338  1.00  0.00     0.011 C 
HETATM    2  N   UNL     1     -42.310 -50.476  12.327  1.00  0.00    -0.289 N 
ATOM      3  HN  UNL     1     -42.797 -49.866  11.670  1.00  0.00     0.187 HD
HETATM    4  N   UNL     1     -42.861 -51.164  13.381  1.00  0.00    -0.078 N 
HETATM    5  C   UNL     1     -41.954 -52.178  13.926  1.00  0.00     0.273 C 
HETATM    6  C   UNL     1     -40.601 -51.604  13.489  1.00  0.00     0.127 C 
ENDROOT
BRANCH   4   7
HETATM    7  C   UNL     1     -44.237 -51.202  13.607  1.00  0.00     0.702 A 
HETATM    8  N   UNL     1     -44.715 -51.196  14.864  1.00  0.00    -0.194 N 
HETATM    9  C   UNL     1     -46.038 -51.322  15.047  1.00  0.00     0.024 A 
ATOM     10  HN  UNL     1     -44.085 -51.098  15.660  1.00  0.00     0.184 HD
HETATM   11  C   UNL     1     -46.541 -51.316  16.461  1.00  0.00     0.068 C 
HETATM   12  C   UNL     1     -46.915 -51.488  14.001  1.00  0.00     0.050 A 
HETATM   13  C   UNL     1     -46.362 -51.505  12.738  1.00  0.00     0.024 A 
HETATM   14  C   UNL     1     -47.230 -51.714  11.534  1.00  0.00     0.068 C 
HETATM   15  N   UNL     1     -45.033 -51.362  12.527  1.00  0.00    -0.194 N 
ATOM     16  HN  UNL     1     -44.645 -51.374  11.584  1.00  0.00     0.184 HD
ENDBRANCH   4   7
BRANCH   5  17
HETATM   17  O   UNL     1     -41.946 -52.139  15.362  1.00  0.00    -0.361 OA
HETATM   18  H   UNL     1     -41.643 -51.230  15.562  1.00  0.00     0.213 HD
ENDBRANCH   5  17
BRANCH   5  19
HETATM   19  C   UNL     1     -42.189 -53.605  13.312  1.00  0.00     0.440 C 
HETATM   20  F   UNL     1     -42.762 -54.482  14.168  1.00  0.00    -0.166 F 
HETATM   21  F   UNL     1     -42.996 -53.562  12.215  1.00  0.00    -0.166 F 
HETATM   22  F   UNL     1     -41.027 -54.171  12.895  1.00  0.00    -0.166 F 
ENDBRANCH   5  19
BRANCH   1  23
HETATM   23  C   UNL     1     -40.066 -50.197  11.349  1.00  0.00     0.080 C 
BRANCH  23  24
HETATM   24  C   UNL     1     -39.432 -48.908  11.853  1.00  0.00     0.172 C 
BRANCH  24  25
HETATM   25  O   UNL     1     -38.077 -49.162  12.209  1.00  0.00    -0.396 OA
HETATM   26  C   UNL     1     -37.416 -49.981  11.254  1.00  0.00     0.201 C 
ENDBRANCH  24  25
ENDBRANCH  23  24
ENDBRANCH   1  23
TORSDOF 6
ENDMDL
