MODEL 1
REMARK VINA RESULT:      -5.5      0.000      0.000
REMARK  5 active torsions:
REMARK  status: ('A' for Active; 'I' for Inactive)
REMARK    1  A    between atoms: C_2  and  C_3 
REMARK       I    between atoms: C_2  and  N_10 
REMARK    2  A    between atoms: C_3  and  C_4 
REMARK    3  A    between atoms: N_10  and  C_11 
REMARK    4  A    between atoms: C_11  and  C_12 
REMARK    5  A    between atoms: C_12  and  N_13 
ROOT
HETATM    1  O   UNL     1     -42.895 -49.029  14.588  1.00  0.00    -0.274 OA
HETATM    2  C   UNL     1     -43.481 -49.790  13.825  1.00  0.00     0.217 C 
HETATM    3  N   UNL     1     -43.406 -49.681  12.452  1.00  0.00    -0.359 N 
HETATM    4  H   UNL     1     -44.047 -50.217  11.881  1.00  0.00     0.162 HD
ENDROOT
BRANCH   3   5
HETATM    5  C   UNL     1     -42.589 -48.662  11.813  1.00  0.00     0.143 C 
BRANCH   5   6
HETATM    6  C   UNL     1     -43.402 -47.443  11.373  1.00  0.00     0.148 C 
BRANCH   6   7
HETATM    7  N   UNL     1     -43.819 -47.549   9.989  1.00  0.00    -0.350 N 
HETATM    8  C   UNL     1     -43.008 -47.692   8.903  1.00  0.00     0.108 A 
HETATM    9  C   UNL     1     -43.868 -47.775   7.831  1.00  0.00     0.106 A 
HETATM   10  N   UNL     1     -45.172 -47.671   8.244  1.00  0.00    -0.361 N 
HETATM   11  C   UNL     1     -45.112 -47.523   9.549  1.00  0.00     0.182 A 
ATOM     12  HN  UNL     1     -46.009 -47.701   7.662  1.00  0.00     0.166 HD
ENDBRANCH   6   7
ENDBRANCH   5   6
ENDBRANCH   3   5
BRANCH   2  13
HETATM   13  C   UNL     1     -44.281 -50.985  14.309  1.00  0.00     0.107 C 
BRANCH  13  14
HETATM   14  C   UNL     1     -45.391 -51.437  13.344  1.00  0.00    -0.006 C 
HETATM   15  C   UNL     1     -46.764 -51.379  14.040  1.00  0.00     0.005 C 
HETATM   16  C   UNL     1     -46.927 -52.453  15.116  1.00  0.00     0.000 C 
HETATM   17  C   UNL     1     -46.662 -53.852  14.567  1.00  0.00     0.000 C 
HETATM   18  C   UNL     1     -45.331 -53.949  13.824  1.00  0.00     0.000 C 
HETATM   19  C   UNL     1     -45.170 -52.849  12.776  1.00  0.00     0.005 C 
ENDBRANCH  13  14
ENDBRANCH   2  13
TORSDOF 5
ENDMDL
MODEL 2
REMARK VINA RESULT:      -5.3      4.027      5.222
REMARK  5 active torsions:
REMARK  status: ('A' for Active; 'I' for Inactive)
REMARK    1  A    between atoms: C_2  and  C_3 
REMARK       I    between atoms: C_2  and  N_10 
REMARK    2  A    between atoms: C_3  and  C_4 
REMARK    3  A    between atoms: N_10  and  C_11 
REMARK    4  A    between atoms: C_11  and  C_12 
REMARK    5  A    between atoms: C_12  and  N_13 
ROOT
HETATM    1  O   UNL     1     -43.422 -55.258  15.943  1.00  0.00    -0.274 OA
HETATM    2  C   UNL     1     -43.398 -54.067  15.650  1.00  0.00     0.217 C 
HETATM    3  N   UNL     1     -42.291 -53.449  15.106  1.00  0.00    -0.359 N 
HETATM    4  H   UNL     1     -42.268 -52.438  15.055  1.00  0.00     0.162 HD
ENDROOT
BRANCH   3   5
HETATM    5  C   UNL     1     -41.075 -54.189  14.810  1.00  0.00     0.143 C 
BRANCH   5   6
HETATM    6  C   UNL     1     -40.756 -54.225  13.314  1.00  0.00     0.148 C 
BRANCH   6   7
HETATM    7  N   UNL     1     -40.595 -52.892  12.769  1.00  0.00    -0.350 N 
HETATM    8  C   UNL     1     -39.697 -51.949  13.174  1.00  0.00     0.108 A 
HETATM    9  C   UNL     1     -39.915 -50.876  12.341  1.00  0.00     0.106 A 
HETATM   10  N   UNL     1     -40.928 -51.143  11.457  1.00  0.00    -0.361 N 
HETATM   11  C   UNL     1     -41.328 -52.362  11.746  1.00  0.00     0.182 A 
ATOM     12  HN  UNL     1     -41.294 -50.527  10.730  1.00  0.00     0.166 HD
ENDBRANCH   6   7
ENDBRANCH   5   6
ENDBRANCH   3   5
BRANCH   2  13
HETATM   13  C   UNL     1     -44.612 -53.165  15.775  1.00  0.00     0.107 C 
BRANCH  13  14
HETATM   14  C   UNL     1     -45.849 -53.657  15.003  1.00  0.00    -0.006 C 
HETATM   15  C   UNL     1     -45.495 -53.905  13.524  1.00  0.00     0.005 C 
HETATM   16  C   UNL     1     -45.228 -52.610  12.755  1.00  0.00     0.000 C 
HETATM   17  C   UNL     1     -46.392 -51.631  12.871  1.00  0.00     0.000 C 
HETATM   18  C   UNL     1     -46.813 -51.388  14.319  1.00  0.00     0.000 C 
HETATM   19  C   UNL     1     -47.043 -52.692  15.082  1.00  0.00     0.005 C 
ENDBRANCH  13  14
ENDBRANCH   2  13
TORSDOF 5
ENDMDL
MODEL 3
REMARK VINA RESULT:      -5.2      4.322      5.235
REMARK  5 active torsions:
REMARK  status: ('A' for Active; 'I' for Inactive)
REMARK    1  A    between atoms: C_2  and  C_3 
REMARK       I    between atoms: C_2  and  N_10 
REMARK    2  A    between atoms: C_3  and  C_4 
REMARK    3  A    between atoms: N_10  and  C_11 
REMARK    4  A    between atoms: C_11  and  C_12 
REMARK    5  A    between atoms: C_12  and  N_13 
ROOT
HETATM    1  O   UNL     1     -41.457 -53.927  12.497  1.00  0.00    -0.274 OA
HETATM    2  C   UNL     1     -41.694 -53.749  13.688  1.00  0.00     0.217 C 
HETATM    3  N   UNL     1     -40.724 -53.390  14.601  1.00  0.00    -0.359 N 
HETATM    4  H   UNL     1     -40.940 -53.434  15.590  1.00  0.00     0.162 HD
ENDROOT
BRANCH   3   5
HETATM    5  C   UNL     1     -39.346 -53.164  14.199  1.00  0.00     0.143 C 
BRANCH   5   6
HETATM    6  C   UNL     1     -38.907 -51.711  14.387  1.00  0.00     0.148 C 
BRANCH   6   7
HETATM    7  N   UNL     1     -38.564 -51.088  13.124  1.00  0.00    -0.350 N 
HETATM    8  C   UNL     1     -37.310 -50.869  12.637  1.00  0.00     0.108 A 
HETATM    9  C   UNL     1     -37.508 -50.284  11.407  1.00  0.00     0.106 A 
HETATM   10  N   UNL     1     -38.845 -50.133  11.149  1.00  0.00    -0.361 N 
HETATM   11  C   UNL     1     -39.460 -50.615  12.206  1.00  0.00     0.182 A 
ATOM     12  HN  UNL     1     -39.273 -49.732  10.314  1.00  0.00     0.166 HD
ENDBRANCH   6   7
ENDBRANCH   5   6
ENDBRANCH   3   5
BRANCH   2  13
HETATM   13  C   UNL     1     -43.095 -53.820  14.267  1.00  0.00     0.107 C 
BRANCH  13  14
HETATM   14  C   UNL     1     -44.189 -54.151  13.237  1.00  0.00    -0.006 C 
HETATM   15  C   UNL     1     -44.837 -52.857  12.708  1.00  0.00     0.005 C 
HETATM   16  C   UNL     1     -45.697 -52.154  13.759  1.00  0.00     0.000 C 
HETATM   17  C   UNL     1     -46.756 -53.085  14.340  1.00  0.00     0.000 C 
HETATM   18  C   UNL     1     -46.170 -54.405  14.836  1.00  0.00     0.000 C 
HETATM   19  C   UNL     1     -45.286 -55.078  13.787  1.00  0.00     0.005 C 
ENDBRANCH  13  14
ENDBRANCH   2  13
TORSDOF 5
ENDMDL
MODEL 4
REMARK VINA RESULT:      -5.1      1.551      2.113
REMARK  5 active torsions:
REMARK  status: ('A' for Active; 'I' for Inactive)
REMARK    1  A    between atoms: C_2  and  C_3 
REMARK       I    between atoms: C_2  and  N_10 
REMARK    2  A    between atoms: C_3  and  C_4 
REMARK    3  A    between atoms: N_10  and  C_11 
REMARK    4  A    between atoms: C_11  and  C_12 
REMARK    5  A    between atoms: C_12  and  N_13 
ROOT
HETATM    1  O   UNL     1     -41.332 -49.902  13.799  1.00  0.00    -0.274 OA
HETATM    2  C   UNL     1     -42.235 -50.392  13.128  1.00  0.00     0.217 C 
HETATM    3  N   UNL     1     -42.519 -49.986  11.841  1.00  0.00    -0.359 N 
HETATM    4  H   UNL     1     -43.381 -50.295  11.408  1.00  0.00     0.162 HD
ENDROOT
BRANCH   3   5
HETATM    5  C   UNL     1     -41.734 -48.960  11.175  1.00  0.00     0.143 C 
BRANCH   5   6
HETATM    6  C   UNL     1     -42.480 -47.630  11.055  1.00  0.00     0.148 C 
BRANCH   6   7
HETATM    7  N   UNL     1     -43.426 -47.644   9.958  1.00  0.00    -0.350 N 
HETATM    8  C   UNL     1     -44.784 -47.579  10.053  1.00  0.00     0.108 A 
HETATM    9  C   UNL     1     -45.228 -47.597   8.750  1.00  0.00     0.106 A 
HETATM   10  N   UNL     1     -44.175 -47.686   7.877  1.00  0.00    -0.361 N 
HETATM   11  C   UNL     1     -43.100 -47.724   8.633  1.00  0.00     0.182 A 
ATOM     12  HN  UNL     1     -44.216 -47.715   6.858  1.00  0.00     0.166 HD
ENDBRANCH   6   7
ENDBRANCH   5   6
ENDBRANCH   3   5
BRANCH   2  13
HETATM   13  C   UNL     1     -43.080 -51.555  13.613  1.00  0.00     0.107 C 
BRANCH  13  14
HETATM   14  C   UNL     1     -43.018 -52.801  12.712  1.00  0.00    -0.006 C 
HETATM   15  C   UNL     1     -44.439 -53.272  12.348  1.00  0.00     0.005 C 
HETATM   16  C   UNL     1     -45.187 -53.871  13.540  1.00  0.00     0.000 C 
HETATM   17  C   UNL     1     -44.399 -55.002  14.194  1.00  0.00     0.000 C 
HETATM   18  C   UNL     1     -42.964 -54.600  14.531  1.00  0.00     0.000 C 
HETATM   19  C   UNL     1     -42.243 -53.971  13.339  1.00  0.00     0.005 C 
ENDBRANCH  13  14
ENDBRANCH   2  13
TORSDOF 5
ENDMDL
MODEL 5
REMARK VINA RESULT:      -5.0      2.450      3.255
REMARK  5 active torsions:
REMARK  status: ('A' for Active; 'I' for Inactive)
REMARK    1  A    between atoms: C_2  and  C_3 
REMARK       I    between atoms: C_2  and  N_10 
REMARK    2  A    between atoms: C_3  and  C_4 
REMARK    3  A    between atoms: N_10  and  C_11 
REMARK    4  A    between atoms: C_11  and  C_12 
REMARK    5  A    between atoms: C_12  and  N_13 
ROOT
HETATM    1  O   UNL     1     -40.465 -52.826  12.192  1.00  0.00    -0.274 OA
HETATM    2  C   UNL     1     -41.577 -52.310  12.167  1.00  0.00     0.217 C 
HETATM    3  N   UNL     1     -41.788 -50.998  11.797  1.00  0.00    -0.359 N 
HETATM    4  H   UNL     1     -42.694 -50.578  11.968  1.00  0.00     0.162 HD
ENDROOT
BRANCH   3   5
HETATM    5  C   UNL     1     -40.692 -50.141  11.375  1.00  0.00     0.143 C 
BRANCH   5   6
HETATM    6  C   UNL     1     -40.706 -48.779  12.071  1.00  0.00     0.148 C 
BRANCH   6   7
HETATM    7  N   UNL     1     -41.184 -47.732  11.190  1.00  0.00    -0.350 N 
HETATM    8  C   UNL     1     -42.377 -47.705  10.530  1.00  0.00     0.108 A 
HETATM    9  C   UNL     1     -42.376 -46.506   9.854  1.00  0.00     0.106 A 
HETATM   10  N   UNL     1     -41.211 -45.820  10.079  1.00  0.00    -0.361 N 
HETATM   11  C   UNL     1     -40.505 -46.588  10.879  1.00  0.00     0.182 A 
ATOM     12  HN  UNL     1     -40.948 -44.908   9.705  1.00  0.00     0.166 HD
ENDBRANCH   6   7
ENDBRANCH   5   6
ENDBRANCH   3   5
BRANCH   2  13
HETATM   13  C   UNL     1     -42.850 -53.084  12.457  1.00  0.00     0.107 C 
BRANCH  13  14
HETATM   14  C   UNL     1     -43.181 -53.220  13.954  1.00  0.00    -0.006 C 
HETATM   15  C   UNL     1     -43.854 -54.577  14.233  1.00  0.00     0.005 C 
HETATM   16  C   UNL     1     -45.270 -54.663  13.663  1.00  0.00     0.000 C 
HETATM   17  C   UNL     1     -46.150 -53.518  14.153  1.00  0.00     0.000 C 
HETATM   18  C   UNL     1     -45.505 -52.150  13.942  1.00  0.00     0.000 C 
HETATM   19  C   UNL     1     -44.078 -52.091  14.487  1.00  0.00     0.005 C 
ENDBRANCH  13  14
ENDBRANCH   2  13
TORSDOF 5
ENDMDL
MODEL 6
REMARK VINA RESULT:      -5.0      3.978      4.866
REMARK  5 active torsions:
REMARK  status: ('A' for Active; 'I' for Inactive)
REMARK    1  A    between atoms: C_2  and  C_3 
REMARK       I    between atoms: C_2  and  N_10 
REMARK    2  A    between atoms: C_3  and  C_4 
REMARK    3  A    between atoms: N_10  and  C_11 
REMARK    4  A    between atoms: C_11  and  C_12 
REMARK    5  A    between atoms: C_12  and  N_13 
ROOT
HETATM    1  O   UNL     1     -42.166 -53.671  15.203  1.00  0.00    -0.274 OA
HETATM    2  C   UNL     1     -42.501 -53.160  14.139  1.00  0.00     0.217 C 
HETATM    3  N   UNL     1     -41.593 -52.716  13.200  1.00  0.00    -0.359 N 
HETATM    4  H   UNL     1     -41.921 -52.145  12.431  1.00  0.00     0.162 HD
ENDROOT
BRANCH   3   5
HETATM    5  C   UNL     1     -40.161 -52.860  13.400  1.00  0.00     0.143 C 
BRANCH   5   6
HETATM    6  C   UNL     1     -39.492 -51.555  13.836  1.00  0.00     0.148 C 
BRANCH   6   7
HETATM    7  N   UNL     1     -38.829 -50.896  12.728  1.00  0.00    -0.350 N 
HETATM    8  C   UNL     1     -37.490 -50.880  12.473  1.00  0.00     0.108 A 
HETATM    9  C   UNL     1     -37.363 -50.158  11.309  1.00  0.00     0.106 A 
HETATM   10  N   UNL     1     -38.587 -49.728  10.866  1.00  0.00    -0.361 N 
HETATM   11  C   UNL     1     -39.453 -50.177  11.748  1.00  0.00     0.182 A 
ATOM     12  HN  UNL     1     -38.785 -49.177  10.030  1.00  0.00     0.166 HD
ENDBRANCH   6   7
ENDBRANCH   5   6
ENDBRANCH   3   5
BRANCH   2  13
HETATM   13  C   UNL     1     -43.950 -53.040  13.705  1.00  0.00     0.107 C 
BRANCH  13  14
HETATM   14  C   UNL     1     -44.455 -51.592  13.579  1.00  0.00    -0.006 C 
HETATM   15  C   UNL     1     -44.254 -50.835  14.906  1.00  0.00     0.005 C 
HETATM   16  C   UNL     1     -45.190 -51.323  16.012  1.00  0.00     0.000 C 
HETATM   17  C   UNL     1     -46.652 -51.270  15.582  1.00  0.00     0.000 C 
HETATM   18  C   UNL     1     -46.897 -51.966  14.245  1.00  0.00     0.000 C 
HETATM   19  C   UNL     1     -45.931 -51.493  13.159  1.00  0.00     0.005 C 
ENDBRANCH  13  14
ENDBRANCH   2  13
TORSDOF 5
ENDMDL
MODEL 7
REMARK VINA RESULT:      -4.9      1.959      3.187
REMARK  5 active torsions:
REMARK  status: ('A' for Active; 'I' for Inactive)
REMARK    1  A    between atoms: C_2  and  C_3 
REMARK       I    between atoms: C_2  and  N_10 
REMARK    2  A    between atoms: C_3  and  C_4 
REMARK    3  A    between atoms: N_10  and  C_11 
REMARK    4  A    between atoms: C_11  and  C_12 
REMARK    5  A    between atoms: C_12  and  N_13 
ROOT
HETATM    1  O   UNL     1     -43.033 -49.027  14.317  1.00  0.00    -0.274 OA
HETATM    2  C   UNL     1     -43.548 -49.743  13.464  1.00  0.00     0.217 C 
HETATM    3  N   UNL     1     -43.642 -49.382  12.137  1.00  0.00    -0.359 N 
HETATM    4  H   UNL     1     -44.232 -49.926  11.520  1.00  0.00     0.162 HD
ENDROOT
BRANCH   3   5
HETATM    5  C   UNL     1     -43.097 -48.125  11.650  1.00  0.00     0.143 C 
BRANCH   5   6
HETATM    6  C   UNL     1     -41.978 -48.324  10.625  1.00  0.00     0.148 C 
BRANCH   6   7
HETATM    7  N   UNL     1     -40.740 -48.735  11.257  1.00  0.00    -0.350 N 
HETATM    8  C   UNL     1     -40.199 -49.986  11.252  1.00  0.00     0.108 A 
HETATM    9  C   UNL     1     -39.022 -49.862  11.954  1.00  0.00     0.106 A 
HETATM   10  N   UNL     1     -38.849 -48.575  12.392  1.00  0.00    -0.361 N 
HETATM   11  C   UNL     1     -39.906 -47.919  11.968  1.00  0.00     0.182 A 
ATOM     12  HN  UNL     1     -38.066 -48.205  12.932  1.00  0.00     0.166 HD
ENDBRANCH   6   7
ENDBRANCH   5   6
ENDBRANCH   3   5
BRANCH   2  13
HETATM   13  C   UNL     1     -44.061 -51.139  13.765  1.00  0.00     0.107 C 
BRANCH  13  14
HETATM   14  C   UNL     1     -45.459 -51.437  13.194  1.00  0.00    -0.006 C 
HETATM   15  C   UNL     1     -46.526 -51.317  14.298  1.00  0.00     0.005 C 
HETATM   16  C   UNL     1     -46.440 -52.443  15.329  1.00  0.00     0.000 C 
HETATM   17  C   UNL     1     -46.501 -53.819  14.672  1.00  0.00     0.000 C 
HETATM   18  C   UNL     1     -45.492 -53.973  13.536  1.00  0.00     0.000 C 
HETATM   19  C   UNL     1     -45.568 -52.821  12.534  1.00  0.00     0.005 C 
ENDBRANCH  13  14
ENDBRANCH   2  13
TORSDOF 5
ENDMDL
MODEL 8
REMARK VINA RESULT:      -4.8      3.112      3.662
REMARK  5 active torsions:
REMARK  status: ('A' for Active; 'I' for Inactive)
REMARK    1  A    between atoms: C_2  and  C_3 
REMARK       I    between atoms: C_2  and  N_10 
REMARK    2  A    between atoms: C_3  and  C_4 
REMARK    3  A    between atoms: N_10  and  C_11 
REMARK    4  A    between atoms: C_11  and  C_12 
REMARK    5  A    between atoms: C_12  and  N_13 
ROOT
HETATM    1  O   UNL     1     -43.428 -49.708  12.594  1.00  0.00    -0.274 OA
HETATM    2  C   UNL     1     -43.539 -50.752  13.231  1.00  0.00     0.217 C 
HETATM    3  N   UNL     1     -42.694 -51.828  13.061  1.00  0.00    -0.359 N 
HETATM    4  H   UNL     1     -42.942 -52.718  13.477  1.00  0.00     0.162 HD
ENDROOT
BRANCH   3   5
HETATM    5  C   UNL     1     -41.580 -51.782  12.128  1.00  0.00     0.143 C 
BRANCH   5   6
HETATM    6  C   UNL     1     -40.273 -51.342  12.791  1.00  0.00     0.148 C 
BRANCH   6   7
HETATM    7  N   UNL     1     -39.966 -49.956  12.500  1.00  0.00    -0.350 N 
HETATM    8  C   UNL     1     -39.445 -49.039  13.364  1.00  0.00     0.108 A 
HETATM    9  C   UNL     1     -39.310 -47.890  12.617  1.00  0.00     0.106 A 
HETATM   10  N   UNL     1     -39.750 -48.089  11.334  1.00  0.00    -0.361 N 
HETATM   11  C   UNL     1     -40.151 -49.340  11.294  1.00  0.00     0.182 A 
ATOM     12  HN  UNL     1     -39.764 -47.410  10.572  1.00  0.00     0.166 HD
ENDBRANCH   6   7
ENDBRANCH   5   6
ENDBRANCH   3   5
BRANCH   2  13
HETATM   13  C   UNL     1     -44.566 -50.937  14.332  1.00  0.00     0.107 C 
BRANCH  13  14
HETATM   14  C   UNL     1     -45.980 -51.276  13.830  1.00  0.00    -0.006 C 
HETATM   15  C   UNL     1     -46.926 -51.529  15.019  1.00  0.00     0.005 C 
HETATM   16  C   UNL     1     -46.613 -52.832  15.757  1.00  0.00     0.000 C 
HETATM   17  C   UNL     1     -46.605 -54.030  14.813  1.00  0.00     0.000 C 
HETATM   18  C   UNL     1     -45.717 -53.810  13.591  1.00  0.00     0.000 C 
HETATM   19  C   UNL     1     -46.019 -52.488  12.885  1.00  0.00     0.005 C 
ENDBRANCH  13  14
ENDBRANCH   2  13
TORSDOF 5
ENDMDL
MODEL 9
REMARK VINA RESULT:      -4.8      3.625      4.643
REMARK  5 active torsions:
REMARK  status: ('A' for Active; 'I' for Inactive)
REMARK    1  A    between atoms: C_2  and  C_3 
REMARK       I    between atoms: C_2  and  N_10 
REMARK    2  A    between atoms: C_3  and  C_4 
REMARK    3  A    between atoms: N_10  and  C_11 
REMARK    4  A    between atoms: C_11  and  C_12 
REMARK    5  A    between atoms: C_12  and  N_13 
ROOT
HETATM    1  O   UNL     1     -43.118 -53.091  12.122  1.00  0.00    -0.274 OA
HETATM    2  C   UNL     1     -43.020 -53.697  13.184  1.00  0.00     0.217 C 
HETATM    3  N   UNL     1     -41.808 -53.963  13.787  1.00  0.00    -0.359 N 
HETATM    4  H   UNL     1     -41.778 -54.618  14.560  1.00  0.00     0.162 HD
ENDROOT
BRANCH   3   5
HETATM    5  C   UNL     1     -40.555 -53.505  13.213  1.00  0.00     0.143 C 
BRANCH   5   6
HETATM    6  C   UNL     1     -40.138 -52.126  13.729  1.00  0.00     0.148 C 
BRANCH   6   7
HETATM    7  N   UNL     1     -40.007 -51.167  12.650  1.00  0.00    -0.350 N 
HETATM    8  C   UNL     1     -41.022 -50.542  11.988  1.00  0.00     0.108 A 
HETATM    9  C   UNL     1     -40.395 -49.717  11.083  1.00  0.00     0.106 A 
HETATM   10  N   UNL     1     -39.033 -49.841  11.172  1.00  0.00    -0.361 N 
HETATM   11  C   UNL     1     -38.827 -50.732  12.117  1.00  0.00     0.182 A 
ATOM     12  HN  UNL     1     -38.329 -49.347  10.623  1.00  0.00     0.166 HD
ENDBRANCH   6   7
ENDBRANCH   5   6
ENDBRANCH   3   5
BRANCH   2  13
HETATM   13  C   UNL     1     -44.225 -54.145  13.989  1.00  0.00     0.107 C 
BRANCH  13  14
HETATM   14  C   UNL     1     -44.481 -53.317  15.260  1.00  0.00    -0.006 C 
HETATM   15  C   UNL     1     -45.900 -53.584  15.798  1.00  0.00     0.005 C 
HETATM   16  C   UNL     1     -46.992 -52.997  14.902  1.00  0.00     0.000 C 
HETATM   17  C   UNL     1     -46.783 -51.506  14.657  1.00  0.00     0.000 C 
HETATM   18  C   UNL     1     -45.373 -51.183  14.167  1.00  0.00     0.000 C 
HETATM   19  C   UNL     1     -44.295 -51.805  15.053  1.00  0.00     0.005 C 
ENDBRANCH  13  14
ENDBRANCH   2  13
TORSDOF 5
ENDMDL
