MODEL 1
REMARK VINA RESULT:      -5.8      0.000      0.000
REMARK  5 active torsions:
REMARK  status: ('A' for Active; 'I' for Inactive)
REMARK    1  A    between atoms: C_2  and  C_3 
REMARK    2  A    between atoms: C_2  and  N_17 
REMARK       I    between atoms: C_3  and  N_5 
REMARK    3  A    between atoms: N_5  and  C_6 
REMARK    4  A    between atoms: C_6  and  C_7 
REMARK    5  A    between atoms: C_7  and  C_12 
REMARK       I    between atoms: C_12  and  N_14 
ROOT
HETATM    1  C   UNL     1     -41.344 -49.455  11.488  1.00  0.00     0.242 C 
HETATM    2  O   UNL     1     -40.208 -49.508  11.012  1.00  0.00    -0.271 OA
HETATM    3  N   UNL     1     -42.033 -50.598  11.855  1.00  0.00    -0.358 N 
HETATM    4  H   UNL     1     -42.888 -50.471  12.398  1.00  0.00     0.162 HD
ENDROOT
BRANCH   3   5
HETATM    5  C   UNL     1     -41.387 -51.902  11.786  1.00  0.00     0.142 C 
BRANCH   5   6
HETATM    6  C   UNL     1     -41.164 -52.619  13.135  1.00  0.00     0.057 C 
HETATM    7  C   UNL     1     -39.853 -52.067  13.779  1.00  0.00     0.021 C 
HETATM    8  C   UNL     1     -39.054 -53.250  14.314  1.00  0.00     0.001 C 
HETATM    9  C   UNL     1     -39.923 -54.476  14.137  1.00  0.00     0.001 C 
HETATM   10  C   UNL     1     -40.902 -54.134  13.023  1.00  0.00     0.021 C 
BRANCH   6  11
HETATM   11  C   UNL     1     -42.384 -52.326  14.066  1.00  0.00     0.229 C 
HETATM   12  O   UNL     1     -42.245 -51.541  15.012  1.00  0.00    -0.272 OA
HETATM   13  N   UNL     1     -43.627 -52.923  13.858  1.00  0.00    -0.360 N 
HETATM   14  C   UNL     1     -43.990 -53.905  12.846  1.00  0.00     0.152 C 
HETATM   15  C   UNL     1     -44.761 -52.432  14.638  1.00  0.00     0.152 C 
ENDBRANCH   6  11
ENDBRANCH   5   6
ENDBRANCH   3   5
BRANCH   1  16
HETATM   16  C   UNL     1     -42.114 -48.139  11.641  1.00  0.00     0.195 C 
HETATM   17  C   UNL     1     -42.917 -48.111  12.941  1.00  0.00     0.044 C 
BRANCH  16  18
HETATM   18  N   UNL     1     -42.933 -47.891  10.459  1.00  0.00    -0.290 N 
HETATM   19  C   UNL     1     -44.245 -47.511  10.397  1.00  0.00     0.112 A 
HETATM   20  C   UNL     1     -44.533 -47.343   9.063  1.00  0.00     0.037 A 
HETATM   21  C   UNL     1     -43.344 -47.682   8.395  1.00  0.00     0.108 A 
HETATM   22  N   UNL     1     -42.377 -48.053   9.236  1.00  0.00    -0.309 N 
ATOM     23  HN  UNL     1     -41.438 -48.382   9.009  1.00  0.00     0.186 HD
ENDBRANCH  16  18
ENDBRANCH   1  16
TORSDOF 5
ENDMDL
MODEL 2
REMARK VINA RESULT:      -5.8      1.967      3.439
REMARK  5 active torsions:
REMARK  status: ('A' for Active; 'I' for Inactive)
REMARK    1  A    between atoms: C_2  and  C_3 
REMARK    2  A    between atoms: C_2  and  N_17 
REMARK       I    between atoms: C_3  and  N_5 
REMARK    3  A    between atoms: N_5  and  C_6 
REMARK    4  A    between atoms: C_6  and  C_7 
REMARK    5  A    between atoms: C_7  and  C_12 
REMARK       I    between atoms: C_12  and  N_14 
ROOT
HETATM    1  C   UNL     1     -42.203 -49.442  11.889  1.00  0.00     0.242 C 
HETATM    2  O   UNL     1     -41.176 -50.048  11.579  1.00  0.00    -0.271 OA
HETATM    3  N   UNL     1     -43.266 -50.078  12.508  1.00  0.00    -0.358 N 
HETATM    4  H   UNL     1     -44.003 -49.484  12.890  1.00  0.00     0.162 HD
ENDROOT
BRANCH   3   5
HETATM    5  C   UNL     1     -43.156 -51.474  12.907  1.00  0.00     0.142 C 
BRANCH   5   6
HETATM    6  C   UNL     1     -44.399 -52.080  13.596  1.00  0.00     0.057 C 
HETATM    7  C   UNL     1     -45.581 -52.079  12.575  1.00  0.00     0.021 C 
HETATM    8  C   UNL     1     -46.828 -51.586  13.297  1.00  0.00     0.001 C 
HETATM    9  C   UNL     1     -46.454 -51.434  14.755  1.00  0.00     0.001 C 
HETATM   10  C   UNL     1     -44.943 -51.259  14.781  1.00  0.00     0.021 C 
BRANCH   6  11
HETATM   11  C   UNL     1     -44.066 -53.544  14.031  1.00  0.00     0.229 C 
HETATM   12  O   UNL     1     -44.672 -54.483  13.500  1.00  0.00    -0.272 OA
HETATM   13  N   UNL     1     -43.102 -53.821  14.999  1.00  0.00    -0.360 N 
HETATM   14  C   UNL     1     -42.317 -52.873  15.778  1.00  0.00     0.152 C 
HETATM   15  C   UNL     1     -42.704 -55.214  15.189  1.00  0.00     0.152 C 
ENDBRANCH   6  11
ENDBRANCH   5   6
ENDBRANCH   3   5
BRANCH   1  16
HETATM   16  C   UNL     1     -42.421 -47.962  11.552  1.00  0.00     0.195 C 
HETATM   17  C   UNL     1     -43.072 -47.215  12.715  1.00  0.00     0.044 C 
BRANCH  16  18
HETATM   18  N   UNL     1     -43.165 -47.832  10.303  1.00  0.00    -0.290 N 
HETATM   19  C   UNL     1     -44.467 -47.459  10.123  1.00  0.00     0.112 A 
HETATM   20  C   UNL     1     -44.673 -47.425   8.764  1.00  0.00     0.037 A 
HETATM   21  C   UNL     1     -43.448 -47.831   8.207  1.00  0.00     0.108 A 
HETATM   22  N   UNL     1     -42.537 -48.118   9.138  1.00  0.00    -0.309 N 
ATOM     23  HN  UNL     1     -41.589 -48.469   9.004  1.00  0.00     0.186 HD
ENDBRANCH  16  18
ENDBRANCH   1  16
TORSDOF 5
ENDMDL
MODEL 3
REMARK VINA RESULT:      -5.6      2.688      4.829
REMARK  5 active torsions:
REMARK  status: ('A' for Active; 'I' for Inactive)
REMARK    1  A    between atoms: C_2  and  C_3 
REMARK    2  A    between atoms: C_2  and  N_17 
REMARK       I    between atoms: C_3  and  N_5 
REMARK    3  A    between atoms: N_5  and  C_6 
REMARK    4  A    between atoms: C_6  and  C_7 
REMARK    5  A    between atoms: C_7  and  C_12 
REMARK       I    between atoms: C_12  and  N_14 
ROOT
HETATM    1  C   UNL     1     -41.566 -51.216  12.167  1.00  0.00     0.242 C 
HETATM    2  O   UNL     1     -41.055 -52.274  11.795  1.00  0.00    -0.271 OA
HETATM    3  N   UNL     1     -42.891 -51.147  12.563  1.00  0.00    -0.358 N 
HETATM    4  H   UNL     1     -43.194 -50.286  13.021  1.00  0.00     0.162 HD
ENDROOT
BRANCH   3   5
HETATM    5  C   UNL     1     -43.697 -52.357  12.651  1.00  0.00     0.142 C 
BRANCH   5   6
HETATM    6  C   UNL     1     -44.564 -52.501  13.921  1.00  0.00     0.057 C 
HETATM    7  C   UNL     1     -46.067 -52.484  13.499  1.00  0.00     0.021 C 
HETATM    8  C   UNL     1     -46.819 -51.577  14.466  1.00  0.00     0.001 C 
HETATM    9  C   UNL     1     -45.831 -51.172  15.538  1.00  0.00     0.001 C 
HETATM   10  C   UNL     1     -44.453 -51.328  14.914  1.00  0.00     0.021 C 
BRANCH   6  11
HETATM   11  C   UNL     1     -44.216 -53.859  14.613  1.00  0.00     0.229 C 
HETATM   12  O   UNL     1     -45.053 -54.770  14.606  1.00  0.00    -0.272 OA
HETATM   13  N   UNL     1     -42.987 -54.072  15.236  1.00  0.00    -0.360 N 
HETATM   14  C   UNL     1     -41.892 -53.126  15.402  1.00  0.00     0.152 C 
HETATM   15  C   UNL     1     -42.664 -55.430  15.666  1.00  0.00     0.152 C 
ENDBRANCH   6  11
ENDBRANCH   5   6
ENDBRANCH   3   5
BRANCH   1  16
HETATM   16  C   UNL     1     -40.809 -49.883  12.151  1.00  0.00     0.195 C 
HETATM   17  C   UNL     1     -41.262 -48.998  10.991  1.00  0.00     0.044 C 
BRANCH  16  18
HETATM   18  N   UNL     1     -39.369 -50.119  12.160  1.00  0.00    -0.290 N 
HETATM   19  C   UNL     1     -38.557 -50.386  13.227  1.00  0.00     0.112 A 
HETATM   20  C   UNL     1     -37.300 -50.597  12.711  1.00  0.00     0.037 A 
HETATM   21  C   UNL     1     -37.445 -50.397  11.327  1.00  0.00     0.108 A 
HETATM   22  N   UNL     1     -38.693 -50.069  10.989  1.00  0.00    -0.309 N 
ATOM     23  HN  UNL     1     -39.053 -49.835  10.063  1.00  0.00     0.186 HD
ENDBRANCH  16  18
ENDBRANCH   1  16
TORSDOF 5
ENDMDL
MODEL 4
REMARK VINA RESULT:      -5.6      1.990      3.173
REMARK  5 active torsions:
REMARK  status: ('A' for Active; 'I' for Inactive)
REMARK    1  A    between atoms: C_2  and  C_3 
REMARK    2  A    between atoms: C_2  and  N_17 
REMARK       I    between atoms: C_3  and  N_5 
REMARK    3  A    between atoms: N_5  and  C_6 
REMARK    4  A    between atoms: C_6  and  C_7 
REMARK    5  A    between atoms: C_7  and  C_12 
REMARK       I    between atoms: C_12  and  N_14 
ROOT
HETATM    1  C   UNL     1     -42.261 -48.684  11.733  1.00  0.00     0.242 C 
HETATM    2  O   UNL     1     -42.688 -48.195  12.781  1.00  0.00    -0.271 OA
HETATM    3  N   UNL     1     -41.942 -50.027  11.632  1.00  0.00    -0.358 N 
HETATM    4  H   UNL     1     -41.765 -50.393  10.696  1.00  0.00     0.162 HD
ENDROOT
BRANCH   3   5
HETATM    5  C   UNL     1     -42.204 -50.931  12.744  1.00  0.00     0.142 C 
BRANCH   5   6
HETATM    6  C   UNL     1     -41.008 -51.787  13.216  1.00  0.00     0.057 C 
HETATM    7  C   UNL     1     -40.934 -53.068  12.325  1.00  0.00     0.021 C 
HETATM    8  C   UNL     1     -40.688 -54.264  13.237  1.00  0.00     0.001 C 
HETATM    9  C   UNL     1     -40.467 -53.711  14.628  1.00  0.00     0.001 C 
HETATM   10  C   UNL     1     -41.141 -52.347  14.645  1.00  0.00     0.021 C 
BRANCH   6  11
HETATM   11  C   UNL     1     -39.699 -50.948  13.060  1.00  0.00     0.229 C 
HETATM   12  O   UNL     1     -38.895 -51.246  12.167  1.00  0.00    -0.272 OA
HETATM   13  N   UNL     1     -39.412 -49.872  13.898  1.00  0.00    -0.360 N 
HETATM   14  C   UNL     1     -40.188 -49.389  15.033  1.00  0.00     0.152 C 
HETATM   15  C   UNL     1     -38.281 -49.015  13.549  1.00  0.00     0.152 C 
ENDBRANCH   6  11
ENDBRANCH   5   6
ENDBRANCH   3   5
BRANCH   1  16
HETATM   16  C   UNL     1     -41.977 -47.840  10.485  1.00  0.00     0.195 C 
HETATM   17  C   UNL     1     -40.961 -46.737  10.777  1.00  0.00     0.044 C 
BRANCH  16  18
HETATM   18  N   UNL     1     -43.225 -47.332   9.923  1.00  0.00    -0.290 N 
HETATM   19  C   UNL     1     -43.412 -46.257   9.099  1.00  0.00     0.112 A 
HETATM   20  C   UNL     1     -44.753 -46.234   8.796  1.00  0.00     0.037 A 
HETATM   21  C   UNL     1     -45.300 -47.310   9.515  1.00  0.00     0.108 A 
HETATM   22  N   UNL     1     -44.382 -47.960  10.234  1.00  0.00    -0.309 N 
ATOM     23  HN  UNL     1     -44.521 -48.747  10.868  1.00  0.00     0.186 HD
ENDBRANCH  16  18
ENDBRANCH   1  16
TORSDOF 5
ENDMDL
MODEL 5
REMARK VINA RESULT:      -5.5      2.013      3.780
REMARK  5 active torsions:
REMARK  status: ('A' for Active; 'I' for Inactive)
REMARK    1  A    between atoms: C_2  and  C_3 
REMARK    2  A    between atoms: C_2  and  N_17 
REMARK       I    between atoms: C_3  and  N_5 
REMARK    3  A    between atoms: N_5  and  C_6 
REMARK    4  A    between atoms: C_6  and  C_7 
REMARK    5  A    between atoms: C_7  and  C_12 
REMARK       I    between atoms: C_12  and  N_14 
ROOT
HETATM    1  C   UNL     1     -40.914 -51.454  12.014  1.00  0.00     0.242 C 
HETATM    2  O   UNL     1     -40.076 -52.211  12.508  1.00  0.00    -0.271 OA
HETATM    3  N   UNL     1     -42.252 -51.802  11.934  1.00  0.00    -0.358 N 
HETATM    4  H   UNL     1     -42.909 -51.064  11.677  1.00  0.00     0.162 HD
ENDROOT
BRANCH   3   5
HETATM    5  C   UNL     1     -42.727 -53.041  12.534  1.00  0.00     0.142 C 
BRANCH   5   6
HETATM    6  C   UNL     1     -43.963 -52.918  13.453  1.00  0.00     0.057 C 
HETATM    7  C   UNL     1     -45.244 -53.169  12.597  1.00  0.00     0.021 C 
HETATM    8  C   UNL     1     -46.277 -52.112  12.971  1.00  0.00     0.001 C 
HETATM    9  C   UNL     1     -45.698 -51.331  14.130  1.00  0.00     0.001 C 
HETATM   10  C   UNL     1     -44.190 -51.512  14.042  1.00  0.00     0.021 C 
BRANCH   6  11
HETATM   11  C   UNL     1     -43.854 -53.991  14.584  1.00  0.00     0.229 C 
HETATM   12  O   UNL     1     -44.723 -54.867  14.668  1.00  0.00    -0.272 OA
HETATM   13  N   UNL     1     -42.802 -53.989  15.499  1.00  0.00    -0.360 N 
HETATM   14  C   UNL     1     -41.713 -53.029  15.609  1.00  0.00     0.152 C 
HETATM   15  C   UNL     1     -42.662 -55.145  16.382  1.00  0.00     0.152 C 
ENDBRANCH   6  11
ENDBRANCH   5   6
ENDBRANCH   3   5
BRANCH   1  16
HETATM   16  C   UNL     1     -40.540 -50.109  11.382  1.00  0.00     0.195 C 
HETATM   17  C   UNL     1     -39.136 -49.670  11.794  1.00  0.00     0.044 C 
BRANCH  16  18
HETATM   18  N   UNL     1     -41.561 -49.109  11.680  1.00  0.00    -0.290 N 
HETATM   19  C   UNL     1     -41.864 -48.534  12.883  1.00  0.00     0.112 A 
HETATM   20  C   UNL     1     -42.848 -47.609  12.630  1.00  0.00     0.037 A 
HETATM   21  C   UNL     1     -43.102 -47.725  11.253  1.00  0.00     0.108 A 
HETATM   22  N   UNL     1     -42.348 -48.663  10.674  1.00  0.00    -0.309 N 
ATOM     23  HN  UNL     1     -42.363 -48.970   9.702  1.00  0.00     0.186 HD
ENDBRANCH  16  18
ENDBRANCH   1  16
TORSDOF 5
ENDMDL
MODEL 6
REMARK VINA RESULT:      -5.4      1.143      1.302
REMARK  5 active torsions:
REMARK  status: ('A' for Active; 'I' for Inactive)
REMARK    1  A    between atoms: C_2  and  C_3 
REMARK    2  A    between atoms: C_2  and  N_17 
REMARK       I    between atoms: C_3  and  N_5 
REMARK    3  A    between atoms: N_5  and  C_6 
REMARK    4  A    between atoms: C_6  and  C_7 
REMARK    5  A    between atoms: C_7  and  C_12 
REMARK       I    between atoms: C_12  and  N_14 
ROOT
HETATM    1  C   UNL     1     -41.523 -49.818  11.626  1.00  0.00     0.242 C 
HETATM    2  O   UNL     1     -42.590 -49.760  12.240  1.00  0.00    -0.271 OA
HETATM    3  N   UNL     1     -40.875 -51.021  11.403  1.00  0.00    -0.358 N 
HETATM    4  H   UNL     1     -40.096 -51.013  10.744  1.00  0.00     0.162 HD
ENDROOT
BRANCH   3   5
HETATM    5  C   UNL     1     -41.496 -52.276  11.802  1.00  0.00     0.142 C 
BRANCH   5   6
HETATM    6  C   UNL     1     -41.094 -52.819  13.192  1.00  0.00     0.057 C 
HETATM    7  C   UNL     1     -39.802 -52.077  13.659  1.00  0.00     0.021 C 
HETATM    8  C   UNL     1     -38.845 -53.112  14.237  1.00  0.00     0.001 C 
HETATM    9  C   UNL     1     -39.592 -54.428  14.260  1.00  0.00     0.001 C 
HETATM   10  C   UNL     1     -40.685 -54.304  13.209  1.00  0.00     0.021 C 
BRANCH   6  11
HETATM   11  C   UNL     1     -42.263 -52.545  14.193  1.00  0.00     0.229 C 
HETATM   12  O   UNL     1     -42.045 -51.860  15.200  1.00  0.00    -0.272 OA
HETATM   13  N   UNL     1     -43.545 -53.049  13.980  1.00  0.00    -0.360 N 
HETATM   14  C   UNL     1     -44.000 -53.911  12.898  1.00  0.00     0.152 C 
HETATM   15  C   UNL     1     -44.620 -52.570  14.845  1.00  0.00     0.152 C 
ENDBRANCH   6  11
ENDBRANCH   5   6
ENDBRANCH   3   5
BRANCH   1  16
HETATM   16  C   UNL     1     -40.790 -48.567  11.128  1.00  0.00     0.195 C 
HETATM   17  C   UNL     1     -40.013 -47.890  12.256  1.00  0.00     0.044 C 
BRANCH  16  18
HETATM   18  N   UNL     1     -41.722 -47.668  10.457  1.00  0.00    -0.290 N 
HETATM   19  C   UNL     1     -41.945 -46.340  10.695  1.00  0.00     0.112 A 
HETATM   20  C   UNL     1     -42.864 -45.931   9.758  1.00  0.00     0.037 A 
HETATM   21  C   UNL     1     -43.168 -47.090   9.025  1.00  0.00     0.108 A 
HETATM   22  N   UNL     1     -42.505 -48.160   9.468  1.00  0.00    -0.309 N 
ATOM     23  HN  UNL     1     -42.572 -49.123   9.139  1.00  0.00     0.186 HD
ENDBRANCH  16  18
ENDBRANCH   1  16
TORSDOF 5
ENDMDL
MODEL 7
REMARK VINA RESULT:      -5.4      2.119      3.974
REMARK  5 active torsions:
REMARK  status: ('A' for Active; 'I' for Inactive)
REMARK    1  A    between atoms: C_2  and  C_3 
REMARK    2  A    between atoms: C_2  and  N_17 
REMARK       I    between atoms: C_3  and  N_5 
REMARK    3  A    between atoms: N_5  and  C_6 
REMARK    4  A    between atoms: C_6  and  C_7 
REMARK    5  A    between atoms: C_7  and  C_12 
REMARK       I    between atoms: C_12  and  N_14 
ROOT
HETATM    1  C   UNL     1     -42.534 -48.955  11.865  1.00  0.00     0.242 C 
HETATM    2  O   UNL     1     -41.487 -49.472  11.469  1.00  0.00    -0.271 OA
HETATM    3  N   UNL     1     -43.450 -49.657  12.629  1.00  0.00    -0.358 N 
HETATM    4  H   UNL     1     -44.201 -49.119  13.064  1.00  0.00     0.162 HD
ENDROOT
BRANCH   3   5
HETATM    5  C   UNL     1     -43.151 -51.010  13.078  1.00  0.00     0.142 C 
BRANCH   5   6
HETATM    6  C   UNL     1     -44.281 -51.735  13.842  1.00  0.00     0.057 C 
HETATM    7  C   UNL     1     -45.547 -51.780  12.929  1.00  0.00     0.021 C 
HETATM    8  C   UNL     1     -46.756 -51.411  13.779  1.00  0.00     0.001 C 
HETATM    9  C   UNL     1     -46.264 -51.291  15.205  1.00  0.00     0.001 C 
HETATM   10  C   UNL     1     -44.773 -51.005  15.107  1.00  0.00     0.021 C 
BRANCH   6  11
HETATM   11  C   UNL     1     -43.808 -53.186  14.177  1.00  0.00     0.229 C 
HETATM   12  O   UNL     1     -44.362 -54.143  13.623  1.00  0.00    -0.272 OA
HETATM   13  N   UNL     1     -42.776 -53.431  15.082  1.00  0.00    -0.360 N 
HETATM   14  C   UNL     1     -42.031 -52.463  15.875  1.00  0.00     0.152 C 
HETATM   15  C   UNL     1     -42.256 -54.794  15.174  1.00  0.00     0.152 C 
ENDBRANCH   6  11
ENDBRANCH   5   6
ENDBRANCH   3   5
BRANCH   1  16
HETATM   16  C   UNL     1     -42.943 -47.527  11.486  1.00  0.00     0.195 C 
HETATM   17  C   UNL     1     -43.750 -47.503  10.190  1.00  0.00     0.044 C 
BRANCH  16  18
HETATM   18  N   UNL     1     -41.770 -46.659  11.444  1.00  0.00    -0.290 N 
HETATM   19  C   UNL     1     -41.353 -45.746  12.372  1.00  0.00     0.112 A 
HETATM   20  C   UNL     1     -40.165 -45.237  11.904  1.00  0.00     0.037 A 
HETATM   21  C   UNL     1     -39.966 -45.875  10.668  1.00  0.00     0.108 A 
HETATM   22  N   UNL     1     -40.958 -46.714  10.363  1.00  0.00    -0.309 N 
ATOM     23  HN  UNL     1     -41.075 -47.267   9.514  1.00  0.00     0.186 HD
ENDBRANCH  16  18
ENDBRANCH   1  16
TORSDOF 5
ENDMDL
MODEL 8
REMARK VINA RESULT:      -5.2      2.594      6.539
REMARK  5 active torsions:
REMARK  status: ('A' for Active; 'I' for Inactive)
REMARK    1  A    between atoms: C_2  and  C_3 
REMARK    2  A    between atoms: C_2  and  N_17 
REMARK       I    between atoms: C_3  and  N_5 
REMARK    3  A    between atoms: N_5  and  C_6 
REMARK    4  A    between atoms: C_6  and  C_7 
REMARK    5  A    between atoms: C_7  and  C_12 
REMARK       I    between atoms: C_12  and  N_14 
ROOT
HETATM    1  C   UNL     1     -39.167 -48.458  12.557  1.00  0.00     0.242 C 
HETATM    2  O   UNL     1     -39.484 -47.953  13.636  1.00  0.00    -0.271 OA
HETATM    3  N   UNL     1     -39.561 -47.906  11.350  1.00  0.00    -0.358 N 
HETATM    4  H   UNL     1     -39.120 -48.272  10.506  1.00  0.00     0.162 HD
ENDROOT
BRANCH   3   5
HETATM    5  C   UNL     1     -40.283 -46.642  11.320  1.00  0.00     0.142 C 
BRANCH   5   6
HETATM    6  C   UNL     1     -41.799 -46.734  11.034  1.00  0.00     0.057 C 
HETATM    7  C   UNL     1     -42.070 -48.037  10.217  1.00  0.00     0.021 C 
HETATM    8  C   UNL     1     -43.031 -47.694   9.086  1.00  0.00     0.001 C 
HETATM    9  C   UNL     1     -43.453 -46.256   9.295  1.00  0.00     0.001 C 
HETATM   10  C   UNL     1     -42.351 -45.617  10.128  1.00  0.00     0.021 C 
BRANCH   6  11
HETATM   11  C   UNL     1     -42.563 -46.784  12.396  1.00  0.00     0.229 C 
HETATM   12  O   UNL     1     -43.001 -47.868  12.801  1.00  0.00    -0.272 OA
HETATM   13  N   UNL     1     -42.764 -45.641  13.168  1.00  0.00    -0.360 N 
HETATM   14  C   UNL     1     -42.380 -44.271  12.856  1.00  0.00     0.152 C 
HETATM   15  C   UNL     1     -43.295 -45.813  14.519  1.00  0.00     0.152 C 
ENDBRANCH   6  11
ENDBRANCH   5   6
ENDBRANCH   3   5
BRANCH   1  16
HETATM   16  C   UNL     1     -38.379 -49.769  12.460  1.00  0.00     0.195 C 
HETATM   17  C   UNL     1     -37.553 -49.831  11.177  1.00  0.00     0.044 C 
BRANCH  16  18
HETATM   18  N   UNL     1     -39.276 -50.910  12.617  1.00  0.00    -0.290 N 
HETATM   19  C   UNL     1     -39.363 -51.787  13.662  1.00  0.00     0.112 A 
HETATM   20  C   UNL     1     -40.402 -52.637  13.365  1.00  0.00     0.037 A 
HETATM   21  C   UNL     1     -40.855 -52.220  12.102  1.00  0.00     0.108 A 
HETATM   22  N   UNL     1     -40.150 -51.193  11.623  1.00  0.00    -0.309 N 
ATOM     23  HN  UNL     1     -40.247 -50.730  10.719  1.00  0.00     0.186 HD
ENDBRANCH  16  18
ENDBRANCH   1  16
TORSDOF 5
ENDMDL
MODEL 9
REMARK VINA RESULT:      -5.1      2.500      3.671
REMARK  5 active torsions:
REMARK  status: ('A' for Active; 'I' for Inactive)
REMARK    1  A    between atoms: C_2  and  C_3 
REMARK    2  A    between atoms: C_2  and  N_17 
REMARK       I    between atoms: C_3  and  N_5 
REMARK    3  A    between atoms: N_5  and  C_6 
REMARK    4  A    between atoms: C_6  and  C_7 
REMARK    5  A    between atoms: C_7  and  C_12 
REMARK       I    between atoms: C_12  and  N_14 
ROOT
HETATM    1  C   UNL     1     -40.354 -49.943  11.660  1.00  0.00     0.242 C 
HETATM    2  O   UNL     1     -41.513 -49.557  11.493  1.00  0.00    -0.271 OA
HETATM    3  N   UNL     1     -40.059 -51.270  11.924  1.00  0.00    -0.358 N 
HETATM    4  H   UNL     1     -39.078 -51.545  11.876  1.00  0.00     0.162 HD
ENDROOT
BRANCH   3   5
HETATM    5  C   UNL     1     -41.113 -52.275  11.908  1.00  0.00     0.142 C 
BRANCH   5   6
HETATM    6  C   UNL     1     -41.750 -52.610  13.275  1.00  0.00     0.057 C 
HETATM    7  C   UNL     1     -42.072 -54.137  13.311  1.00  0.00     0.021 C 
HETATM    8  C   UNL     1     -43.468 -54.312  13.897  1.00  0.00     0.001 C 
HETATM    9  C   UNL     1     -43.925 -52.941  14.347  1.00  0.00     0.001 C 
HETATM   10  C   UNL     1     -43.117 -51.945  13.528  1.00  0.00     0.021 C 
BRANCH   6  11
HETATM   11  C   UNL     1     -40.731 -52.249  14.404  1.00  0.00     0.229 C 
HETATM   12  O   UNL     1     -40.871 -51.187  15.024  1.00  0.00    -0.272 OA
HETATM   13  N   UNL     1     -39.671 -53.092  14.733  1.00  0.00    -0.360 N 
HETATM   14  C   UNL     1     -39.298 -54.350  14.102  1.00  0.00     0.152 C 
HETATM   15  C   UNL     1     -38.899 -52.784  15.935  1.00  0.00     0.152 C 
ENDBRANCH   6  11
ENDBRANCH   5   6
ENDBRANCH   3   5
BRANCH   1  16
HETATM   16  C   UNL     1     -39.158 -48.985  11.665  1.00  0.00     0.195 C 
HETATM   17  C   UNL     1     -38.163 -49.341  12.768  1.00  0.00     0.044 C 
BRANCH  16  18
HETATM   18  N   UNL     1     -39.619 -47.602  11.736  1.00  0.00    -0.290 N 
HETATM   19  C   UNL     1     -39.659 -46.773  12.823  1.00  0.00     0.112 A 
HETATM   20  C   UNL     1     -40.107 -45.557  12.363  1.00  0.00     0.037 A 
HETATM   21  C   UNL     1     -40.348 -45.761  10.994  1.00  0.00     0.108 A 
HETATM   22  N   UNL     1     -40.089 -47.013  10.612  1.00  0.00    -0.309 N 
ATOM     23  HN  UNL     1     -40.216 -47.429   9.690  1.00  0.00     0.186 HD
ENDBRANCH  16  18
ENDBRANCH   1  16
TORSDOF 5
ENDMDL
