MODEL 1
REMARK VINA RESULT:      -5.7      0.000      0.000
REMARK  4 active torsions:
REMARK  status: ('A' for Active; 'I' for Inactive)
REMARK    1  A    between atoms: C_2  and  O_3 
REMARK    2  A    between atoms: O_3  and  C_4 
REMARK    3  A    between atoms: C_6  and  N_7 
REMARK       I    between atoms: N_7  and  C_8 
REMARK       I    between atoms: C_8  and  N_10 
REMARK    4  A    between atoms: N_10  and  C_11 
ROOT
HETATM    1  N   UNL     1     -43.523 -49.670  12.321  1.00  0.00    -0.337 N 
HETATM    2  C   UNL     1     -42.409 -48.888  12.058  1.00  0.00     0.322 C 
HETATM    3  O   UNL     1     -41.302 -49.196  12.476  1.00  0.00    -0.247 OA
HETATM    4  N   UNL     1     -42.736 -47.754  11.360  1.00  0.00    -0.289 N 
HETATM    5  H   UNL     1     -44.257 -49.636  11.627  1.00  0.00     0.164 HD
HETATM    6  H   UNL     1     -43.698 -47.475  11.277  1.00  0.00     0.172 HD
ENDROOT
BRANCH   1   7
HETATM    7  C   UNL     1     -43.385 -50.867  13.179  1.00  0.00     0.099 C 
HETATM    8  C   UNL     1     -43.031 -52.183  12.439  1.00  0.00     0.059 C 
HETATM    9  C   UNL     1     -44.036 -52.923  13.384  1.00  0.00     0.133 C 
HETATM   10  C   UNL     1     -44.665 -51.550  13.595  1.00  0.00     0.006 C 
HETATM   11  C   UNL     1     -45.983 -51.308  12.871  1.00  0.00     0.014 C 
HETATM   12  C   UNL     1     -45.320 -51.180  14.907  1.00  0.00     0.014 C 
HETATM   13  C   UNL     1     -46.659 -51.593  14.241  1.00  0.00     0.002 C 
BRANCH   9  14
HETATM   14  O   UNL     1     -43.417 -53.568  14.520  1.00  0.00    -0.385 OA
BRANCH  14  15
HETATM   15  C   UNL     1     -43.877 -54.882  14.833  1.00  0.00     0.163 C 
HETATM   16  C   UNL     1     -45.108 -55.176  14.001  1.00  0.00     0.033 C 
ENDBRANCH  14  15
ENDBRANCH   9  14
ENDBRANCH   1   7
BRANCH   4  17
HETATM   17  C   UNL     1     -41.790 -46.801  11.094  1.00  0.00     0.152 A 
HETATM   18  N   UNL     1     -40.612 -46.935  10.540  1.00  0.00    -0.346 N 
HETATM   19  C   UNL     1     -39.956 -45.724  10.549  1.00  0.00     0.097 A 
ATOM     20  HN  UNL     1     -40.237 -47.804  10.161  1.00  0.00     0.167 HD
HETATM   21  C   UNL     1     -40.664 -44.674  11.094  1.00  0.00     0.070 A 
HETATM   22  S   UNL     1     -42.215 -45.222  11.588  1.00  0.00    -0.064 SA
ENDBRANCH   4  17
TORSDOF 4
ENDMDL
MODEL 2
REMARK VINA RESULT:      -5.6      3.894      8.164
REMARK  4 active torsions:
REMARK  status: ('A' for Active; 'I' for Inactive)
REMARK    1  A    between atoms: C_2  and  O_3 
REMARK    2  A    between atoms: O_3  and  C_4 
REMARK    3  A    between atoms: C_6  and  N_7 
REMARK       I    between atoms: N_7  and  C_8 
REMARK       I    between atoms: C_8  and  N_10 
REMARK    4  A    between atoms: N_10  and  C_11 
ROOT
HETATM    1  N   UNL     1     -39.708 -47.223  10.929  1.00  0.00    -0.337 N 
HETATM    2  C   UNL     1     -40.408 -48.384  11.216  1.00  0.00     0.322 C 
HETATM    3  O   UNL     1     -41.628 -48.384  11.315  1.00  0.00    -0.247 OA
HETATM    4  N   UNL     1     -39.569 -49.447  11.428  1.00  0.00    -0.289 N 
HETATM    5  H   UNL     1     -38.834 -47.348  10.436  1.00  0.00     0.164 HD
HETATM    6  H   UNL     1     -38.585 -49.290  11.563  1.00  0.00     0.172 HD
ENDROOT
BRANCH   1   7
HETATM    7  C   UNL     1     -40.440 -45.945  10.802  1.00  0.00     0.099 C 
HETATM    8  C   UNL     1     -39.664 -44.796  10.106  1.00  0.00     0.059 C 
HETATM    9  C   UNL     1     -40.267 -43.817  11.168  1.00  0.00     0.133 C 
HETATM   10  C   UNL     1     -40.473 -45.061  12.025  1.00  0.00     0.006 C 
HETATM   11  C   UNL     1     -39.495 -45.240  13.178  1.00  0.00     0.014 C 
HETATM   12  C   UNL     1     -41.631 -45.164  12.994  1.00  0.00     0.014 C 
HETATM   13  C   UNL     1     -40.633 -44.688  14.082  1.00  0.00     0.002 C 
BRANCH   9  14
HETATM   14  O   UNL     1     -41.439 -43.099  10.718  1.00  0.00    -0.385 OA
BRANCH  14  15
HETATM   15  C   UNL     1     -41.639 -41.799  11.270  1.00  0.00     0.163 C 
HETATM   16  C   UNL     1     -40.454 -41.458  12.149  1.00  0.00     0.033 C 
ENDBRANCH  14  15
ENDBRANCH   9  14
ENDBRANCH   1   7
BRANCH   4  17
HETATM   17  C   UNL     1     -40.064 -50.659  11.827  1.00  0.00     0.152 A 
HETATM   18  N   UNL     1     -40.993 -51.396  11.276  1.00  0.00    -0.346 N 
HETATM   19  C   UNL     1     -41.237 -52.499  12.065  1.00  0.00     0.097 A 
ATOM     20  HN  UNL     1     -41.465 -51.187  10.397  1.00  0.00     0.167 HD
HETATM   21  C   UNL     1     -40.465 -52.593  13.202  1.00  0.00     0.070 A 
HETATM   22  S   UNL     1     -39.376 -51.266  13.269  1.00  0.00    -0.064 SA
ENDBRANCH   4  17
TORSDOF 4
ENDMDL
MODEL 3
REMARK VINA RESULT:      -5.3      1.726      2.101
REMARK  4 active torsions:
REMARK  status: ('A' for Active; 'I' for Inactive)
REMARK    1  A    between atoms: C_2  and  O_3 
REMARK    2  A    between atoms: O_3  and  C_4 
REMARK    3  A    between atoms: C_6  and  N_7 
REMARK       I    between atoms: N_7  and  C_8 
REMARK       I    between atoms: C_8  and  N_10 
REMARK    4  A    between atoms: N_10  and  C_11 
ROOT
HETATM    1  N   UNL     1     -41.649 -51.261  11.703  1.00  0.00    -0.337 N 
HETATM    2  C   UNL     1     -41.438 -49.895  11.809  1.00  0.00     0.322 C 
HETATM    3  O   UNL     1     -41.133 -49.379  12.875  1.00  0.00    -0.247 OA
HETATM    4  N   UNL     1     -41.679 -49.249  10.623  1.00  0.00    -0.289 N 
HETATM    5  H   UNL     1     -41.452 -51.668  10.799  1.00  0.00     0.164 HD
HETATM    6  H   UNL     1     -42.156 -49.728   9.879  1.00  0.00     0.172 HD
ENDROOT
BRANCH   1   7
HETATM    7  C   UNL     1     -41.567 -52.105  12.915  1.00  0.00     0.099 C 
HETATM    8  C   UNL     1     -40.930 -53.505  12.713  1.00  0.00     0.059 C 
HETATM    9  C   UNL     1     -42.026 -54.083  13.670  1.00  0.00     0.133 C 
HETATM   10  C   UNL     1     -42.827 -52.835  13.316  1.00  0.00     0.006 C 
HETATM   11  C   UNL     1     -43.983 -53.044  12.347  1.00  0.00     0.014 C 
HETATM   12  C   UNL     1     -43.776 -52.203  14.309  1.00  0.00     0.014 C 
HETATM   13  C   UNL     1     -44.895 -53.014  13.605  1.00  0.00     0.002 C 
BRANCH   9  14
HETATM   14  O   UNL     1     -41.593 -54.246  15.040  1.00  0.00    -0.385 OA
BRANCH  14  15
HETATM   15  C   UNL     1     -42.180 -55.322  15.769  1.00  0.00     0.163 C 
HETATM   16  C   UNL     1     -43.095 -54.747  16.829  1.00  0.00     0.033 C 
ENDBRANCH  14  15
ENDBRANCH   9  14
ENDBRANCH   1   7
BRANCH   4  17
HETATM   17  C   UNL     1     -41.627 -47.884  10.550  1.00  0.00     0.152 A 
HETATM   18  N   UNL     1     -40.590 -47.090  10.615  1.00  0.00    -0.346 N 
HETATM   19  C   UNL     1     -41.009 -45.778  10.585  1.00  0.00     0.097 A 
ATOM     20  HN  UNL     1     -39.619 -47.395  10.679  1.00  0.00     0.167 HD
HETATM   21  C   UNL     1     -42.371 -45.596  10.472  1.00  0.00     0.070 A 
HETATM   22  S   UNL     1     -43.148 -47.125  10.374  1.00  0.00    -0.064 SA
ENDBRANCH   4  17
TORSDOF 4
ENDMDL
MODEL 4
REMARK VINA RESULT:      -5.2      3.195      7.670
REMARK  4 active torsions:
REMARK  status: ('A' for Active; 'I' for Inactive)
REMARK    1  A    between atoms: C_2  and  O_3 
REMARK    2  A    between atoms: O_3  and  C_4 
REMARK    3  A    between atoms: C_6  and  N_7 
REMARK       I    between atoms: N_7  and  C_8 
REMARK       I    between atoms: C_8  and  N_10 
REMARK    4  A    between atoms: N_10  and  C_11 
ROOT
HETATM    1  N   UNL     1     -41.789 -50.530  11.599  1.00  0.00    -0.337 N 
HETATM    2  C   UNL     1     -42.616 -51.260  12.438  1.00  0.00     0.322 C 
HETATM    3  O   UNL     1     -43.178 -50.738  13.391  1.00  0.00    -0.247 OA
HETATM    4  N   UNL     1     -42.648 -52.587  12.094  1.00  0.00    -0.289 N 
HETATM    5  H   UNL     1     -41.730 -50.858  10.645  1.00  0.00     0.164 HD
HETATM    6  H   UNL     1     -41.967 -52.955  11.452  1.00  0.00     0.172 HD
ENDROOT
BRANCH   1   7
HETATM    7  C   UNL     1     -41.527 -49.105  11.897  1.00  0.00     0.099 C 
HETATM    8  C   UNL     1     -41.513 -48.157  10.670  1.00  0.00     0.059 C 
HETATM    9  C   UNL     1     -40.291 -47.424  11.316  1.00  0.00     0.133 C 
HETATM   10  C   UNL     1     -40.083 -48.713  12.103  1.00  0.00     0.006 C 
HETATM   11  C   UNL     1     -38.932 -49.594  11.637  1.00  0.00     0.014 C 
HETATM   12  C   UNL     1     -39.503 -48.696  13.499  1.00  0.00     0.014 C 
HETATM   13  C   UNL     1     -38.136 -48.990  12.827  1.00  0.00     0.002 C 
BRANCH   9  14
HETATM   14  O   UNL     1     -40.636 -46.227  12.051  1.00  0.00    -0.385 OA
BRANCH  14  15
HETATM   15  C   UNL     1     -39.873 -45.058  11.758  1.00  0.00     0.163 C 
HETATM   16  C   UNL     1     -39.598 -45.021  10.269  1.00  0.00     0.033 C 
ENDBRANCH  14  15
ENDBRANCH   9  14
ENDBRANCH   1   7
BRANCH   4  17
HETATM   17  C   UNL     1     -43.325 -53.492  12.865  1.00  0.00     0.152 A 
HETATM   18  N   UNL     1     -44.589 -53.828  12.829  1.00  0.00    -0.346 N 
HETATM   19  C   UNL     1     -44.861 -54.716  13.847  1.00  0.00     0.097 A 
ATOM     20  HN  UNL     1     -45.270 -53.485  12.152  1.00  0.00     0.167 HD
HETATM   21  C   UNL     1     -43.781 -55.061  14.632  1.00  0.00     0.070 A 
HETATM   22  S   UNL     1     -42.373 -54.263  14.055  1.00  0.00    -0.064 SA
ENDBRANCH   4  17
TORSDOF 4
ENDMDL
MODEL 5
REMARK VINA RESULT:      -4.9      3.112      3.925
REMARK  4 active torsions:
REMARK  status: ('A' for Active; 'I' for Inactive)
REMARK    1  A    between atoms: C_2  and  O_3 
REMARK    2  A    between atoms: O_3  and  C_4 
REMARK    3  A    between atoms: C_6  and  N_7 
REMARK       I    between atoms: N_7  and  C_8 
REMARK       I    between atoms: C_8  and  N_10 
REMARK    4  A    between atoms: N_10  and  C_11 
ROOT
HETATM    1  N   UNL     1     -39.957 -50.677  12.047  1.00  0.00    -0.337 N 
HETATM    2  C   UNL     1     -40.767 -49.556  11.948  1.00  0.00     0.322 C 
HETATM    3  O   UNL     1     -41.290 -49.059  12.936  1.00  0.00    -0.247 OA
HETATM    4  N   UNL     1     -40.933 -49.162  10.645  1.00  0.00    -0.289 N 
HETATM    5  H   UNL     1     -39.235 -50.762  11.344  1.00  0.00     0.164 HD
HETATM    6  H   UNL     1     -40.663 -49.776   9.897  1.00  0.00     0.172 HD
ENDROOT
BRANCH   1   7
HETATM    7  C   UNL     1     -39.771 -51.326  13.363  1.00  0.00     0.099 C 
HETATM    8  C   UNL     1     -38.421 -52.062  13.562  1.00  0.00     0.059 C 
HETATM    9  C   UNL     1     -39.208 -53.197  14.297  1.00  0.00     0.133 C 
HETATM   10  C   UNL     1     -40.430 -52.671  13.553  1.00  0.00     0.006 C 
HETATM   11  C   UNL     1     -40.901 -53.513  12.374  1.00  0.00     0.014 C 
HETATM   12  C   UNL     1     -41.813 -52.749  14.159  1.00  0.00     0.014 C 
HETATM   13  C   UNL     1     -41.988 -54.056  13.342  1.00  0.00     0.002 C 
BRANCH   9  14
HETATM   14  O   UNL     1     -39.194 -53.093  15.739  1.00  0.00    -0.385 OA
BRANCH  14  15
HETATM   15  C   UNL     1     -38.823 -54.267  16.458  1.00  0.00     0.163 C 
HETATM   16  C   UNL     1     -39.810 -55.368  16.132  1.00  0.00     0.033 C 
ENDBRANCH  14  15
ENDBRANCH   9  14
ENDBRANCH   1   7
BRANCH   4  17
HETATM   17  C   UNL     1     -41.783 -48.137  10.330  1.00  0.00     0.152 A 
HETATM   18  N   UNL     1     -42.979 -48.186   9.802  1.00  0.00    -0.346 N 
HETATM   19  C   UNL     1     -43.437 -46.906   9.575  1.00  0.00     0.097 A 
ATOM     20  HN  UNL     1     -43.493 -49.040   9.590  1.00  0.00     0.167 HD
HETATM   21  C   UNL     1     -42.582 -45.897   9.961  1.00  0.00     0.070 A 
HETATM   22  S   UNL     1     -41.166 -46.578  10.656  1.00  0.00    -0.064 SA
ENDBRANCH   4  17
TORSDOF 4
ENDMDL
MODEL 6
REMARK VINA RESULT:      -4.8      6.781      9.705
REMARK  4 active torsions:
REMARK  status: ('A' for Active; 'I' for Inactive)
REMARK    1  A    between atoms: C_2  and  O_3 
REMARK    2  A    between atoms: O_3  and  C_4 
REMARK    3  A    between atoms: C_6  and  N_7 
REMARK       I    between atoms: N_7  and  C_8 
REMARK       I    between atoms: C_8  and  N_10 
REMARK    4  A    between atoms: N_10  and  C_11 
ROOT
HETATM    1  N   UNL     1     -39.205 -54.222  16.346  1.00  0.00    -0.337 N 
HETATM    2  C   UNL     1     -38.789 -55.538  16.468  1.00  0.00     0.322 C 
HETATM    3  O   UNL     1     -38.204 -56.108  15.558  1.00  0.00    -0.247 OA
HETATM    4  N   UNL     1     -39.175 -56.085  17.665  1.00  0.00    -0.289 N 
HETATM    5  H   UNL     1     -39.256 -53.695  17.208  1.00  0.00     0.164 HD
HETATM    6  H   UNL     1     -39.856 -55.615  18.235  1.00  0.00     0.172 HD
ENDROOT
BRANCH   1   7
HETATM    7  C   UNL     1     -38.995 -53.508  15.068  1.00  0.00     0.099 C 
HETATM    8  C   UNL     1     -38.856 -51.968  15.176  1.00  0.00     0.059 C 
HETATM    9  C   UNL     1     -39.726 -51.851  13.880  1.00  0.00     0.133 C 
HETATM   10  C   UNL     1     -40.224 -53.248  14.230  1.00  0.00     0.006 C 
HETATM   11  C   UNL     1     -41.629 -53.324  14.811  1.00  0.00     0.014 C 
HETATM   12  C   UNL     1     -40.619 -54.234  13.152  1.00  0.00     0.014 C 
HETATM   13  C   UNL     1     -42.075 -53.753  13.385  1.00  0.00     0.002 C 
BRANCH   9  14
HETATM   14  O   UNL     1     -38.962 -51.686  12.664  1.00  0.00    -0.385 OA
BRANCH  14  15
HETATM   15  C   UNL     1     -39.039 -50.410  12.032  1.00  0.00     0.163 C 
HETATM   16  C   UNL     1     -37.641 -49.979  11.639  1.00  0.00     0.033 C 
ENDBRANCH  14  15
ENDBRANCH   9  14
ENDBRANCH   1   7
BRANCH   4  17
HETATM   17  C   UNL     1     -38.950 -57.408  17.932  1.00  0.00     0.152 A 
HETATM   18  N   UNL     1     -39.604 -58.460  17.513  1.00  0.00    -0.346 N 
HETATM   19  C   UNL     1     -39.086 -59.593  18.101  1.00  0.00     0.097 A 
ATOM     20  HN  UNL     1     -40.380 -58.445  16.851  1.00  0.00     0.167 HD
HETATM   21  C   UNL     1     -38.019 -59.382  18.949  1.00  0.00     0.070 A 
HETATM   22  S   UNL     1     -37.639 -57.706  18.987  1.00  0.00    -0.064 SA
ENDBRANCH   4  17
TORSDOF 4
ENDMDL
MODEL 7
REMARK VINA RESULT:      -4.7      1.786      2.851
REMARK  4 active torsions:
REMARK  status: ('A' for Active; 'I' for Inactive)
REMARK    1  A    between atoms: C_2  and  O_3 
REMARK    2  A    between atoms: O_3  and  C_4 
REMARK    3  A    between atoms: C_6  and  N_7 
REMARK       I    between atoms: N_7  and  C_8 
REMARK       I    between atoms: C_8  and  N_10 
REMARK    4  A    between atoms: N_10  and  C_11 
ROOT
HETATM    1  N   UNL     1     -41.261 -49.840  12.913  1.00  0.00    -0.337 N 
HETATM    2  C   UNL     1     -41.320 -48.686  12.147  1.00  0.00     0.322 C 
HETATM    3  O   UNL     1     -42.149 -48.555  11.257  1.00  0.00    -0.247 OA
HETATM    4  N   UNL     1     -40.324 -47.804  12.477  1.00  0.00    -0.289 N 
HETATM    5  H   UNL     1     -40.909 -49.726  13.854  1.00  0.00     0.164 HD
HETATM    6  H   UNL     1     -39.554 -48.107  13.048  1.00  0.00     0.172 HD
ENDROOT
BRANCH   1   7
HETATM    7  C   UNL     1     -42.175 -50.963  12.608  1.00  0.00     0.099 C 
HETATM    8  C   UNL     1     -43.463 -51.029  13.469  1.00  0.00     0.059 C 
HETATM    9  C   UNL     1     -43.279 -52.583  13.529  1.00  0.00     0.133 C 
HETATM   10  C   UNL     1     -41.817 -52.304  13.201  1.00  0.00     0.006 C 
HETATM   11  C   UNL     1     -40.841 -52.440  14.362  1.00  0.00     0.014 C 
HETATM   12  C   UNL     1     -40.992 -53.284  12.396  1.00  0.00     0.014 C 
HETATM   13  C   UNL     1     -40.491 -53.829  13.759  1.00  0.00     0.002 C 
BRANCH   9  14
HETATM   14  O   UNL     1     -44.066 -53.312  12.560  1.00  0.00    -0.385 OA
BRANCH  14  15
HETATM   15  C   UNL     1     -45.260 -53.926  13.043  1.00  0.00     0.163 C 
HETATM   16  C   UNL     1     -44.880 -55.063  13.968  1.00  0.00     0.033 C 
ENDBRANCH  14  15
ENDBRANCH   9  14
ENDBRANCH   1   7
BRANCH   4  17
HETATM   17  C   UNL     1     -40.150 -46.650  11.763  1.00  0.00     0.152 A 
HETATM   18  N   UNL     1     -40.012 -46.487  10.473  1.00  0.00    -0.346 N 
HETATM   19  C   UNL     1     -39.772 -45.159  10.196  1.00  0.00     0.097 A 
ATOM     20  HN  UNL     1     -40.073 -47.231   9.777  1.00  0.00     0.167 HD
HETATM   21  C   UNL     1     -39.754 -44.323  11.292  1.00  0.00     0.070 A 
HETATM   22  S   UNL     1     -40.076 -45.232  12.714  1.00  0.00    -0.064 SA
ENDBRANCH   4  17
TORSDOF 4
ENDMDL
MODEL 8
REMARK VINA RESULT:      -4.7      2.937      7.378
REMARK  4 active torsions:
REMARK  status: ('A' for Active; 'I' for Inactive)
REMARK    1  A    between atoms: C_2  and  O_3 
REMARK    2  A    between atoms: O_3  and  C_4 
REMARK    3  A    between atoms: C_6  and  N_7 
REMARK       I    between atoms: N_7  and  C_8 
REMARK       I    between atoms: C_8  and  N_10 
REMARK    4  A    between atoms: N_10  and  C_11 
ROOT
HETATM    1  N   UNL     1     -43.490 -49.441  12.147  1.00  0.00    -0.337 N 
HETATM    2  C   UNL     1     -42.951 -50.479  12.890  1.00  0.00     0.322 C 
HETATM    3  O   UNL     1     -41.802 -50.433  13.309  1.00  0.00    -0.247 OA
HETATM    4  N   UNL     1     -43.827 -51.527  13.013  1.00  0.00    -0.289 N 
HETATM    5  H   UNL     1     -44.492 -49.322  12.220  1.00  0.00     0.164 HD
HETATM    6  H   UNL     1     -44.646 -51.566  12.431  1.00  0.00     0.172 HD
ENDROOT
BRANCH   1   7
HETATM    7  C   UNL     1     -42.643 -48.280  11.798  1.00  0.00     0.099 C 
HETATM    8  C   UNL     1     -42.827 -47.024  12.689  1.00  0.00     0.059 C 
HETATM    9  C   UNL     1     -42.717 -46.153  11.394  1.00  0.00     0.133 C 
HETATM   10  C   UNL     1     -43.113 -47.422  10.648  1.00  0.00     0.006 C 
HETATM   11  C   UNL     1     -44.548 -47.470  10.139  1.00  0.00     0.014 C 
HETATM   12  C   UNL     1     -42.610 -47.701   9.249  1.00  0.00     0.014 C 
HETATM   13  C   UNL     1     -43.949 -47.097   8.754  1.00  0.00     0.002 C 
BRANCH   9  14
HETATM   14  O   UNL     1     -41.399 -45.608  11.154  1.00  0.00    -0.385 OA
BRANCH  14  15
HETATM   15  C   UNL     1     -41.283 -44.187  11.188  1.00  0.00     0.163 C 
HETATM   16  C   UNL     1     -42.673 -43.586  11.149  1.00  0.00     0.033 C 
ENDBRANCH  14  15
ENDBRANCH   9  14
ENDBRANCH   1   7
BRANCH   4  17
HETATM   17  C   UNL     1     -43.443 -52.690  13.622  1.00  0.00     0.152 A 
HETATM   18  N   UNL     1     -42.304 -53.330  13.543  1.00  0.00    -0.346 N 
HETATM   19  C   UNL     1     -42.384 -54.507  14.254  1.00  0.00     0.097 A 
ATOM     20  HN  UNL     1     -41.483 -53.007  13.032  1.00  0.00     0.167 HD
HETATM   21  C   UNL     1     -43.588 -54.733  14.887  1.00  0.00     0.070 A 
HETATM   22  S   UNL     1     -44.644 -53.408  14.602  1.00  0.00    -0.064 SA
ENDBRANCH   4  17
TORSDOF 4
ENDMDL
MODEL 9
REMARK VINA RESULT:      -4.5     16.309     17.521
REMARK  4 active torsions:
REMARK  status: ('A' for Active; 'I' for Inactive)
REMARK    1  A    between atoms: C_2  and  O_3 
REMARK    2  A    between atoms: O_3  and  C_4 
REMARK    3  A    between atoms: C_6  and  N_7 
REMARK       I    between atoms: N_7  and  C_8 
REMARK       I    between atoms: C_8  and  N_10 
REMARK    4  A    between atoms: N_10  and  C_11 
ROOT
HETATM    1  N   UNL     1     -50.518 -53.540  -2.223  1.00  0.00    -0.337 N 
HETATM    2  C   UNL     1     -49.677 -54.605  -2.509  1.00  0.00     0.322 C 
HETATM    3  O   UNL     1     -48.748 -54.898  -1.770  1.00  0.00    -0.247 OA
HETATM    4  N   UNL     1     -49.990 -55.194  -3.707  1.00  0.00    -0.289 N 
HETATM    5  H   UNL     1     -51.463 -53.620  -2.573  1.00  0.00     0.164 HD
HETATM    6  H   UNL     1     -50.611 -54.729  -4.347  1.00  0.00     0.172 HD
ENDROOT
BRANCH   1   7
HETATM    7  C   UNL     1     -50.249 -52.700  -1.036  1.00  0.00     0.099 C 
HETATM    8  C   UNL     1     -51.419 -51.789  -0.582  1.00  0.00     0.059 C 
HETATM    9  C   UNL     1     -50.367 -50.665  -0.304  1.00  0.00     0.133 C 
HETATM   10  C   UNL     1     -49.469 -51.429  -1.270  1.00  0.00     0.006 C 
HETATM   11  C   UNL     1     -49.317 -50.818  -2.656  1.00  0.00     0.014 C 
HETATM   12  C   UNL     1     -47.965 -51.432  -1.109  1.00  0.00     0.014 C 
HETATM   13  C   UNL     1     -47.952 -50.279  -2.147  1.00  0.00     0.002 C 
BRANCH   9  14
HETATM   14  O   UNL     1     -49.951 -50.568   1.078  1.00  0.00    -0.385 OA
BRANCH  14  15
HETATM   15  C   UNL     1     -50.126 -49.301   1.708  1.00  0.00     0.163 C 
HETATM   16  C   UNL     1     -49.067 -48.351   1.187  1.00  0.00     0.033 C 
ENDBRANCH  14  15
ENDBRANCH   9  14
ENDBRANCH   1   7
BRANCH   4  17
HETATM   17  C   UNL     1     -49.211 -56.197  -4.216  1.00  0.00     0.152 A 
HETATM   18  N   UNL     1     -47.911 -56.334  -4.180  1.00  0.00    -0.346 N 
HETATM   19  C   UNL     1     -47.543 -57.452  -4.896  1.00  0.00     0.097 A 
ATOM     20  HN  UNL     1     -47.267 -55.708  -3.696  1.00  0.00     0.167 HD
HETATM   21  C   UNL     1     -48.584 -58.165  -5.450  1.00  0.00     0.070 A 
HETATM   22  S   UNL     1     -50.076 -57.421  -5.035  1.00  0.00    -0.064 SA
ENDBRANCH   4  17
TORSDOF 4
ENDMDL
