MODEL 1
REMARK VINA RESULT:      -6.9      0.000      0.000
REMARK  4 active torsions:
REMARK  status: ('A' for Active; 'I' for Inactive)
REMARK    1  A    between atoms: C_2  and  C_5 
REMARK    2  A    between atoms: N_9  and  C_10 
REMARK    3  A    between atoms: C_10  and  C_11 
REMARK       I    between atoms: C_11  and  N_13 
REMARK    4  A    between atoms: N_13  and  C_14 
ROOT
HETATM    1  C   UNL     1     -41.201 -50.713  11.840  1.00  0.00     0.236 C 
HETATM    2  O   UNL     1     -39.976 -50.598  11.823  1.00  0.00    -0.272 OA
HETATM    3  N   UNL     1     -42.048 -49.676  11.496  1.00  0.00    -0.347 N 
HETATM    4  H   UNL     1     -43.017 -49.908  11.301  1.00  0.00     0.163 HD
ENDROOT
BRANCH   1   5
HETATM    5  C   UNL     1     -41.883 -51.981  12.372  1.00  0.00     0.234 C 
BRANCH   5   6
HETATM    6  N   UNL     1     -42.836 -51.624  13.425  1.00  0.00    -0.315 N 
HETATM    7  C   UNL     1     -42.402 -50.870  14.502  1.00  0.00     0.095 C 
HETATM    8  C   UNL     1     -43.258 -50.470  15.448  1.00  0.00     0.018 C 
HETATM    9  C   UNL     1     -44.664 -50.739  15.292  1.00  0.00     0.023 C 
HETATM   10  C   UNL     1     -45.129 -51.464  14.257  1.00  0.00     0.115 C 
HETATM   11  C   UNL     1     -44.162 -52.035  13.284  1.00  0.00     0.263 C 
HETATM   12  O   UNL     1     -44.519 -52.809  12.402  1.00  0.00    -0.267 OA
BRANCH  10  13
HETATM   13  C   UNL     1     -46.577 -51.652  13.992  1.00  0.00     0.422 C 
HETATM   14  F   UNL     1     -47.035 -51.226  12.792  1.00  0.00    -0.166 F 
HETATM   15  F   UNL     1     -47.318 -50.990  14.927  1.00  0.00    -0.166 F 
HETATM   16  F   UNL     1     -46.936 -52.960  14.101  1.00  0.00    -0.166 F 
ENDBRANCH  10  13
ENDBRANCH   5   6
ENDBRANCH   1   5
BRANCH   3  17
HETATM   17  C   UNL     1     -41.517 -48.463  10.880  1.00  0.00     0.170 C 
HETATM   18  C   UNL     1     -40.785 -47.591  11.915  1.00  0.00     0.034 C 
HETATM   19  C   UNL     1     -39.850 -46.572  11.253  1.00  0.00     0.004 C 
HETATM   20  C   UNL     1     -40.497 -45.284  10.725  1.00  0.00     0.015 C 
HETATM   21  C   UNL     1     -41.941 -45.360  10.224  1.00  0.00     0.095 C 
HETATM   22  N   UNL     1     -42.226 -46.573   9.486  1.00  0.00    -0.261 NA
HETATM   23  C   UNL     1     -42.660 -47.646  10.251  1.00  0.00     0.220 C 
HETATM   24  H   UNL     1     -41.489 -46.804   8.830  1.00  0.00     0.130 HD
HETATM   25  O   UNL     1     -43.846 -47.827  10.515  1.00  0.00    -0.278 OA
ENDBRANCH   3  17
TORSDOF 4
ENDMDL
MODEL 2
REMARK VINA RESULT:      -6.8      2.717      3.659
REMARK  4 active torsions:
REMARK  status: ('A' for Active; 'I' for Inactive)
REMARK    1  A    between atoms: C_2  and  C_5 
REMARK    2  A    between atoms: N_9  and  C_10 
REMARK    3  A    between atoms: C_10  and  C_11 
REMARK       I    between atoms: C_11  and  N_13 
REMARK    4  A    between atoms: N_13  and  C_14 
ROOT
HETATM    1  C   UNL     1     -41.748 -53.673  13.354  1.00  0.00     0.236 C 
HETATM    2  O   UNL     1     -41.153 -54.426  12.585  1.00  0.00    -0.272 OA
HETATM    3  N   UNL     1     -41.345 -52.370  13.577  1.00  0.00    -0.347 N 
HETATM    4  H   UNL     1     -42.008 -51.744  14.025  1.00  0.00     0.163 HD
ENDROOT
BRANCH   1   5
HETATM    5  C   UNL     1     -42.911 -54.168  14.226  1.00  0.00     0.234 C 
BRANCH   5   6
HETATM    6  N   UNL     1     -44.078 -53.305  14.029  1.00  0.00    -0.315 N 
HETATM    7  C   UNL     1     -44.669 -53.243  12.778  1.00  0.00     0.095 C 
HETATM    8  C   UNL     1     -45.774 -52.518  12.578  1.00  0.00     0.018 C 
HETATM    9  C   UNL     1     -46.416 -51.879  13.697  1.00  0.00     0.023 C 
HETATM   10  C   UNL     1     -45.879 -51.919  14.931  1.00  0.00     0.115 C 
HETATM   11  C   UNL     1     -44.572 -52.600  15.127  1.00  0.00     0.263 C 
HETATM   12  O   UNL     1     -43.977 -52.552  16.199  1.00  0.00    -0.267 OA
BRANCH  10  13
HETATM   13  C   UNL     1     -46.572 -51.386  16.129  1.00  0.00     0.422 C 
HETATM   14  F   UNL     1     -46.714 -52.232  17.175  1.00  0.00    -0.166 F 
HETATM   15  F   UNL     1     -47.836 -50.984  15.804  1.00  0.00    -0.166 F 
HETATM   16  F   UNL     1     -45.950 -50.276  16.612  1.00  0.00    -0.166 F 
ENDBRANCH  10  13
ENDBRANCH   5   6
ENDBRANCH   1   5
BRANCH   3  17
HETATM   17  C   UNL     1     -40.321 -51.760  12.733  1.00  0.00     0.170 C 
HETATM   18  C   UNL     1     -39.188 -51.160  13.585  1.00  0.00     0.034 C 
HETATM   19  C   UNL     1     -37.914 -50.924  12.765  1.00  0.00     0.004 C 
HETATM   20  C   UNL     1     -37.865 -49.644  11.918  1.00  0.00     0.015 C 
HETATM   21  C   UNL     1     -39.184 -49.102  11.361  1.00  0.00     0.095 C 
HETATM   22  N   UNL     1     -40.081 -50.143  10.904  1.00  0.00    -0.261 NA
HETATM   23  C   UNL     1     -40.943 -50.650  11.867  1.00  0.00     0.220 C 
HETATM   24  H   UNL     1     -39.600 -50.852  10.364  1.00  0.00     0.130 HD
HETATM   25  O   UNL     1     -42.042 -50.151  12.093  1.00  0.00    -0.278 OA
ENDBRANCH   3  17
TORSDOF 4
ENDMDL
MODEL 3
REMARK VINA RESULT:      -6.6      3.885      6.501
REMARK  4 active torsions:
REMARK  status: ('A' for Active; 'I' for Inactive)
REMARK    1  A    between atoms: C_2  and  C_5 
REMARK    2  A    between atoms: N_9  and  C_10 
REMARK    3  A    between atoms: C_10  and  C_11 
REMARK       I    between atoms: C_11  and  N_13 
REMARK    4  A    between atoms: N_13  and  C_14 
ROOT
HETATM    1  C   UNL     1     -42.544 -50.479  12.519  1.00  0.00     0.236 C 
HETATM    2  O   UNL     1     -43.012 -49.383  12.828  1.00  0.00    -0.272 OA
HETATM    3  N   UNL     1     -43.193 -51.667  12.797  1.00  0.00    -0.347 N 
HETATM    4  H   UNL     1     -42.876 -52.499  12.308  1.00  0.00     0.163 HD
ENDROOT
BRANCH   1   5
HETATM    5  C   UNL     1     -41.139 -50.613  11.916  1.00  0.00     0.234 C 
BRANCH   5   6
HETATM    6  N   UNL     1     -40.210 -51.106  12.935  1.00  0.00    -0.315 N 
HETATM    7  C   UNL     1     -39.544 -50.197  13.740  1.00  0.00     0.095 C 
HETATM    8  C   UNL     1     -38.739 -50.613  14.723  1.00  0.00     0.018 C 
HETATM    9  C   UNL     1     -38.645 -52.019  15.015  1.00  0.00     0.023 C 
HETATM   10  C   UNL     1     -39.280 -52.937  14.262  1.00  0.00     0.115 C 
HETATM   11  C   UNL     1     -40.056 -52.486  13.078  1.00  0.00     0.263 C 
HETATM   12  O   UNL     1     -40.543 -53.286  12.285  1.00  0.00    -0.267 OA
BRANCH  10  13
HETATM   13  C   UNL     1     -39.313 -54.380  14.607  1.00  0.00     0.422 C 
HETATM   14  F   UNL     1     -38.528 -54.777  15.634  1.00  0.00    -0.166 F 
HETATM   15  F   UNL     1     -38.927 -55.131  13.534  1.00  0.00    -0.166 F 
HETATM   16  F   UNL     1     -40.576 -54.792  14.904  1.00  0.00    -0.166 F 
ENDBRANCH  10  13
ENDBRANCH   5   6
ENDBRANCH   1   5
BRANCH   3  17
HETATM   17  C   UNL     1     -44.574 -51.661  13.272  1.00  0.00     0.170 C 
HETATM   18  C   UNL     1     -44.630 -51.556  14.807  1.00  0.00     0.034 C 
HETATM   19  C   UNL     1     -46.007 -51.099  15.303  1.00  0.00     0.004 C 
HETATM   20  C   UNL     1     -47.097 -52.176  15.402  1.00  0.00     0.015 C 
HETATM   21  C   UNL     1     -47.045 -53.343  14.414  1.00  0.00     0.095 C 
HETATM   22  N   UNL     1     -46.657 -52.941  13.077  1.00  0.00    -0.261 NA
HETATM   23  C   UNL     1     -45.292 -52.948  12.828  1.00  0.00     0.220 C 
HETATM   24  H   UNL     1     -47.128 -52.096  12.780  1.00  0.00     0.130 HD
HETATM   25  O   UNL     1     -44.702 -53.947  12.427  1.00  0.00    -0.278 OA
ENDBRANCH   3  17
TORSDOF 4
ENDMDL
MODEL 4
REMARK VINA RESULT:      -6.6      2.267      2.926
REMARK  4 active torsions:
REMARK  status: ('A' for Active; 'I' for Inactive)
REMARK    1  A    between atoms: C_2  and  C_5 
REMARK    2  A    between atoms: N_9  and  C_10 
REMARK    3  A    between atoms: C_10  and  C_11 
REMARK       I    between atoms: C_11  and  N_13 
REMARK    4  A    between atoms: N_13  and  C_14 
ROOT
HETATM    1  C   UNL     1     -41.886 -51.194  12.310  1.00  0.00     0.236 C 
HETATM    2  O   UNL     1     -42.491 -50.793  13.303  1.00  0.00    -0.272 OA
HETATM    3  N   UNL     1     -41.445 -50.342  11.315  1.00  0.00    -0.347 N 
HETATM    4  H   UNL     1     -40.756 -50.701  10.662  1.00  0.00     0.163 HD
ENDROOT
BRANCH   1   5
HETATM    5  C   UNL     1     -41.689 -52.692  12.037  1.00  0.00     0.234 C 
BRANCH   5   6
HETATM    6  N   UNL     1     -42.259 -53.473  13.138  1.00  0.00    -0.315 N 
HETATM    7  C   UNL     1     -41.467 -53.778  14.231  1.00  0.00     0.095 C 
HETATM    8  C   UNL     1     -41.972 -54.432  15.283  1.00  0.00     0.018 C 
HETATM    9  C   UNL     1     -43.380 -54.729  15.323  1.00  0.00     0.023 C 
HETATM   10  C   UNL     1     -44.187 -54.445  14.284  1.00  0.00     0.115 C 
HETATM   11  C   UNL     1     -43.600 -53.853  13.055  1.00  0.00     0.263 C 
HETATM   12  O   UNL     1     -44.264 -53.696  12.036  1.00  0.00    -0.267 OA
BRANCH  10  13
HETATM   13  C   UNL     1     -45.660 -54.617  14.338  1.00  0.00     0.422 C 
HETATM   14  F   UNL     1     -46.217 -54.700  15.568  1.00  0.00    -0.166 F 
HETATM   15  F   UNL     1     -46.027 -55.760  13.688  1.00  0.00    -0.166 F 
HETATM   16  F   UNL     1     -46.303 -53.607  13.690  1.00  0.00    -0.166 F 
ENDBRANCH  10  13
ENDBRANCH   5   6
ENDBRANCH   1   5
BRANCH   3  17
HETATM   17  C   UNL     1     -41.484 -48.895  11.513  1.00  0.00     0.170 C 
HETATM   18  C   UNL     1     -42.056 -48.182  10.275  1.00  0.00     0.034 C 
HETATM   19  C   UNL     1     -42.527 -46.759  10.595  1.00  0.00     0.004 C 
HETATM   20  C   UNL     1     -41.447 -45.668  10.642  1.00  0.00     0.015 C 
HETATM   21  C   UNL     1     -40.039 -46.072  11.086  1.00  0.00     0.095 C 
HETATM   22  N   UNL     1     -40.037 -47.028  12.174  1.00  0.00    -0.261 NA
HETATM   23  C   UNL     1     -40.067 -48.362  11.793  1.00  0.00     0.220 C 
HETATM   24  H   UNL     1     -40.705 -46.788  12.896  1.00  0.00     0.130 HD
HETATM   25  O   UNL     1     -39.045 -49.003  11.560  1.00  0.00    -0.278 OA
ENDBRANCH   3  17
TORSDOF 4
ENDMDL
MODEL 5
REMARK VINA RESULT:      -6.4      2.458      3.292
REMARK  4 active torsions:
REMARK  status: ('A' for Active; 'I' for Inactive)
REMARK    1  A    between atoms: C_2  and  C_5 
REMARK    2  A    between atoms: N_9  and  C_10 
REMARK    3  A    between atoms: C_10  and  C_11 
REMARK       I    between atoms: C_11  and  N_13 
REMARK    4  A    between atoms: N_13  and  C_14 
ROOT
HETATM    1  C   UNL     1     -41.436 -53.958  13.637  1.00  0.00     0.236 C 
HETATM    2  O   UNL     1     -41.134 -54.572  12.615  1.00  0.00    -0.272 OA
HETATM    3  N   UNL     1     -40.917 -52.712  13.934  1.00  0.00    -0.347 N 
HETATM    4  H   UNL     1     -41.385 -52.169  14.654  1.00  0.00     0.163 HD
ENDROOT
BRANCH   1   5
HETATM    5  C   UNL     1     -42.313 -54.591  14.727  1.00  0.00     0.234 C 
BRANCH   5   6
HETATM    6  N   UNL     1     -43.336 -53.634  15.154  1.00  0.00    -0.315 N 
HETATM    7  C   UNL     1     -43.219 -53.026  16.392  1.00  0.00     0.095 C 
HETATM    8  C   UNL     1     -44.098 -52.099  16.787  1.00  0.00     0.018 C 
HETATM    9  C   UNL     1     -45.117 -51.653  15.873  1.00  0.00     0.023 C 
HETATM   10  C   UNL     1     -45.263 -52.213  14.657  1.00  0.00     0.115 C 
HETATM   11  C   UNL     1     -44.381 -53.346  14.273  1.00  0.00     0.263 C 
HETATM   12  O   UNL     1     -44.557 -53.975  13.236  1.00  0.00    -0.267 OA
BRANCH  10  13
HETATM   13  C   UNL     1     -46.213 -51.697  13.641  1.00  0.00     0.422 C 
HETATM   14  F   UNL     1     -45.694 -50.919  12.664  1.00  0.00    -0.166 F 
HETATM   15  F   UNL     1     -47.181 -50.942  14.240  1.00  0.00    -0.166 F 
HETATM   16  F   UNL     1     -46.875 -52.710  13.018  1.00  0.00    -0.166 F 
ENDBRANCH  10  13
ENDBRANCH   5   6
ENDBRANCH   1   5
BRANCH   3  17
HETATM   17  C   UNL     1     -40.158 -51.970  12.930  1.00  0.00     0.170 C 
HETATM   18  C   UNL     1     -39.049 -51.129  13.587  1.00  0.00     0.034 C 
HETATM   19  C   UNL     1     -37.973 -50.707  12.579  1.00  0.00     0.004 C 
HETATM   20  C   UNL     1     -38.288 -49.487  11.702  1.00  0.00     0.015 C 
HETATM   21  C   UNL     1     -39.751 -49.226  11.336  1.00  0.00     0.095 C 
HETATM   22  N   UNL     1     -40.491 -50.437  11.045  1.00  0.00    -0.261 NA
HETATM   23  C   UNL     1     -41.095 -51.041  12.139  1.00  0.00     0.220 C 
HETATM   24  H   UNL     1     -39.967 -51.074  10.457  1.00  0.00     0.130 HD
HETATM   25  O   UNL     1     -42.225 -50.740  12.515  1.00  0.00    -0.278 OA
ENDBRANCH   3  17
TORSDOF 4
ENDMDL
MODEL 6
REMARK VINA RESULT:      -6.2      3.281      3.990
REMARK  4 active torsions:
REMARK  status: ('A' for Active; 'I' for Inactive)
REMARK    1  A    between atoms: C_2  and  C_5 
REMARK    2  A    between atoms: N_9  and  C_10 
REMARK    3  A    between atoms: C_10  and  C_11 
REMARK       I    between atoms: C_11  and  N_13 
REMARK    4  A    between atoms: N_13  and  C_14 
ROOT
HETATM    1  C   UNL     1     -41.313 -52.568  15.649  1.00  0.00     0.236 C 
HETATM    2  O   UNL     1     -40.414 -53.393  15.809  1.00  0.00    -0.272 OA
HETATM    3  N   UNL     1     -41.107 -51.362  15.006  1.00  0.00    -0.347 N 
HETATM    4  H   UNL     1     -41.927 -50.848  14.700  1.00  0.00     0.163 HD
ENDROOT
BRANCH   1   5
HETATM    5  C   UNL     1     -42.703 -52.762  16.270  1.00  0.00     0.234 C 
BRANCH   5   6
HETATM    6  N   UNL     1     -43.649 -53.193  15.237  1.00  0.00    -0.315 N 
HETATM    7  C   UNL     1     -43.873 -54.546  15.049  1.00  0.00     0.095 C 
HETATM    8  C   UNL     1     -44.777 -54.974  14.161  1.00  0.00     0.018 C 
HETATM    9  C   UNL     1     -45.600 -54.017  13.470  1.00  0.00     0.023 C 
HETATM   10  C   UNL     1     -45.419 -52.692  13.628  1.00  0.00     0.115 C 
HETATM   11  C   UNL     1     -44.316 -52.213  14.501  1.00  0.00     0.263 C 
HETATM   12  O   UNL     1     -44.025 -51.024  14.576  1.00  0.00    -0.267 OA
BRANCH  10  13
HETATM   13  C   UNL     1     -46.327 -51.679  13.035  1.00  0.00     0.422 C 
HETATM   14  F   UNL     1     -45.743 -50.645  12.387  1.00  0.00    -0.166 F 
HETATM   15  F   UNL     1     -47.104 -51.115  14.006  1.00  0.00    -0.166 F 
HETATM   16  F   UNL     1     -47.197 -52.245  12.154  1.00  0.00    -0.166 F 
ENDBRANCH  10  13
ENDBRANCH   5   6
ENDBRANCH   1   5
BRANCH   3  17
HETATM   17  C   UNL     1     -39.859 -51.112  14.288  1.00  0.00     0.170 C 
HETATM   18  C   UNL     1     -39.373 -49.669  14.510  1.00  0.00     0.034 C 
HETATM   19  C   UNL     1     -37.888 -49.501  14.166  1.00  0.00     0.004 C 
HETATM   20  C   UNL     1     -37.540 -49.320  12.682  1.00  0.00     0.015 C 
HETATM   21  C   UNL     1     -38.442 -49.995  11.646  1.00  0.00     0.095 C 
HETATM   22  N   UNL     1     -38.884 -51.315  12.047  1.00  0.00    -0.261 NA
HETATM   23  C   UNL     1     -40.061 -51.350  12.781  1.00  0.00     0.220 C 
HETATM   24  H   UNL     1     -38.132 -51.866  12.444  1.00  0.00     0.130 HD
HETATM   25  O   UNL     1     -41.165 -51.418  12.249  1.00  0.00    -0.278 OA
ENDBRANCH   3  17
TORSDOF 4
ENDMDL
MODEL 7
REMARK VINA RESULT:      -6.1      1.589      2.125
REMARK  4 active torsions:
REMARK  status: ('A' for Active; 'I' for Inactive)
REMARK    1  A    between atoms: C_2  and  C_5 
REMARK    2  A    between atoms: N_9  and  C_10 
REMARK    3  A    between atoms: C_10  and  C_11 
REMARK       I    between atoms: C_11  and  N_13 
REMARK    4  A    between atoms: N_13  and  C_14 
ROOT
HETATM    1  C   UNL     1     -41.344 -49.898  12.737  1.00  0.00     0.236 C 
HETATM    2  O   UNL     1     -40.933 -50.189  11.614  1.00  0.00    -0.272 OA
HETATM    3  N   UNL     1     -41.575 -48.592  13.127  1.00  0.00    -0.347 N 
HETATM    4  H   UNL     1     -42.132 -48.445  13.963  1.00  0.00     0.163 HD
ENDROOT
BRANCH   1   5
HETATM    5  C   UNL     1     -41.505 -50.959  13.834  1.00  0.00     0.234 C 
BRANCH   5   6
HETATM    6  N   UNL     1     -42.653 -51.816  13.527  1.00  0.00    -0.315 N 
HETATM    7  C   UNL     1     -42.431 -53.110  13.088  1.00  0.00     0.095 C 
HETATM    8  C   UNL     1     -43.453 -53.942  12.861  1.00  0.00     0.018 C 
HETATM    9  C   UNL     1     -44.793 -53.520  13.176  1.00  0.00     0.023 C 
HETATM   10  C   UNL     1     -45.053 -52.273  13.611  1.00  0.00     0.115 C 
HETATM   11  C   UNL     1     -43.935 -51.300  13.723  1.00  0.00     0.263 C 
HETATM   12  O   UNL     1     -44.134 -50.119  13.986  1.00  0.00    -0.267 OA
BRANCH  10  13
HETATM   13  C   UNL     1     -46.397 -51.843  14.068  1.00  0.00     0.422 C 
HETATM   14  F   UNL     1     -46.447 -51.107  15.202  1.00  0.00    -0.166 F 
HETATM   15  F   UNL     1     -47.189 -52.931  14.299  1.00  0.00    -0.166 F 
HETATM   16  F   UNL     1     -47.041 -51.121  13.111  1.00  0.00    -0.166 F 
ENDBRANCH  10  13
ENDBRANCH   5   6
ENDBRANCH   1   5
BRANCH   3  17
HETATM   17  C   UNL     1     -41.555 -47.514  12.142  1.00  0.00     0.170 C 
HETATM   18  C   UNL     1     -40.217 -46.754  12.182  1.00  0.00     0.034 C 
HETATM   19  C   UNL     1     -39.978 -45.939  10.905  1.00  0.00     0.004 C 
HETATM   20  C   UNL     1     -40.675 -44.574  10.816  1.00  0.00     0.015 C 
HETATM   21  C   UNL     1     -42.019 -44.407  11.530  1.00  0.00     0.095 C 
HETATM   22  N   UNL     1     -42.871 -45.574  11.421  1.00  0.00    -0.261 NA
HETATM   23  C   UNL     1     -42.703 -46.527  12.416  1.00  0.00     0.220 C 
HETATM   24  H   UNL     1     -42.883 -45.953  10.482  1.00  0.00     0.130 HD
HETATM   25  O   UNL     1     -43.321 -46.485  13.476  1.00  0.00    -0.278 OA
ENDBRANCH   3  17
TORSDOF 4
ENDMDL
MODEL 8
REMARK VINA RESULT:      -5.9      3.871      6.859
REMARK  4 active torsions:
REMARK  status: ('A' for Active; 'I' for Inactive)
REMARK    1  A    between atoms: C_2  and  C_5 
REMARK    2  A    between atoms: N_9  and  C_10 
REMARK    3  A    between atoms: C_10  and  C_11 
REMARK       I    between atoms: C_11  and  N_13 
REMARK    4  A    between atoms: N_13  and  C_14 
ROOT
HETATM    1  C   UNL     1     -41.762 -51.210  12.402  1.00  0.00     0.236 C 
HETATM    2  O   UNL     1     -41.436 -52.300  12.871  1.00  0.00    -0.272 OA
HETATM    3  N   UNL     1     -43.018 -50.666  12.594  1.00  0.00    -0.347 N 
HETATM    4  H   UNL     1     -43.137 -49.679  12.391  1.00  0.00     0.163 HD
ENDROOT
BRANCH   1   5
HETATM    5  C   UNL     1     -40.837 -50.431  11.457  1.00  0.00     0.234 C 
BRANCH   5   6
HETATM    6  N   UNL     1     -40.443 -49.167  12.082  1.00  0.00    -0.315 N 
HETATM    7  C   UNL     1     -39.798 -49.191  13.307  1.00  0.00     0.095 C 
HETATM    8  C   UNL     1     -39.365 -48.061  13.876  1.00  0.00     0.018 C 
HETATM    9  C   UNL     1     -39.478 -46.818  13.160  1.00  0.00     0.023 C 
HETATM   10  C   UNL     1     -40.093 -46.750  11.964  1.00  0.00     0.115 C 
HETATM   11  C   UNL     1     -40.706 -47.980  11.397  1.00  0.00     0.263 C 
HETATM   12  O   UNL     1     -41.389 -47.947  10.379  1.00  0.00    -0.267 OA
BRANCH  10  13
HETATM   13  C   UNL     1     -40.116 -45.518  11.138  1.00  0.00     0.422 C 
HETATM   14  F   UNL     1     -41.324 -45.112  10.685  1.00  0.00    -0.166 F 
HETATM   15  F   UNL     1     -39.339 -45.679  10.027  1.00  0.00    -0.166 F 
HETATM   16  F   UNL     1     -39.579 -44.461  11.808  1.00  0.00    -0.166 F 
ENDBRANCH  10  13
ENDBRANCH   5   6
ENDBRANCH   1   5
BRANCH   3  17
HETATM   17  C   UNL     1     -43.942 -51.265  13.555  1.00  0.00     0.170 C 
HETATM   18  C   UNL     1     -45.404 -51.057  13.119  1.00  0.00     0.034 C 
HETATM   19  C   UNL     1     -46.359 -52.025  13.827  1.00  0.00     0.004 C 
HETATM   20  C   UNL     1     -46.798 -51.647  15.248  1.00  0.00     0.015 C 
HETATM   21  C   UNL     1     -45.819 -50.850  16.113  1.00  0.00     0.095 C 
HETATM   22  N   UNL     1     -44.443 -51.275  15.956  1.00  0.00    -0.261 NA
HETATM   23  C   UNL     1     -43.736 -50.638  14.945  1.00  0.00     0.220 C 
HETATM   24  H   UNL     1     -44.352 -52.283  15.952  1.00  0.00     0.130 HD
HETATM   25  O   UNL     1     -43.127 -49.588  15.131  1.00  0.00    -0.278 OA
ENDBRANCH   3  17
TORSDOF 4
ENDMDL
MODEL 9
REMARK VINA RESULT:      -5.9      5.702      7.373
REMARK  4 active torsions:
REMARK  status: ('A' for Active; 'I' for Inactive)
REMARK    1  A    between atoms: C_2  and  C_5 
REMARK    2  A    between atoms: N_9  and  C_10 
REMARK    3  A    between atoms: C_10  and  C_11 
REMARK       I    between atoms: C_11  and  N_13 
REMARK    4  A    between atoms: N_13  and  C_14 
ROOT
HETATM    1  C   UNL     1     -46.828 -52.097  15.004  1.00  0.00     0.236 C 
HETATM    2  O   UNL     1     -47.010 -51.134  14.259  1.00  0.00    -0.272 OA
HETATM    3  N   UNL     1     -46.600 -51.953  16.360  1.00  0.00    -0.347 N 
HETATM    4  H   UNL     1     -46.700 -52.779  16.942  1.00  0.00     0.163 HD
ENDROOT
BRANCH   1   5
HETATM    5  C   UNL     1     -46.711 -53.526  14.458  1.00  0.00     0.234 C 
BRANCH   5   6
HETATM    6  N   UNL     1     -45.334 -53.779  14.028  1.00  0.00    -0.315 N 
HETATM    7  C   UNL     1     -44.948 -53.418  12.749  1.00  0.00     0.095 C 
HETATM    8  C   UNL     1     -43.683 -53.573  12.344  1.00  0.00     0.018 C 
HETATM    9  C   UNL     1     -42.689 -54.023  13.283  1.00  0.00     0.023 C 
HETATM   10  C   UNL     1     -43.020 -54.379  14.539  1.00  0.00     0.115 C 
HETATM   11  C   UNL     1     -44.449 -54.348  14.945  1.00  0.00     0.263 C 
HETATM   12  O   UNL     1     -44.818 -54.786  16.029  1.00  0.00    -0.267 OA
BRANCH  10  13
HETATM   13  C   UNL     1     -42.010 -54.723  15.571  1.00  0.00     0.422 C 
HETATM   14  F   UNL     1     -41.983 -53.945  16.677  1.00  0.00    -0.166 F 
HETATM   15  F   UNL     1     -40.753 -54.660  15.042  1.00  0.00    -0.166 F 
HETATM   16  F   UNL     1     -42.159 -56.005  16.004  1.00  0.00    -0.166 F 
ENDBRANCH  10  13
ENDBRANCH   5   6
ENDBRANCH   1   5
BRANCH   3  17
HETATM   17  C   UNL     1     -46.789 -50.656  17.006  1.00  0.00     0.170 C 
HETATM   18  C   UNL     1     -45.566 -50.281  17.862  1.00  0.00     0.034 C 
HETATM   19  C   UNL     1     -45.523 -48.782  18.180  1.00  0.00     0.004 C 
HETATM   20  C   UNL     1     -46.402 -48.298  19.343  1.00  0.00     0.015 C 
HETATM   21  C   UNL     1     -47.706 -49.050  19.617  1.00  0.00     0.095 C 
HETATM   22  N   UNL     1     -48.399 -49.450  18.410  1.00  0.00    -0.261 NA
HETATM   23  C   UNL     1     -48.040 -50.691  17.903  1.00  0.00     0.220 C 
HETATM   24  H   UNL     1     -48.421 -48.710  17.718  1.00  0.00     0.130 HD
HETATM   25  O   UNL     1     -48.587 -51.730  18.261  1.00  0.00    -0.278 OA
ENDBRANCH   3  17
TORSDOF 4
ENDMDL
