MODEL 1
REMARK VINA RESULT:      -5.8      0.000      0.000
REMARK  6 active torsions:
REMARK  status: ('A' for Active; 'I' for Inactive)
REMARK    1  A    between atoms: C_2  and  O_3 
REMARK    2  A    between atoms: O_3  and  C_4 
REMARK    3  A    between atoms: C_6  and  N_7 
REMARK    4  A    between atoms: N_7  and  C_8 
REMARK    5  A    between atoms: C_8  and  C_9 
REMARK    6  A    between atoms: C_9  and  C_10 
ROOT
HETATM    1  C   UNL     1     -43.771 -53.740  13.687  1.00  0.00     0.134 C 
HETATM    2  C   UNL     1     -43.669 -53.398  12.184  1.00  0.00     0.069 C 
HETATM    3  C   UNL     1     -42.618 -52.329  12.573  1.00  0.00     0.234 C 
HETATM    4  C   UNL     1     -42.257 -53.256  13.808  1.00  0.00     0.017 C 
HETATM    5  C   UNL     1     -42.028 -52.549  15.159  1.00  0.00     0.014 C 
HETATM    6  C   UNL     1     -40.583 -52.089  15.312  1.00  0.00     0.001 C 
HETATM    7  C   UNL     1     -39.595 -53.239  15.139  1.00  0.00     0.000 C 
HETATM    8  C   UNL     1     -39.818 -53.965  13.817  1.00  0.00     0.001 C 
HETATM    9  C   UNL     1     -41.266 -54.431  13.659  1.00  0.00     0.014 C 
ENDROOT
BRANCH   3  10
HETATM   10  N   UNL     1     -41.579 -52.280  11.533  1.00  0.00     0.089 N 
HETATM   11  H   UNL     1     -41.918 -52.387  10.580  1.00  0.00     0.316 HD
BRANCH  10  12
HETATM   12  C   UNL     1     -40.844 -51.004  11.644  1.00  0.00     0.278 C 
BRANCH  12  13
HETATM   13  C   UNL     1     -41.687 -49.884  12.258  1.00  0.00     0.117 C 
BRANCH  13  14
HETATM   14  C   UNL     1     -41.854 -48.782  11.278  1.00  0.00     0.149 A 
HETATM   15  N   UNL     1     -42.918 -48.420  10.600  1.00  0.00    -0.327 N 
HETATM   16  C   UNL     1     -42.467 -47.314   9.925  1.00  0.00     0.100 A 
ATOM     17  HN  UNL     1     -43.843 -48.851  10.580  1.00  0.00     0.169 HD
HETATM   18  C   UNL     1     -43.323 -46.526   9.019  1.00  0.00     0.091 C 
HETATM   19  N   UNL     1     -41.190 -46.990  10.167  1.00  0.00    -0.248 N 
HETATM   20  O   UNL     1     -40.777 -47.971  11.071  1.00  0.00    -0.223 OA
ATOM     21  HN  UNL     1     -40.650 -46.215   9.783  1.00  0.00     0.196 HD
ENDBRANCH  13  14
ENDBRANCH  12  13
ENDBRANCH  10  12
ENDBRANCH   3  10
BRANCH   1  22
HETATM   22  O   UNL     1     -44.741 -52.973  14.445  1.00  0.00    -0.385 OA
BRANCH  22  23
HETATM   23  C   UNL     1     -46.078 -52.948  13.954  1.00  0.00     0.163 C 
HETATM   24  C   UNL     1     -46.481 -51.505  13.730  1.00  0.00     0.033 C 
ENDBRANCH  22  23
ENDBRANCH   1  22
TORSDOF 6
ENDMDL
MODEL 2
REMARK VINA RESULT:      -5.7      2.715      3.960
REMARK  6 active torsions:
REMARK  status: ('A' for Active; 'I' for Inactive)
REMARK    1  A    between atoms: C_2  and  O_3 
REMARK    2  A    between atoms: O_3  and  C_4 
REMARK    3  A    between atoms: C_6  and  N_7 
REMARK    4  A    between atoms: N_7  and  C_8 
REMARK    5  A    between atoms: C_8  and  C_9 
REMARK    6  A    between atoms: C_9  and  C_10 
ROOT
HETATM    1  C   UNL     1     -40.166 -52.509  13.216  1.00  0.00     0.134 C 
HETATM    2  C   UNL     1     -41.023 -52.289  11.950  1.00  0.00     0.069 C 
HETATM    3  C   UNL     1     -41.155 -50.808  12.385  1.00  0.00     0.234 C 
HETATM    4  C   UNL     1     -39.743 -50.977  13.088  1.00  0.00     0.017 C 
HETATM    5  C   UNL     1     -39.586 -50.346  14.485  1.00  0.00     0.014 C 
HETATM    6  C   UNL     1     -39.166 -48.884  14.396  1.00  0.00     0.001 C 
HETATM    7  C   UNL     1     -37.886 -48.706  13.585  1.00  0.00     0.000 C 
HETATM    8  C   UNL     1     -38.012 -49.341  12.205  1.00  0.00     0.001 C 
HETATM    9  C   UNL     1     -38.432 -50.809  12.289  1.00  0.00     0.014 C 
ENDROOT
BRANCH   3  10
HETATM   10  N   UNL     1     -41.134 -49.954  11.188  1.00  0.00     0.089 N 
HETATM   11  H   UNL     1     -41.440 -50.408  10.329  1.00  0.00     0.316 HD
BRANCH  10  12
HETATM   12  C   UNL     1     -41.971 -48.761  11.430  1.00  0.00     0.278 C 
BRANCH  12  13
HETATM   13  C   UNL     1     -41.955 -47.778  10.257  1.00  0.00     0.117 C 
BRANCH  13  14
HETATM   14  C   UNL     1     -43.282 -47.762   9.593  1.00  0.00     0.149 A 
HETATM   15  N   UNL     1     -44.478 -47.630  10.117  1.00  0.00    -0.327 N 
HETATM   16  C   UNL     1     -45.282 -47.628   9.005  1.00  0.00     0.100 A 
ATOM     17  HN  UNL     1     -44.743 -47.550  11.099  1.00  0.00     0.169 HD
HETATM   18  C   UNL     1     -46.748 -47.486   9.078  1.00  0.00     0.091 C 
HETATM   19  N   UNL     1     -44.630 -47.746   7.841  1.00  0.00    -0.248 N 
HETATM   20  O   UNL     1     -43.292 -47.837   8.231  1.00  0.00    -0.223 OA
ATOM     21  HN  UNL     1     -45.017 -47.766   6.897  1.00  0.00     0.196 HD
ENDBRANCH  13  14
ENDBRANCH  12  13
ENDBRANCH  10  12
ENDBRANCH   3  10
BRANCH   1  22
HETATM   22  O   UNL     1     -40.894 -52.863  14.419  1.00  0.00    -0.385 OA
BRANCH  22  23
HETATM   23  C   UNL     1     -40.680 -54.168  14.948  1.00  0.00     0.163 C 
HETATM   24  C   UNL     1     -39.595 -54.089  16.001  1.00  0.00     0.033 C 
ENDBRANCH  22  23
ENDBRANCH   1  22
TORSDOF 6
ENDMDL
MODEL 3
REMARK VINA RESULT:      -5.7      2.252      2.639
REMARK  6 active torsions:
REMARK  status: ('A' for Active; 'I' for Inactive)
REMARK    1  A    between atoms: C_2  and  O_3 
REMARK    2  A    between atoms: O_3  and  C_4 
REMARK    3  A    between atoms: C_6  and  N_7 
REMARK    4  A    between atoms: N_7  and  C_8 
REMARK    5  A    between atoms: C_8  and  C_9 
REMARK    6  A    between atoms: C_9  and  C_10 
ROOT
HETATM    1  C   UNL     1     -44.144 -54.536  13.906  1.00  0.00     0.134 C 
HETATM    2  C   UNL     1     -44.678 -53.516  12.876  1.00  0.00     0.069 C 
HETATM    3  C   UNL     1     -43.787 -52.457  13.571  1.00  0.00     0.234 C 
HETATM    4  C   UNL     1     -42.819 -53.651  13.962  1.00  0.00     0.017 C 
HETATM    5  C   UNL     1     -42.246 -53.636  15.393  1.00  0.00     0.014 C 
HETATM    6  C   UNL     1     -40.968 -52.811  15.476  1.00  0.00     0.001 C 
HETATM    7  C   UNL     1     -39.912 -53.291  14.485  1.00  0.00     0.000 C 
HETATM    8  C   UNL     1     -40.465 -53.333  13.064  1.00  0.00     0.001 C 
HETATM    9  C   UNL     1     -41.747 -54.161  12.975  1.00  0.00     0.014 C 
ENDROOT
BRANCH   3  10
HETATM   10  N   UNL     1     -43.241 -51.548  12.552  1.00  0.00     0.089 N 
HETATM   11  H   UNL     1     -43.701 -51.590  11.646  1.00  0.00     0.316 HD
BRANCH  10  12
HETATM   12  C   UNL     1     -43.298 -50.162  13.060  1.00  0.00     0.278 C 
BRANCH  12  13
HETATM   13  C   UNL     1     -41.992 -49.719  13.723  1.00  0.00     0.117 C 
BRANCH  13  14
HETATM   14  C   UNL     1     -40.884 -49.763  12.737  1.00  0.00     0.149 A 
HETATM   15  N   UNL     1     -39.587 -49.767  12.936  1.00  0.00    -0.327 N 
HETATM   16  C   UNL     1     -39.099 -49.882  11.659  1.00  0.00     0.100 A 
ATOM     17  HN  UNL     1     -39.073 -49.703  13.815  1.00  0.00     0.169 HD
HETATM   18  C   UNL     1     -37.657 -49.945  11.357  1.00  0.00     0.091 C 
HETATM   19  N   UNL     1     -40.036 -49.951  10.704  1.00  0.00    -0.248 N 
HETATM   20  O   UNL     1     -41.231 -49.870  11.422  1.00  0.00    -0.223 OA
ATOM     21  HN  UNL     1     -39.907 -50.040   9.696  1.00  0.00     0.196 HD
ENDBRANCH  13  14
ENDBRANCH  12  13
ENDBRANCH  10  12
ENDBRANCH   3  10
BRANCH   1  22
HETATM   22  O   UNL     1     -44.892 -54.632  15.145  1.00  0.00    -0.385 OA
BRANCH  22  23
HETATM   23  C   UNL     1     -46.265 -54.257  15.107  1.00  0.00     0.163 C 
HETATM   24  C   UNL     1     -46.469 -53.081  16.038  1.00  0.00     0.033 C 
ENDBRANCH  22  23
ENDBRANCH   1  22
TORSDOF 6
ENDMDL
MODEL 4
REMARK VINA RESULT:      -5.6      2.084      2.852
REMARK  6 active torsions:
REMARK  status: ('A' for Active; 'I' for Inactive)
REMARK    1  A    between atoms: C_2  and  O_3 
REMARK    2  A    between atoms: O_3  and  C_4 
REMARK    3  A    between atoms: C_6  and  N_7 
REMARK    4  A    between atoms: N_7  and  C_8 
REMARK    5  A    between atoms: C_8  and  C_9 
REMARK    6  A    between atoms: C_9  and  C_10 
ROOT
HETATM    1  C   UNL     1     -46.666 -52.147  14.755  1.00  0.00     0.134 C 
HETATM    2  C   UNL     1     -46.390 -51.585  13.344  1.00  0.00     0.069 C 
HETATM    3  C   UNL     1     -44.884 -51.612  13.706  1.00  0.00     0.234 C 
HETATM    4  C   UNL     1     -45.225 -52.824  14.670  1.00  0.00     0.017 C 
HETATM    5  C   UNL     1     -44.548 -52.818  16.055  1.00  0.00     0.014 C 
HETATM    6  C   UNL     1     -43.173 -53.475  16.009  1.00  0.00     0.001 C 
HETATM    7  C   UNL     1     -43.237 -54.895  15.453  1.00  0.00     0.000 C 
HETATM    8  C   UNL     1     -43.922 -54.926  14.092  1.00  0.00     0.001 C 
HETATM    9  C   UNL     1     -45.302 -54.270  14.133  1.00  0.00     0.014 C 
ENDROOT
BRANCH   3  10
HETATM   10  N   UNL     1     -44.112 -51.989  12.513  1.00  0.00     0.089 N 
HETATM   11  H   UNL     1     -44.510 -51.684  11.627  1.00  0.00     0.316 HD
BRANCH  10  12
HETATM   12  C   UNL     1     -42.740 -51.457  12.636  1.00  0.00     0.278 C 
BRANCH  12  13
HETATM   13  C   UNL     1     -42.710 -49.970  12.998  1.00  0.00     0.117 C 
BRANCH  13  14
HETATM   14  C   UNL     1     -42.620 -49.151  11.763  1.00  0.00     0.149 A 
HETATM   15  N   UNL     1     -43.495 -48.321  11.245  1.00  0.00    -0.327 N 
HETATM   16  C   UNL     1     -42.817 -47.830  10.158  1.00  0.00     0.100 A 
ATOM     17  HN  UNL     1     -44.437 -48.098  11.567  1.00  0.00     0.169 HD
HETATM   18  C   UNL     1     -43.393 -46.828   9.243  1.00  0.00     0.091 C 
HETATM   19  N   UNL     1     -41.580 -48.319   9.999  1.00  0.00    -0.248 N 
HETATM   20  O   UNL     1     -41.446 -49.203  11.071  1.00  0.00    -0.223 OA
ATOM     21  HN  UNL     1     -40.900 -48.098   9.271  1.00  0.00     0.196 HD
ENDBRANCH  13  14
ENDBRANCH  12  13
ENDBRANCH  10  12
ENDBRANCH   3  10
BRANCH   1  22
HETATM   22  O   UNL     1     -46.838 -51.162  15.806  1.00  0.00    -0.385 OA
BRANCH  22  23
HETATM   23  C   UNL     1     -47.936 -51.344  16.694  1.00  0.00     0.163 C 
HETATM   24  C   UNL     1     -47.727 -50.459  17.906  1.00  0.00     0.033 C 
ENDBRANCH  22  23
ENDBRANCH   1  22
TORSDOF 6
ENDMDL
MODEL 5
REMARK VINA RESULT:      -5.6      2.437      3.151
REMARK  6 active torsions:
REMARK  status: ('A' for Active; 'I' for Inactive)
REMARK    1  A    between atoms: C_2  and  O_3 
REMARK    2  A    between atoms: O_3  and  C_4 
REMARK    3  A    between atoms: C_6  and  N_7 
REMARK    4  A    between atoms: N_7  and  C_8 
REMARK    5  A    between atoms: C_8  and  C_9 
REMARK    6  A    between atoms: C_9  and  C_10 
ROOT
HETATM    1  C   UNL     1     -46.122 -52.565  14.224  1.00  0.00     0.134 C 
HETATM    2  C   UNL     1     -45.850 -52.526  12.704  1.00  0.00     0.069 C 
HETATM    3  C   UNL     1     -44.361 -52.278  13.051  1.00  0.00     0.234 C 
HETATM    4  C   UNL     1     -44.625 -53.088  14.388  1.00  0.00     0.017 C 
HETATM    5  C   UNL     1     -43.997 -52.520  15.676  1.00  0.00     0.014 C 
HETATM    6  C   UNL     1     -42.569 -53.016  15.870  1.00  0.00     0.001 C 
HETATM    7  C   UNL     1     -42.488 -54.540  15.865  1.00  0.00     0.000 C 
HETATM    8  C   UNL     1     -43.122 -55.124  14.608  1.00  0.00     0.001 C 
HETATM    9  C   UNL     1     -44.556 -54.631  14.410  1.00  0.00     0.014 C 
ENDROOT
BRANCH   3  10
HETATM   10  N   UNL     1     -43.518 -52.985  12.074  1.00  0.00     0.089 N 
HETATM   11  H   UNL     1     -43.853 -52.953  11.113  1.00  0.00     0.316 HD
BRANCH  10  12
HETATM   12  C   UNL     1     -42.149 -52.435  12.128  1.00  0.00     0.278 C 
BRANCH  12  13
HETATM   13  C   UNL     1     -42.121 -50.948  12.490  1.00  0.00     0.117 C 
BRANCH  13  14
HETATM   14  C   UNL     1     -40.821 -50.354  12.088  1.00  0.00     0.149 A 
HETATM   15  N   UNL     1     -39.639 -50.916  11.992  1.00  0.00    -0.327 N 
HETATM   16  C   UNL     1     -38.867 -49.886  11.517  1.00  0.00     0.100 A 
ATOM     17  HN  UNL     1     -39.364 -51.873  12.214  1.00  0.00     0.169 HD
HETATM   18  C   UNL     1     -37.429 -50.032  11.227  1.00  0.00     0.091 C 
HETATM   19  N   UNL     1     -39.526 -48.737  11.318  1.00  0.00    -0.248 N 
HETATM   20  O   UNL     1     -40.832 -49.047  11.700  1.00  0.00    -0.223 OA
ATOM     21  HN  UNL     1     -39.161 -47.849  10.971  1.00  0.00     0.196 HD
ENDBRANCH  13  14
ENDBRANCH  12  13
ENDBRANCH  10  12
ENDBRANCH   3  10
BRANCH   1  22
HETATM   22  O   UNL     1     -46.415 -51.288  14.847  1.00  0.00    -0.385 OA
BRANCH  22  23
HETATM   23  C   UNL     1     -47.350 -51.289  15.922  1.00  0.00     0.163 C 
HETATM   24  C   UNL     1     -46.701 -50.641  17.126  1.00  0.00     0.033 C 
ENDBRANCH  22  23
ENDBRANCH   1  22
TORSDOF 6
ENDMDL
MODEL 6
REMARK VINA RESULT:      -5.5      1.319      1.547
REMARK  6 active torsions:
REMARK  status: ('A' for Active; 'I' for Inactive)
REMARK    1  A    between atoms: C_2  and  O_3 
REMARK    2  A    between atoms: O_3  and  C_4 
REMARK    3  A    between atoms: C_6  and  N_7 
REMARK    4  A    between atoms: N_7  and  C_8 
REMARK    5  A    between atoms: C_8  and  C_9 
REMARK    6  A    between atoms: C_9  and  C_10 
ROOT
HETATM    1  C   UNL     1     -44.427 -52.686  14.314  1.00  0.00     0.134 C 
HETATM    2  C   UNL     1     -44.461 -51.743  13.092  1.00  0.00     0.069 C 
HETATM    3  C   UNL     1     -43.004 -51.352  13.444  1.00  0.00     0.234 C 
HETATM    4  C   UNL     1     -42.856 -52.802  14.068  1.00  0.00     0.017 C 
HETATM    5  C   UNL     1     -42.110 -52.902  15.413  1.00  0.00     0.014 C 
HETATM    6  C   UNL     1     -40.605 -53.031  15.211  1.00  0.00     0.001 C 
HETATM    7  C   UNL     1     -40.247 -54.213  14.314  1.00  0.00     0.000 C 
HETATM    8  C   UNL     1     -40.991 -54.144  12.985  1.00  0.00     0.001 C 
HETATM    9  C   UNL     1     -42.502 -54.016  13.183  1.00  0.00     0.014 C 
ENDROOT
BRANCH   3  10
HETATM   10  N   UNL     1     -42.248 -51.151  12.198  1.00  0.00     0.089 N 
HETATM   11  H   UNL     1     -42.787 -50.769  11.424  1.00  0.00     0.316 HD
BRANCH  10  12
HETATM   12  C   UNL     1     -41.096 -50.267  12.469  1.00  0.00     0.278 C 
BRANCH  12  13
HETATM   13  C   UNL     1     -40.637 -49.495  11.230  1.00  0.00     0.117 C 
BRANCH  13  14
HETATM   14  C   UNL     1     -41.762 -48.689  10.691  1.00  0.00     0.149 A 
HETATM   15  N   UNL     1     -41.927 -48.182   9.492  1.00  0.00    -0.327 N 
HETATM   16  C   UNL     1     -43.171 -47.611   9.590  1.00  0.00     0.100 A 
ATOM     17  HN  UNL     1     -41.294 -48.205   8.692  1.00  0.00     0.169 HD
HETATM   18  C   UNL     1     -43.820 -46.911   8.466  1.00  0.00     0.091 C 
HETATM   19  N   UNL     1     -43.762 -47.753  10.783  1.00  0.00    -0.248 N 
HETATM   20  O   UNL     1     -42.822 -48.473  11.522  1.00  0.00    -0.223 OA
ATOM     21  HN  UNL     1     -44.678 -47.417  11.081  1.00  0.00     0.196 HD
ENDBRANCH  13  14
ENDBRANCH  12  13
ENDBRANCH  10  12
ENDBRANCH   3  10
BRANCH   1  22
HETATM   22  O   UNL     1     -44.826 -52.098  15.578  1.00  0.00    -0.385 OA
BRANCH  22  23
HETATM   23  C   UNL     1     -45.845 -51.103  15.540  1.00  0.00     0.163 C 
HETATM   24  C   UNL     1     -47.189 -51.786  15.684  1.00  0.00     0.033 C 
ENDBRANCH  22  23
ENDBRANCH   1  22
TORSDOF 6
ENDMDL
MODEL 7
REMARK VINA RESULT:      -5.5      2.747      6.693
REMARK  6 active torsions:
REMARK  status: ('A' for Active; 'I' for Inactive)
REMARK    1  A    between atoms: C_2  and  O_3 
REMARK    2  A    between atoms: O_3  and  C_4 
REMARK    3  A    between atoms: C_6  and  N_7 
REMARK    4  A    between atoms: N_7  and  C_8 
REMARK    5  A    between atoms: C_8  and  C_9 
REMARK    6  A    between atoms: C_9  and  C_10 
ROOT
HETATM    1  C   UNL     1     -43.169 -47.106  10.899  1.00  0.00     0.134 C 
HETATM    2  C   UNL     1     -42.800 -48.417  11.628  1.00  0.00     0.069 C 
HETATM    3  C   UNL     1     -41.317 -48.074  11.339  1.00  0.00     0.234 C 
HETATM    4  C   UNL     1     -41.751 -46.549  11.369  1.00  0.00     0.017 C 
HETATM    5  C   UNL     1     -41.147 -45.636  10.284  1.00  0.00     0.014 C 
HETATM    6  C   UNL     1     -39.797 -45.075  10.712  1.00  0.00     0.001 C 
HETATM    7  C   UNL     1     -39.883 -44.334  12.043  1.00  0.00     0.000 C 
HETATM    8  C   UNL     1     -40.497 -45.213  13.127  1.00  0.00     0.001 C 
HETATM    9  C   UNL     1     -41.853 -45.778  12.703  1.00  0.00     0.014 C 
ENDROOT
BRANCH   3  10
HETATM   10  N   UNL     1     -40.498 -48.491  12.487  1.00  0.00     0.089 N 
HETATM   11  H   UNL     1     -40.915 -49.208  13.077  1.00  0.00     0.316 HD
BRANCH  10  12
HETATM   12  C   UNL     1     -39.188 -48.967  11.999  1.00  0.00     0.278 C 
BRANCH  12  13
HETATM   13  C   UNL     1     -38.705 -50.224  12.726  1.00  0.00     0.117 C 
BRANCH  13  14
HETATM   14  C   UNL     1     -39.684 -51.325  12.539  1.00  0.00     0.149 A 
HETATM   15  N   UNL     1     -39.998 -52.311  13.346  1.00  0.00    -0.327 N 
HETATM   16  C   UNL     1     -40.995 -52.946  12.649  1.00  0.00     0.100 A 
ATOM     17  HN  UNL     1     -39.603 -52.545  14.256  1.00  0.00     0.169 HD
HETATM   18  C   UNL     1     -41.695 -54.138  13.164  1.00  0.00     0.091 C 
HETATM   19  N   UNL     1     -41.299 -52.390  11.469  1.00  0.00    -0.248 N 
HETATM   20  O   UNL     1     -40.423 -51.306  11.392  1.00  0.00    -0.223 OA
ATOM     21  HN  UNL     1     -42.000 -52.687  10.791  1.00  0.00     0.196 HD
ENDBRANCH  13  14
ENDBRANCH  12  13
ENDBRANCH  10  12
ENDBRANCH   3  10
BRANCH   1  22
HETATM   22  O   UNL     1     -43.360 -47.213   9.464  1.00  0.00    -0.385 OA
BRANCH  22  23
HETATM   23  C   UNL     1     -44.497 -46.558   8.909  1.00  0.00     0.163 C 
HETATM   24  C   UNL     1     -45.734 -47.355   9.268  1.00  0.00     0.033 C 
ENDBRANCH  22  23
ENDBRANCH   1  22
TORSDOF 6
ENDMDL
MODEL 8
REMARK VINA RESULT:      -5.5      3.036      4.879
REMARK  6 active torsions:
REMARK  status: ('A' for Active; 'I' for Inactive)
REMARK    1  A    between atoms: C_2  and  O_3 
REMARK    2  A    between atoms: O_3  and  C_4 
REMARK    3  A    between atoms: C_6  and  N_7 
REMARK    4  A    between atoms: N_7  and  C_8 
REMARK    5  A    between atoms: C_8  and  C_9 
REMARK    6  A    between atoms: C_9  and  C_10 
ROOT
HETATM    1  C   UNL     1     -46.931 -52.376  15.480  1.00  0.00     0.134 C 
HETATM    2  C   UNL     1     -46.782 -51.371  14.317  1.00  0.00     0.069 C 
HETATM    3  C   UNL     1     -45.249 -51.510  14.490  1.00  0.00     0.234 C 
HETATM    4  C   UNL     1     -45.527 -52.977  15.022  1.00  0.00     0.017 C 
HETATM    5  C   UNL     1     -44.714 -53.433  16.250  1.00  0.00     0.014 C 
HETATM    6  C   UNL     1     -43.371 -54.028  15.843  1.00  0.00     0.001 C 
HETATM    7  C   UNL     1     -43.533 -55.179  14.854  1.00  0.00     0.000 C 
HETATM    8  C   UNL     1     -44.352 -54.755  13.640  1.00  0.00     0.001 C 
HETATM    9  C   UNL     1     -45.701 -54.158  14.043  1.00  0.00     0.014 C 
ENDROOT
BRANCH   3  10
HETATM   10  N   UNL     1     -44.612 -51.459  13.165  1.00  0.00     0.089 N 
HETATM   11  H   UNL     1     -45.252 -51.324  12.384  1.00  0.00     0.316 HD
BRANCH  10  12
HETATM   12  C   UNL     1     -43.602 -50.382  13.154  1.00  0.00     0.278 C 
BRANCH  12  13
HETATM   13  C   UNL     1     -42.462 -50.628  14.146  1.00  0.00     0.117 C 
BRANCH  13  14
HETATM   14  C   UNL     1     -41.669 -51.810  13.722  1.00  0.00     0.149 A 
HETATM   15  N   UNL     1     -40.730 -52.461  14.367  1.00  0.00    -0.327 N 
HETATM   16  C   UNL     1     -40.433 -53.478  13.495  1.00  0.00     0.100 A 
ATOM     17  HN  UNL     1     -40.324 -52.262  15.281  1.00  0.00     0.169 HD
HETATM   18  C   UNL     1     -39.421 -54.510  13.784  1.00  0.00     0.091 C 
HETATM   19  N   UNL     1     -41.149 -53.473  12.362  1.00  0.00    -0.248 N 
HETATM   20  O   UNL     1     -41.976 -52.358  12.512  1.00  0.00    -0.223 OA
ATOM     21  HN  UNL     1     -41.102 -54.127  11.580  1.00  0.00     0.196 HD
ENDBRANCH  13  14
ENDBRANCH  12  13
ENDBRANCH  10  12
ENDBRANCH   3  10
BRANCH   1  22
HETATM   22  O   UNL     1     -46.967 -51.802  16.812  1.00  0.00    -0.385 OA
BRANCH  22  23
HETATM   23  C   UNL     1     -48.072 -50.961  17.128  1.00  0.00     0.163 C 
HETATM   24  C   UNL     1     -48.464 -51.201  18.571  1.00  0.00     0.033 C 
ENDBRANCH  22  23
ENDBRANCH   1  22
TORSDOF 6
ENDMDL
MODEL 9
REMARK VINA RESULT:      -5.5      1.124      1.326
REMARK  6 active torsions:
REMARK  status: ('A' for Active; 'I' for Inactive)
REMARK    1  A    between atoms: C_2  and  O_3 
REMARK    2  A    between atoms: O_3  and  C_4 
REMARK    3  A    between atoms: C_6  and  N_7 
REMARK    4  A    between atoms: N_7  and  C_8 
REMARK    5  A    between atoms: C_8  and  C_9 
REMARK    6  A    between atoms: C_9  and  C_10 
ROOT
HETATM    1  C   UNL     1     -43.697 -53.258  13.833  1.00  0.00     0.134 C 
HETATM    2  C   UNL     1     -43.637 -52.925  12.326  1.00  0.00     0.069 C 
HETATM    3  C   UNL     1     -42.394 -52.056  12.641  1.00  0.00     0.234 C 
HETATM    4  C   UNL     1     -42.117 -53.041  13.852  1.00  0.00     0.017 C 
HETATM    5  C   UNL     1     -41.682 -52.397  15.183  1.00  0.00     0.014 C 
HETATM    6  C   UNL     1     -40.173 -52.192  15.239  1.00  0.00     0.001 C 
HETATM    7  C   UNL     1     -39.411 -53.493  15.003  1.00  0.00     0.000 C 
HETATM    8  C   UNL     1     -39.841 -54.159  13.701  1.00  0.00     0.001 C 
HETATM    9  C   UNL     1     -41.355 -54.368  13.640  1.00  0.00     0.014 C 
ENDROOT
BRANCH   3  10
HETATM   10  N   UNL     1     -41.433 -52.176  11.534  1.00  0.00     0.089 N 
HETATM   11  H   UNL     1     -41.849 -52.245  10.608  1.00  0.00     0.316 HD
BRANCH  10  12
HETATM   12  C   UNL     1     -40.511 -51.023  11.567  1.00  0.00     0.278 C 
BRANCH  12  13
HETATM   13  C   UNL     1     -41.021 -49.880  12.448  1.00  0.00     0.117 C 
BRANCH  13  14
HETATM   14  C   UNL     1     -40.936 -48.596  11.709  1.00  0.00     0.149 A 
HETATM   15  N   UNL     1     -40.185 -47.545  11.943  1.00  0.00    -0.327 N 
HETATM   16  C   UNL     1     -40.507 -46.721  10.893  1.00  0.00     0.100 A 
ATOM     17  HN  UNL     1     -39.530 -47.382  12.707  1.00  0.00     0.169 HD
HETATM   18  C   UNL     1     -39.897 -45.393  10.703  1.00  0.00     0.091 C 
HETATM   19  N   UNL     1     -41.409 -47.225  10.040  1.00  0.00    -0.248 N 
HETATM   20  O   UNL     1     -41.698 -48.478  10.584  1.00  0.00    -0.223 OA
ATOM     21  HN  UNL     1     -41.791 -46.797   9.197  1.00  0.00     0.196 HD
ENDBRANCH  13  14
ENDBRANCH  12  13
ENDBRANCH  10  12
ENDBRANCH   3  10
BRANCH   1  22
HETATM   22  O   UNL     1     -44.469 -52.342  14.652  1.00  0.00    -0.385 OA
BRANCH  22  23
HETATM   23  C   UNL     1     -45.866 -52.591  14.765  1.00  0.00     0.163 C 
HETATM   24  C   UNL     1     -46.614 -51.447  14.113  1.00  0.00     0.033 C 
ENDBRANCH  22  23
ENDBRANCH   1  22
TORSDOF 6
ENDMDL
