MODEL 1
REMARK VINA RESULT:      -5.3      0.000      0.000
REMARK  4 active torsions:
REMARK  status: ('A' for Active; 'I' for Inactive)
REMARK    1  A    between atoms: C_4  and  C_5 
REMARK    2  A    between atoms: C_5  and  S_6 
REMARK    3  A    between atoms: S_6  and  N_9 
REMARK    4  A    between atoms: N_9  and  C_10 
ROOT
HETATM    1  S   UNL     1     -38.212 -51.026  12.972  1.00  0.00     0.215 S 
HETATM    2  O   UNL     1     -36.990 -51.690  12.574  1.00  0.00    -0.211 OA
HETATM    3  O   UNL     1     -38.623 -50.943  14.355  1.00  0.00    -0.211 OA
ENDROOT
BRANCH   1   4
HETATM    4  C   UNL     1     -38.245 -49.374  12.258  1.00  0.00     0.224 C 
BRANCH   4   5
HETATM    5  C   UNL     1     -39.641 -49.096  11.867  1.00  0.00     0.093 A 
HETATM    6  C   UNL     1     -40.710 -48.489  12.481  1.00  0.00     0.062 A 
HETATM    7  C   UNL     1     -41.724 -48.487  11.500  1.00  0.00     0.031 A 
HETATM    8  C   UNL     1     -43.075 -47.893  11.587  1.00  0.00     0.070 C 
HETATM    9  N   UNL     1     -41.320 -49.104  10.383  1.00  0.00    -0.266 N 
HETATM   10  O   UNL     1     -40.009 -49.483  10.615  1.00  0.00    -0.241 OA
ATOM     11  HN  UNL     1     -41.865 -49.263   9.537  1.00  0.00     0.194 HD
ENDBRANCH   4   5
ENDBRANCH   1   4
BRANCH   1  12
HETATM   12  N   UNL     1     -39.457 -51.794  12.105  1.00  0.00    -0.215 NA
HETATM   13  H   UNL     1     -39.055 -52.514  11.500  1.00  0.00     0.140 HD
BRANCH  12  14
HETATM   14  C   UNL     1     -40.616 -52.375  12.849  1.00  0.00     0.071 C 
HETATM   15  C   UNL     1     -41.948 -52.197  12.117  1.00  0.00     0.020 C 
HETATM   16  C   UNL     1     -43.112 -52.633  13.007  1.00  0.00     0.002 C 
HETATM   17  C   UNL     1     -42.929 -54.057  13.531  1.00  0.00     0.000 C 
HETATM   18  C   UNL     1     -41.562 -54.271  14.184  1.00  0.00     0.002 C 
HETATM   19  C   UNL     1     -40.419 -53.833  13.264  1.00  0.00     0.020 C 
ENDBRANCH  12  14
ENDBRANCH   1  12
TORSDOF 4
ENDMDL
MODEL 2
REMARK VINA RESULT:      -5.2      3.640      5.062
REMARK  4 active torsions:
REMARK  status: ('A' for Active; 'I' for Inactive)
REMARK    1  A    between atoms: C_4  and  C_5 
REMARK    2  A    between atoms: C_5  and  S_6 
REMARK    3  A    between atoms: S_6  and  N_9 
REMARK    4  A    between atoms: N_9  and  C_10 
ROOT
HETATM    1  S   UNL     1     -42.495 -54.803  15.643  1.00  0.00     0.215 S 
HETATM    2  O   UNL     1     -42.796 -56.179  15.972  1.00  0.00    -0.211 OA
HETATM    3  O   UNL     1     -42.702 -53.728  16.587  1.00  0.00    -0.211 OA
ENDROOT
BRANCH   1   4
HETATM    4  C   UNL     1     -40.813 -54.701  15.011  1.00  0.00     0.224 C 
BRANCH   4   5
HETATM    5  C   UNL     1     -40.823 -53.727  13.901  1.00  0.00     0.093 A 
HETATM    6  C   UNL     1     -40.696 -52.362  13.818  1.00  0.00     0.062 A 
HETATM    7  C   UNL     1     -40.712 -52.091  12.433  1.00  0.00     0.031 A 
HETATM    8  C   UNL     1     -40.538 -50.788  11.758  1.00  0.00     0.070 C 
HETATM    9  N   UNL     1     -40.895 -53.210  11.723  1.00  0.00    -0.266 N 
HETATM   10  O   UNL     1     -40.961 -54.237  12.647  1.00  0.00    -0.241 OA
ATOM     11  HN  UNL     1     -40.972 -53.289  10.709  1.00  0.00     0.194 HD
ENDBRANCH   4   5
ENDBRANCH   1   4
BRANCH   1  12
HETATM   12  N   UNL     1     -43.402 -54.453  14.249  1.00  0.00    -0.215 NA
HETATM   13  H   UNL     1     -43.867 -55.304  13.924  1.00  0.00     0.140 HD
BRANCH  12  14
HETATM   14  C   UNL     1     -44.398 -53.339  14.283  1.00  0.00     0.071 C 
HETATM   15  C   UNL     1     -44.327 -52.433  13.052  1.00  0.00     0.020 C 
HETATM   16  C   UNL     1     -45.226 -51.210  13.233  1.00  0.00     0.002 C 
HETATM   17  C   UNL     1     -46.663 -51.602  13.577  1.00  0.00     0.000 C 
HETATM   18  C   UNL     1     -46.738 -52.580  14.751  1.00  0.00     0.002 C 
HETATM   19  C   UNL     1     -45.834 -53.797  14.535  1.00  0.00     0.020 C 
ENDBRANCH  12  14
ENDBRANCH   1  12
TORSDOF 4
ENDMDL
MODEL 3
REMARK VINA RESULT:      -5.1      2.778      4.712
REMARK  4 active torsions:
REMARK  status: ('A' for Active; 'I' for Inactive)
REMARK    1  A    between atoms: C_4  and  C_5 
REMARK    2  A    between atoms: C_5  and  S_6 
REMARK    3  A    between atoms: S_6  and  N_9 
REMARK    4  A    between atoms: N_9  and  C_10 
ROOT
HETATM    1  S   UNL     1     -42.120 -50.349  12.775  1.00  0.00     0.215 S 
HETATM    2  O   UNL     1     -42.102 -50.308  14.221  1.00  0.00    -0.211 OA
HETATM    3  O   UNL     1     -42.590 -49.234  11.984  1.00  0.00    -0.211 OA
ENDROOT
BRANCH   1   4
HETATM    4  C   UNL     1     -40.493 -50.836  12.179  1.00  0.00     0.224 C 
BRANCH   4   5
HETATM    5  C   UNL     1     -40.180 -52.144  12.786  1.00  0.00     0.093 A 
HETATM    6  C   UNL     1     -39.497 -52.545  13.909  1.00  0.00     0.062 A 
HETATM    7  C   UNL     1     -39.657 -53.947  13.935  1.00  0.00     0.031 A 
HETATM    8  C   UNL     1     -39.189 -54.898  14.966  1.00  0.00     0.070 C 
HETATM    9  N   UNL     1     -40.339 -54.377  12.867  1.00  0.00    -0.266 N 
HETATM   10  O   UNL     1     -40.670 -53.243  12.149  1.00  0.00    -0.241 OA
ATOM     11  HN  UNL     1     -40.568 -55.343  12.632  1.00  0.00     0.194 HD
ENDBRANCH   4   5
ENDBRANCH   1   4
BRANCH   1  12
HETATM   12  N   UNL     1     -43.052 -51.709  12.365  1.00  0.00    -0.215 NA
HETATM   13  H   UNL     1     -42.433 -52.498  12.167  1.00  0.00     0.140 HD
BRANCH  12  14
HETATM   14  C   UNL     1     -44.135 -52.162  13.291  1.00  0.00     0.071 C 
HETATM   15  C   UNL     1     -45.356 -51.241  13.281  1.00  0.00     0.020 C 
HETATM   16  C   UNL     1     -46.339 -51.641  14.381  1.00  0.00     0.002 C 
HETATM   17  C   UNL     1     -46.730 -53.116  14.289  1.00  0.00     0.000 C 
HETATM   18  C   UNL     1     -45.515 -54.041  14.206  1.00  0.00     0.002 C 
HETATM   19  C   UNL     1     -44.555 -53.618  13.090  1.00  0.00     0.020 C 
ENDBRANCH  12  14
ENDBRANCH   1  12
TORSDOF 4
ENDMDL
MODEL 4
REMARK VINA RESULT:      -5.0      3.978      5.065
REMARK  4 active torsions:
REMARK  status: ('A' for Active; 'I' for Inactive)
REMARK    1  A    between atoms: C_4  and  C_5 
REMARK    2  A    between atoms: C_5  and  S_6 
REMARK    3  A    between atoms: S_6  and  N_9 
REMARK    4  A    between atoms: N_9  and  C_10 
ROOT
HETATM    1  S   UNL     1     -41.576 -47.775  11.447  1.00  0.00     0.215 S 
HETATM    2  O   UNL     1     -41.842 -46.918  12.582  1.00  0.00    -0.211 OA
HETATM    3  O   UNL     1     -42.151 -49.097  11.335  1.00  0.00    -0.211 OA
ENDROOT
BRANCH   1   4
HETATM    4  C   UNL     1     -41.914 -46.868   9.930  1.00  0.00     0.224 C 
BRANCH   4   5
HETATM    5  C   UNL     1     -43.257 -47.274   9.469  1.00  0.00     0.093 A 
HETATM    6  C   UNL     1     -44.519 -47.211  10.008  1.00  0.00     0.062 A 
HETATM    7  C   UNL     1     -45.361 -47.702   8.988  1.00  0.00     0.031 A 
HETATM    8  C   UNL     1     -46.837 -47.795   8.991  1.00  0.00     0.070 C 
HETATM    9  N   UNL     1     -44.654 -48.094   7.921  1.00  0.00    -0.266 N 
HETATM   10  O   UNL     1     -43.332 -47.820   8.224  1.00  0.00    -0.241 OA
ATOM     11  HN  UNL     1     -45.015 -48.509   7.063  1.00  0.00     0.194 HD
ENDBRANCH   4   5
ENDBRANCH   1   4
BRANCH   1  12
HETATM   12  N   UNL     1     -39.885 -47.935  11.377  1.00  0.00    -0.215 NA
HETATM   13  H   UNL     1     -39.450 -47.040  11.612  1.00  0.00     0.140 HD
BRANCH  12  14
HETATM   14  C   UNL     1     -39.219 -49.020  12.160  1.00  0.00     0.071 C 
HETATM   15  C   UNL     1     -37.959 -49.561  11.483  1.00  0.00     0.020 C 
HETATM   16  C   UNL     1     -37.435 -50.790  12.226  1.00  0.00     0.002 C 
HETATM   17  C   UNL     1     -37.214 -50.508  13.712  1.00  0.00     0.000 C 
HETATM   18  C   UNL     1     -38.439 -49.881  14.378  1.00  0.00     0.002 C 
HETATM   19  C   UNL     1     -38.933 -48.649  13.615  1.00  0.00     0.020 C 
ENDBRANCH  12  14
ENDBRANCH   1  12
TORSDOF 4
ENDMDL
MODEL 5
REMARK VINA RESULT:      -5.0      2.903      4.748
REMARK  4 active torsions:
REMARK  status: ('A' for Active; 'I' for Inactive)
REMARK    1  A    between atoms: C_4  and  C_5 
REMARK    2  A    between atoms: C_5  and  S_6 
REMARK    3  A    between atoms: S_6  and  N_9 
REMARK    4  A    between atoms: N_9  and  C_10 
ROOT
HETATM    1  S   UNL     1     -41.053 -51.039  13.418  1.00  0.00     0.215 S 
HETATM    2  O   UNL     1     -41.711 -50.845  14.691  1.00  0.00    -0.211 OA
HETATM    3  O   UNL     1     -41.199 -50.099  12.329  1.00  0.00    -0.211 OA
ENDROOT
BRANCH   1   4
HETATM    4  C   UNL     1     -39.299 -51.331  13.698  1.00  0.00     0.224 C 
BRANCH   4   5
HETATM    5  C   UNL     1     -39.166 -52.697  14.241  1.00  0.00     0.093 A 
HETATM    6  C   UNL     1     -39.233 -53.242  15.501  1.00  0.00     0.062 A 
HETATM    7  C   UNL     1     -39.099 -54.631  15.289  1.00  0.00     0.031 A 
HETATM    8  C   UNL     1     -39.170 -55.716  16.292  1.00  0.00     0.070 C 
HETATM    9  N   UNL     1     -38.904 -54.908  13.995  1.00  0.00    -0.266 N 
HETATM   10  O   UNL     1     -38.950 -53.692  13.338  1.00  0.00    -0.241 OA
ATOM     11  HN  UNL     1     -38.752 -55.827  13.579  1.00  0.00     0.194 HD
ENDBRANCH   4   5
ENDBRANCH   1   4
BRANCH   1  12
HETATM   12  N   UNL     1     -41.565 -52.562  12.862  1.00  0.00    -0.215 NA
HETATM   13  H   UNL     1     -40.796 -53.230  12.947  1.00  0.00     0.140 HD
BRANCH  12  14
HETATM   14  C   UNL     1     -42.805 -53.171  13.434  1.00  0.00     0.071 C 
HETATM   15  C   UNL     1     -43.944 -53.278  12.418  1.00  0.00     0.020 C 
HETATM   16  C   UNL     1     -45.235 -53.723  13.104  1.00  0.00     0.002 C 
HETATM   17  C   UNL     1     -45.046 -55.018  13.895  1.00  0.00     0.000 C 
HETATM   18  C   UNL     1     -43.851 -54.953  14.848  1.00  0.00     0.002 C 
HETATM   19  C   UNL     1     -42.573 -54.512  14.129  1.00  0.00     0.020 C 
ENDBRANCH  12  14
ENDBRANCH   1  12
TORSDOF 4
ENDMDL
MODEL 6
REMARK VINA RESULT:      -5.0      2.182      2.733
REMARK  4 active torsions:
REMARK  status: ('A' for Active; 'I' for Inactive)
REMARK    1  A    between atoms: C_4  and  C_5 
REMARK    2  A    between atoms: C_5  and  S_6 
REMARK    3  A    between atoms: S_6  and  N_9 
REMARK    4  A    between atoms: N_9  and  C_10 
ROOT
HETATM    1  S   UNL     1     -40.708 -52.477  13.748  1.00  0.00     0.215 S 
HETATM    2  O   UNL     1     -39.836 -53.406  13.064  1.00  0.00    -0.211 OA
HETATM    3  O   UNL     1     -41.223 -52.743  15.073  1.00  0.00    -0.211 OA
ENDROOT
BRANCH   1   4
HETATM    4  C   UNL     1     -39.954 -50.843  13.739  1.00  0.00     0.224 C 
BRANCH   4   5
HETATM    5  C   UNL     1     -40.473 -50.129  12.555  1.00  0.00     0.093 A 
HETATM    6  C   UNL     1     -41.268 -49.024  12.371  1.00  0.00     0.062 A 
HETATM    7  C   UNL     1     -41.298 -48.843  10.971  1.00  0.00     0.031 A 
HETATM    8  C   UNL     1     -41.948 -47.757  10.207  1.00  0.00     0.070 C 
HETATM    9  N   UNL     1     -40.618 -49.809  10.343  1.00  0.00    -0.266 N 
HETATM   10  O   UNL     1     -40.097 -50.614  11.340  1.00  0.00    -0.241 OA
ATOM     11  HN  UNL     1     -40.507 -49.927   9.336  1.00  0.00     0.194 HD
ENDBRANCH   4   5
ENDBRANCH   1   4
BRANCH   1  12
HETATM   12  N   UNL     1     -42.035 -52.243  12.712  1.00  0.00    -0.215 NA
HETATM   13  H   UNL     1     -41.936 -52.847  11.892  1.00  0.00     0.140 HD
BRANCH  12  14
HETATM   14  C   UNL     1     -43.421 -52.383  13.254  1.00  0.00     0.071 C 
HETATM   15  C   UNL     1     -44.165 -51.049  13.349  1.00  0.00     0.020 C 
HETATM   16  C   UNL     1     -45.492 -51.226  14.085  1.00  0.00     0.002 C 
HETATM   17  C   UNL     1     -46.354 -52.321  13.457  1.00  0.00     0.000 C 
HETATM   18  C   UNL     1     -45.590 -53.634  13.274  1.00  0.00     0.002 C 
HETATM   19  C   UNL     1     -44.271 -53.424  12.526  1.00  0.00     0.020 C 
ENDBRANCH  12  14
ENDBRANCH   1  12
TORSDOF 4
ENDMDL
MODEL 7
REMARK VINA RESULT:      -4.8      2.377      2.951
REMARK  4 active torsions:
REMARK  status: ('A' for Active; 'I' for Inactive)
REMARK    1  A    between atoms: C_4  and  C_5 
REMARK    2  A    between atoms: C_5  and  S_6 
REMARK    3  A    between atoms: S_6  and  N_9 
REMARK    4  A    between atoms: N_9  and  C_10 
ROOT
HETATM    1  S   UNL     1     -41.889 -50.409  12.528  1.00  0.00     0.215 S 
HETATM    2  O   UNL     1     -41.096 -50.622  13.719  1.00  0.00    -0.211 OA
HETATM    3  O   UNL     1     -43.041 -49.536  12.522  1.00  0.00    -0.211 OA
ENDROOT
BRANCH   1   4
HETATM    4  C   UNL     1     -40.802 -49.943  11.172  1.00  0.00     0.224 C 
BRANCH   4   5
HETATM    5  C   UNL     1     -40.961 -48.489  10.966  1.00  0.00     0.093 A 
HETATM    6  C   UNL     1     -40.395 -47.371  11.528  1.00  0.00     0.062 A 
HETATM    7  C   UNL     1     -40.943 -46.295  10.797  1.00  0.00     0.031 A 
HETATM    8  C   UNL     1     -40.633 -44.855  10.925  1.00  0.00     0.070 C 
HETATM    9  N   UNL     1     -41.829 -46.726   9.891  1.00  0.00    -0.266 N 
HETATM   10  O   UNL     1     -41.835 -48.105   9.996  1.00  0.00    -0.241 OA
ATOM     11  HN  UNL     1     -42.384 -46.155   9.255  1.00  0.00     0.194 HD
ENDBRANCH   4   5
ENDBRANCH   1   4
BRANCH   1  12
HETATM   12  N   UNL     1     -42.402 -51.953  12.035  1.00  0.00    -0.215 NA
HETATM   13  H   UNL     1     -41.594 -52.497  11.726  1.00  0.00     0.140 HD
BRANCH  12  14
HETATM   14  C   UNL     1     -43.221 -52.785  12.968  1.00  0.00     0.071 C 
HETATM   15  C   UNL     1     -44.593 -53.152  12.398  1.00  0.00     0.020 C 
HETATM   16  C   UNL     1     -45.453 -53.831  13.463  1.00  0.00     0.002 C 
HETATM   17  C   UNL     1     -44.748 -55.036  14.086  1.00  0.00     0.000 C 
HETATM   18  C   UNL     1     -43.338 -54.701  14.577  1.00  0.00     0.002 C 
HETATM   19  C   UNL     1     -42.501 -54.030  13.484  1.00  0.00     0.020 C 
ENDBRANCH  12  14
ENDBRANCH   1  12
TORSDOF 4
ENDMDL
MODEL 8
REMARK VINA RESULT:      -4.8      3.262      4.518
REMARK  4 active torsions:
REMARK  status: ('A' for Active; 'I' for Inactive)
REMARK    1  A    between atoms: C_4  and  C_5 
REMARK    2  A    between atoms: C_5  and  S_6 
REMARK    3  A    between atoms: S_6  and  N_9 
REMARK    4  A    between atoms: N_9  and  C_10 
ROOT
HETATM    1  S   UNL     1     -42.267 -53.982  14.369  1.00  0.00     0.215 S 
HETATM    2  O   UNL     1     -42.412 -55.209  15.120  1.00  0.00    -0.211 OA
HETATM    3  O   UNL     1     -42.328 -52.684  15.004  1.00  0.00    -0.211 OA
ENDROOT
BRANCH   1   4
HETATM    4  C   UNL     1     -40.767 -54.070  13.379  1.00  0.00     0.224 C 
BRANCH   4   5
HETATM    5  C   UNL     1     -40.552 -52.732  12.793  1.00  0.00     0.093 A 
HETATM    6  C   UNL     1     -39.697 -51.690  13.062  1.00  0.00     0.062 A 
HETATM    7  C   UNL     1     -39.973 -50.741  12.055  1.00  0.00     0.031 A 
HETATM    8  C   UNL     1     -39.297 -49.448  11.812  1.00  0.00     0.070 C 
HETATM    9  N   UNL     1     -40.971 -51.150  11.263  1.00  0.00    -0.266 N 
HETATM   10  O   UNL     1     -41.330 -52.403  11.726  1.00  0.00    -0.241 OA
ATOM     11  HN  UNL     1     -41.382 -50.642  10.480  1.00  0.00     0.194 HD
ENDBRANCH   4   5
ENDBRANCH   1   4
BRANCH   1  12
HETATM   12  N   UNL     1     -43.469 -54.031  13.168  1.00  0.00    -0.215 NA
HETATM   13  H   UNL     1     -43.625 -55.001  12.884  1.00  0.00     0.140 HD
BRANCH  12  14
HETATM   14  C   UNL     1     -44.791 -53.383  13.428  1.00  0.00     0.071 C 
HETATM   15  C   UNL     1     -45.366 -53.724  14.804  1.00  0.00     0.020 C 
HETATM   16  C   UNL     1     -46.795 -53.196  14.934  1.00  0.00     0.002 C 
HETATM   17  C   UNL     1     -46.883 -51.701  14.628  1.00  0.00     0.000 C 
HETATM   18  C   UNL     1     -46.228 -51.336  13.295  1.00  0.00     0.002 C 
HETATM   19  C   UNL     1     -44.796 -51.872  13.200  1.00  0.00     0.020 C 
ENDBRANCH  12  14
ENDBRANCH   1  12
TORSDOF 4
ENDMDL
MODEL 9
REMARK VINA RESULT:      -4.7      2.307      4.882
REMARK  4 active torsions:
REMARK  status: ('A' for Active; 'I' for Inactive)
REMARK    1  A    between atoms: C_4  and  C_5 
REMARK    2  A    between atoms: C_5  and  S_6 
REMARK    3  A    between atoms: S_6  and  N_9 
REMARK    4  A    between atoms: N_9  and  C_10 
ROOT
HETATM    1  S   UNL     1     -40.159 -53.263  13.616  1.00  0.00     0.215 S 
HETATM    2  O   UNL     1     -40.489 -52.365  14.701  1.00  0.00    -0.211 OA
HETATM    3  O   UNL     1     -38.973 -54.088  13.640  1.00  0.00    -0.211 OA
ENDROOT
BRANCH   1   4
HETATM    4  C   UNL     1     -41.582 -54.306  13.260  1.00  0.00     0.224 C 
BRANCH   4   5
HETATM    5  C   UNL     1     -42.779 -53.443  13.311  1.00  0.00     0.093 A 
HETATM    6  C   UNL     1     -43.822 -53.295  14.193  1.00  0.00     0.062 A 
HETATM    7  C   UNL     1     -44.576 -52.223  13.668  1.00  0.00     0.031 A 
HETATM    8  C   UNL     1     -45.775 -51.583  14.250  1.00  0.00     0.070 C 
HETATM    9  N   UNL     1     -44.060 -51.787  12.513  1.00  0.00    -0.266 N 
HETATM   10  O   UNL     1     -42.929 -52.553  12.292  1.00  0.00    -0.241 OA
ATOM     11  HN  UNL     1     -44.426 -51.044  11.918  1.00  0.00     0.194 HD
ENDBRANCH   4   5
ENDBRANCH   1   4
BRANCH   1  12
HETATM   12  N   UNL     1     -40.092 -52.295  12.221  1.00  0.00    -0.215 NA
HETATM   13  H   UNL     1     -40.932 -52.450  11.659  1.00  0.00     0.140 HD
BRANCH  12  14
HETATM   14  C   UNL     1     -39.865 -50.824  12.360  1.00  0.00     0.071 C 
HETATM   15  C   UNL     1     -38.385 -50.437  12.311  1.00  0.00     0.020 C 
HETATM   16  C   UNL     1     -38.205 -48.959  12.652  1.00  0.00     0.002 C 
HETATM   17  C   UNL     1     -39.064 -48.058  11.765  1.00  0.00     0.000 C 
HETATM   18  C   UNL     1     -40.531 -48.492  11.735  1.00  0.00     0.002 C 
HETATM   19  C   UNL     1     -40.677 -49.975  11.382  1.00  0.00     0.020 C 
ENDBRANCH  12  14
ENDBRANCH   1  12
TORSDOF 4
ENDMDL
