MODEL 1
REMARK VINA RESULT:      -6.2      0.000      0.000
REMARK  2 active torsions:
REMARK  status: ('A' for Active; 'I' for Inactive)
REMARK    1  A    between atoms: C_5  and  N_8 
REMARK       I    between atoms: N_8  and  C_9 
REMARK       I    between atoms: C_9  and  N_11 
REMARK    2  A    between atoms: N_11  and  C_12 
ROOT
HETATM    1  N   UNL     1     -43.398 -51.180  12.530  1.00  0.00    -0.338 N 
HETATM    2  C   UNL     1     -42.028 -51.191  12.336  1.00  0.00     0.322 C 
HETATM    3  O   UNL     1     -41.336 -52.148  12.668  1.00  0.00    -0.247 OA
HETATM    4  N   UNL     1     -41.583 -50.006  11.816  1.00  0.00    -0.288 N 
HETATM    5  H   UNL     1     -43.935 -50.683  11.835  1.00  0.00     0.164 HD
HETATM    6  H   UNL     1     -42.179 -49.198  11.858  1.00  0.00     0.172 HD
ENDROOT
BRANCH   1   7
HETATM    7  C   UNL     1     -44.040 -52.318  13.184  1.00  0.00     0.086 C 
HETATM    8  C   UNL     1     -45.411 -52.627  12.569  1.00  0.00     0.026 C 
HETATM    9  C   UNL     1     -46.481 -51.612  12.971  1.00  0.00     0.006 C 
HETATM   10  C   UNL     1     -46.582 -51.418  14.490  1.00  0.00    -0.019 C 
HETATM   11  C   UNL     1     -47.220 -52.630  15.174  1.00  0.00     0.010 C 
HETATM   12  C   UNL     1     -45.209 -51.087  15.089  1.00  0.00     0.006 C 
HETATM   13  C   UNL     1     -44.128 -52.093  14.696  1.00  0.00     0.026 C 
ENDBRANCH   1   7
BRANCH   4  14
HETATM   14  C   UNL     1     -40.239 -49.792  11.653  1.00  0.00     0.168 A 
HETATM   15  N   UNL     1     -39.458 -50.061  10.634  1.00  0.00    -0.279 N 
HETATM   16  N   UNL     1     -38.136 -49.766  10.903  1.00  0.00    -0.303 N 
ATOM     17  HN  UNL     1     -39.789 -50.443   9.748  1.00  0.00     0.189 HD
HETATM   18  C   UNL     1     -37.985 -49.283  12.117  1.00  0.00     0.160 A 
ATOM     19  HN  UNL     1     -37.372 -49.906  10.242  1.00  0.00     0.186 HD
HETATM   20  S   UNL     1     -39.448 -49.095  12.998  1.00  0.00    -0.046 SA
ENDBRANCH   4  14
TORSDOF 2
ENDMDL
MODEL 2
REMARK VINA RESULT:      -5.9      2.442      2.779
REMARK  2 active torsions:
REMARK  status: ('A' for Active; 'I' for Inactive)
REMARK    1  A    between atoms: C_5  and  N_8 
REMARK       I    between atoms: N_8  and  C_9 
REMARK       I    between atoms: C_9  and  N_11 
REMARK    2  A    between atoms: N_11  and  C_12 
ROOT
HETATM    1  N   UNL     1     -43.778 -50.264  12.521  1.00  0.00    -0.338 N 
HETATM    2  C   UNL     1     -42.669 -49.464  12.310  1.00  0.00     0.322 C 
HETATM    3  O   UNL     1     -41.704 -49.486  13.066  1.00  0.00    -0.247 OA
HETATM    4  N   UNL     1     -42.841 -48.637  11.232  1.00  0.00    -0.288 N 
HETATM    5  H   UNL     1     -44.251 -50.585  11.689  1.00  0.00     0.164 HD
HETATM    6  H   UNL     1     -43.767 -48.492  10.870  1.00  0.00     0.172 HD
ENDROOT
BRANCH   1   7
HETATM    7  C   UNL     1     -43.825 -51.132  13.695  1.00  0.00     0.086 C 
HETATM    8  C   UNL     1     -43.310 -52.542  13.380  1.00  0.00     0.026 C 
HETATM    9  C   UNL     1     -44.304 -53.364  12.559  1.00  0.00     0.006 C 
HETATM   10  C   UNL     1     -45.705 -53.408  13.184  1.00  0.00    -0.019 C 
HETATM   11  C   UNL     1     -45.738 -54.287  14.437  1.00  0.00     0.010 C 
HETATM   12  C   UNL     1     -46.218 -51.990  13.472  1.00  0.00     0.006 C 
HETATM   13  C   UNL     1     -45.235 -51.156  14.293  1.00  0.00     0.026 C 
ENDBRANCH   1   7
BRANCH   4  14
HETATM   14  C   UNL     1     -41.890 -47.697  10.932  1.00  0.00     0.168 A 
HETATM   15  N   UNL     1     -40.592 -47.825  10.793  1.00  0.00    -0.279 N 
HETATM   16  N   UNL     1     -39.973 -46.611  10.573  1.00  0.00    -0.303 N 
ATOM     17  HN  UNL     1     -40.098 -48.716  10.842  1.00  0.00     0.189 HD
HETATM   18  C   UNL     1     -40.840 -45.622  10.552  1.00  0.00     0.160 A 
ATOM     19  HN  UNL     1     -38.968 -46.495  10.442  1.00  0.00     0.186 HD
HETATM   20  S   UNL     1     -42.478 -46.105  10.740  1.00  0.00    -0.046 SA
ENDBRANCH   4  14
TORSDOF 2
ENDMDL
MODEL 3
REMARK VINA RESULT:      -5.5      4.253      6.925
REMARK  2 active torsions:
REMARK  status: ('A' for Active; 'I' for Inactive)
REMARK    1  A    between atoms: C_5  and  N_8 
REMARK       I    between atoms: N_8  and  C_9 
REMARK       I    between atoms: C_9  and  N_11 
REMARK    2  A    between atoms: N_11  and  C_12 
ROOT
HETATM    1  N   UNL     1     -40.565 -47.023  11.492  1.00  0.00    -0.338 N 
HETATM    2  C   UNL     1     -40.986 -48.295  11.145  1.00  0.00     0.322 C 
HETATM    3  O   UNL     1     -41.616 -48.509  10.116  1.00  0.00    -0.247 OA
HETATM    4  N   UNL     1     -40.672 -49.211  12.114  1.00  0.00    -0.288 N 
HETATM    5  H   UNL     1     -39.690 -46.972  11.993  1.00  0.00     0.164 HD
HETATM    6  H   UNL     1     -40.425 -48.887  13.032  1.00  0.00     0.172 HD
ENDROOT
BRANCH   1   7
HETATM    7  C   UNL     1     -40.912 -45.893  10.634  1.00  0.00     0.086 C 
HETATM    8  C   UNL     1     -39.773 -44.869  10.556  1.00  0.00     0.026 C 
HETATM    9  C   UNL     1     -39.637 -44.038  11.832  1.00  0.00     0.006 C 
HETATM   10  C   UNL     1     -40.954 -43.377  12.260  1.00  0.00    -0.019 C 
HETATM   11  C   UNL     1     -41.332 -42.219  11.333  1.00  0.00     0.010 C 
HETATM   12  C   UNL     1     -42.080 -44.416  12.356  1.00  0.00     0.006 C 
HETATM   13  C   UNL     1     -42.228 -45.254  11.087  1.00  0.00     0.026 C 
ENDBRANCH   1   7
BRANCH   4  14
HETATM   14  C   UNL     1     -41.103 -50.507  11.994  1.00  0.00     0.168 A 
HETATM   15  N   UNL     1     -40.825 -51.407  11.082  1.00  0.00    -0.279 N 
HETATM   16  N   UNL     1     -41.536 -52.576  11.276  1.00  0.00    -0.303 N 
ATOM     17  HN  UNL     1     -40.163 -51.262  10.320  1.00  0.00     0.189 HD
HETATM   18  C   UNL     1     -42.315 -52.499  12.332  1.00  0.00     0.160 A 
ATOM     19  HN  UNL     1     -41.465 -53.396  10.673  1.00  0.00     0.186 HD
HETATM   20  S   UNL     1     -42.196 -51.022  13.202  1.00  0.00    -0.046 SA
ENDBRANCH   4  14
TORSDOF 2
ENDMDL
MODEL 4
REMARK VINA RESULT:      -5.5      1.346      1.908
REMARK  2 active torsions:
REMARK  status: ('A' for Active; 'I' for Inactive)
REMARK    1  A    between atoms: C_5  and  N_8 
REMARK       I    between atoms: N_8  and  C_9 
REMARK       I    between atoms: C_9  and  N_11 
REMARK    2  A    between atoms: N_11  and  C_12 
ROOT
HETATM    1  N   UNL     1     -43.710 -51.455  12.854  1.00  0.00    -0.338 N 
HETATM    2  C   UNL     1     -42.525 -50.751  12.727  1.00  0.00     0.322 C 
HETATM    3  O   UNL     1     -42.414 -49.596  13.122  1.00  0.00    -0.247 OA
HETATM    4  N   UNL     1     -41.576 -51.480  12.061  1.00  0.00    -0.288 N 
HETATM    5  H   UNL     1     -43.616 -52.448  13.005  1.00  0.00     0.164 HD
HETATM    6  H   UNL     1     -41.859 -52.284  11.530  1.00  0.00     0.172 HD
ENDROOT
BRANCH   1   7
HETATM    7  C   UNL     1     -44.877 -50.797  13.437  1.00  0.00     0.086 C 
HETATM    8  C   UNL     1     -44.746 -50.651  14.958  1.00  0.00     0.026 C 
HETATM    9  C   UNL     1     -44.948 -51.974  15.698  1.00  0.00     0.006 C 
HETATM   10  C   UNL     1     -46.256 -52.681  15.315  1.00  0.00    -0.019 C 
HETATM   11  C   UNL     1     -47.477 -51.963  15.895  1.00  0.00     0.010 C 
HETATM   12  C   UNL     1     -46.364 -52.840  13.792  1.00  0.00     0.006 C 
HETATM   13  C   UNL     1     -46.164 -51.525  13.039  1.00  0.00     0.026 C 
ENDBRANCH   1   7
BRANCH   4  14
HETATM   14  C   UNL     1     -40.371 -50.907  11.748  1.00  0.00     0.168 A 
HETATM   15  N   UNL     1     -40.011 -50.225  10.688  1.00  0.00    -0.279 N 
HETATM   16  N   UNL     1     -38.671 -49.891  10.716  1.00  0.00    -0.303 N 
ATOM     17  HN  UNL     1     -40.646 -49.971   9.930  1.00  0.00     0.189 HD
HETATM   18  C   UNL     1     -38.085 -50.338  11.806  1.00  0.00     0.160 A 
ATOM     19  HN  UNL     1     -38.195 -49.365   9.984  1.00  0.00     0.186 HD
HETATM   20  S   UNL     1     -39.134 -51.144  12.903  1.00  0.00    -0.046 SA
ENDBRANCH   4  14
TORSDOF 2
ENDMDL
MODEL 5
REMARK VINA RESULT:      -5.4      2.912      3.816
REMARK  2 active torsions:
REMARK  status: ('A' for Active; 'I' for Inactive)
REMARK    1  A    between atoms: C_5  and  N_8 
REMARK       I    between atoms: N_8  and  C_9 
REMARK       I    between atoms: C_9  and  N_11 
REMARK    2  A    between atoms: N_11  and  C_12 
ROOT
HETATM    1  N   UNL     1     -42.026 -51.145  12.583  1.00  0.00    -0.338 N 
HETATM    2  C   UNL     1     -41.682 -49.830  12.327  1.00  0.00     0.322 C 
HETATM    3  O   UNL     1     -41.191 -49.111  13.190  1.00  0.00    -0.247 OA
HETATM    4  N   UNL     1     -42.025 -49.457  11.054  1.00  0.00    -0.288 N 
HETATM    5  H   UNL     1     -41.924 -51.784  11.808  1.00  0.00     0.164 HD
HETATM    6  H   UNL     1     -42.678 -50.021  10.539  1.00  0.00     0.172 HD
ENDROOT
BRANCH   1   7
HETATM    7  C   UNL     1     -41.842 -51.688  13.927  1.00  0.00     0.086 C 
HETATM    8  C   UNL     1     -40.850 -52.858  13.935  1.00  0.00     0.026 C 
HETATM    9  C   UNL     1     -41.444 -54.139  13.348  1.00  0.00     0.006 C 
HETATM   10  C   UNL     1     -42.779 -54.533  13.996  1.00  0.00    -0.019 C 
HETATM   11  C   UNL     1     -42.581 -55.063  15.419  1.00  0.00     0.010 C 
HETATM   12  C   UNL     1     -43.768 -53.360  13.961  1.00  0.00     0.006 C 
HETATM   13  C   UNL     1     -43.189 -52.072  14.545  1.00  0.00     0.026 C 
ENDBRANCH   1   7
BRANCH   4  14
HETATM   14  C   UNL     1     -41.856 -48.158  10.654  1.00  0.00     0.168 A 
HETATM   15  N   UNL     1     -40.763 -47.441  10.553  1.00  0.00    -0.279 N 
HETATM   16  N   UNL     1     -41.031 -46.135  10.191  1.00  0.00    -0.303 N 
ATOM     17  HN  UNL     1     -39.825 -47.804  10.722  1.00  0.00     0.189 HD
HETATM   18  C   UNL     1     -42.321 -45.933  10.031  1.00  0.00     0.160 A 
ATOM     19  HN  UNL     1     -40.318 -45.417  10.063  1.00  0.00     0.186 HD
HETATM   20  S   UNL     1     -43.296 -47.330  10.251  1.00  0.00    -0.046 SA
ENDBRANCH   4  14
TORSDOF 2
ENDMDL
MODEL 6
REMARK VINA RESULT:      -5.3      3.557      4.703
REMARK  2 active torsions:
REMARK  status: ('A' for Active; 'I' for Inactive)
REMARK    1  A    between atoms: C_5  and  N_8 
REMARK       I    between atoms: N_8  and  C_9 
REMARK       I    between atoms: C_9  and  N_11 
REMARK    2  A    between atoms: N_11  and  C_12 
ROOT
HETATM    1  N   UNL     1     -40.526 -52.501  13.746  1.00  0.00    -0.338 N 
HETATM    2  C   UNL     1     -41.116 -51.836  12.686  1.00  0.00     0.322 C 
HETATM    3  O   UNL     1     -41.714 -52.436  11.799  1.00  0.00    -0.247 OA
HETATM    4  N   UNL     1     -40.877 -50.489  12.739  1.00  0.00    -0.288 N 
HETATM    5  H   UNL     1     -40.525 -52.007  14.627  1.00  0.00     0.164 HD
HETATM    6  H   UNL     1     -40.142 -50.146  13.332  1.00  0.00     0.172 HD
ENDROOT
BRANCH   1   7
HETATM    7  C   UNL     1     -40.577 -53.960  13.797  1.00  0.00     0.086 C 
HETATM    8  C   UNL     1     -41.713 -54.457  14.700  1.00  0.00     0.026 C 
HETATM    9  C   UNL     1     -41.407 -54.276  16.187  1.00  0.00     0.006 C 
HETATM   10  C   UNL     1     -40.059 -54.883  16.600  1.00  0.00    -0.019 C 
HETATM   11  C   UNL     1     -40.108 -56.413  16.613  1.00  0.00     0.010 C 
HETATM   12  C   UNL     1     -38.929 -54.359  15.704  1.00  0.00     0.006 C 
HETATM   13  C   UNL     1     -39.220 -54.534  14.214  1.00  0.00     0.026 C 
ENDBRANCH   1   7
BRANCH   4  14
HETATM   14  C   UNL     1     -41.294 -49.679  11.715  1.00  0.00     0.168 A 
HETATM   15  N   UNL     1     -40.837 -49.564  10.491  1.00  0.00    -0.279 N 
HETATM   16  N   UNL     1     -41.483 -48.565   9.790  1.00  0.00    -0.303 N 
ATOM     17  HN  UNL     1     -40.092 -50.142  10.103  1.00  0.00     0.189 HD
HETATM   18  C   UNL     1     -42.404 -47.977  10.523  1.00  0.00     0.160 A 
ATOM     19  HN  UNL     1     -41.273 -48.314   8.824  1.00  0.00     0.186 HD
HETATM   20  S   UNL     1     -42.592 -48.636  12.098  1.00  0.00    -0.046 SA
ENDBRANCH   4  14
TORSDOF 2
ENDMDL
MODEL 7
REMARK VINA RESULT:      -5.3      3.647      6.422
REMARK  2 active torsions:
REMARK  status: ('A' for Active; 'I' for Inactive)
REMARK    1  A    between atoms: C_5  and  N_8 
REMARK       I    between atoms: N_8  and  C_9 
REMARK       I    between atoms: C_9  and  N_11 
REMARK    2  A    between atoms: N_11  and  C_12 
ROOT
HETATM    1  N   UNL     1     -41.132 -48.374  11.431  1.00  0.00    -0.338 N 
HETATM    2  C   UNL     1     -41.789 -49.526  11.824  1.00  0.00     0.322 C 
HETATM    3  O   UNL     1     -42.881 -49.489  12.381  1.00  0.00    -0.247 OA
HETATM    4  N   UNL     1     -41.038 -50.644  11.577  1.00  0.00    -0.288 N 
HETATM    5  H   UNL     1     -40.575 -48.451  10.593  1.00  0.00     0.164 HD
HETATM    6  H   UNL     1     -40.055 -50.543  11.396  1.00  0.00     0.172 HD
ENDROOT
BRANCH   1   7
HETATM    7  C   UNL     1     -41.729 -47.072  11.719  1.00  0.00     0.086 C 
HETATM    8  C   UNL     1     -41.560 -46.098  10.546  1.00  0.00     0.026 C 
HETATM    9  C   UNL     1     -40.131 -45.570  10.418  1.00  0.00     0.006 C 
HETATM   10  C   UNL     1     -39.594 -44.970  11.725  1.00  0.00    -0.019 C 
HETATM   11  C   UNL     1     -40.254 -43.625  12.042  1.00  0.00     0.010 C 
HETATM   12  C   UNL     1     -39.749 -45.963  12.885  1.00  0.00     0.006 C 
HETATM   13  C   UNL     1     -41.173 -46.499  13.026  1.00  0.00     0.026 C 
ENDBRANCH   1   7
BRANCH   4  14
HETATM   14  C   UNL     1     -41.481 -51.872  11.996  1.00  0.00     0.168 A 
HETATM   15  N   UNL     1     -42.585 -52.515  11.703  1.00  0.00    -0.279 N 
HETATM   16  N   UNL     1     -42.697 -53.699  12.406  1.00  0.00    -0.303 N 
ATOM     17  HN  UNL     1     -43.280 -52.181  11.035  1.00  0.00     0.189 HD
HETATM   18  C   UNL     1     -41.662 -53.892  13.196  1.00  0.00     0.160 A 
ATOM     19  HN  UNL     1     -43.483 -54.343  12.323  1.00  0.00     0.186 HD
HETATM   20  S   UNL     1     -40.451 -52.678  13.096  1.00  0.00    -0.046 SA
ENDBRANCH   4  14
TORSDOF 2
ENDMDL
MODEL 8
REMARK VINA RESULT:      -5.2      3.676      4.880
REMARK  2 active torsions:
REMARK  status: ('A' for Active; 'I' for Inactive)
REMARK    1  A    between atoms: C_5  and  N_8 
REMARK       I    between atoms: N_8  and  C_9 
REMARK       I    between atoms: C_9  and  N_11 
REMARK    2  A    between atoms: N_11  and  C_12 
ROOT
HETATM    1  N   UNL     1     -42.214 -50.286  11.977  1.00  0.00    -0.338 N 
HETATM    2  C   UNL     1     -42.099 -49.078  11.313  1.00  0.00     0.322 C 
HETATM    3  O   UNL     1     -41.007 -48.597  11.031  1.00  0.00    -0.247 OA
HETATM    4  N   UNL     1     -43.322 -48.501  11.101  1.00  0.00    -0.288 N 
HETATM    5  H   UNL     1     -43.017 -50.846  11.734  1.00  0.00     0.164 HD
HETATM    6  H   UNL     1     -44.115 -48.828  11.625  1.00  0.00     0.172 HD
ENDROOT
BRANCH   1   7
HETATM    7  C   UNL     1     -41.006 -50.996  12.393  1.00  0.00     0.086 C 
HETATM    8  C   UNL     1     -41.031 -52.465  11.954  1.00  0.00     0.026 C 
HETATM    9  C   UNL     1     -41.987 -53.315  12.791  1.00  0.00     0.006 C 
HETATM   10  C   UNL     1     -41.737 -53.187  14.300  1.00  0.00    -0.019 C 
HETATM   11  C   UNL     1     -40.449 -53.899  14.722  1.00  0.00     0.010 C 
HETATM   12  C   UNL     1     -41.737 -51.714  14.730  1.00  0.00     0.006 C 
HETATM   13  C   UNL     1     -40.786 -50.851  13.902  1.00  0.00     0.026 C 
ENDBRANCH   1   7
BRANCH   4  14
HETATM   14  C   UNL     1     -43.401 -47.248  10.550  1.00  0.00     0.168 A 
HETATM   15  N   UNL     1     -43.117 -46.078  11.069  1.00  0.00    -0.279 N 
HETATM   16  N   UNL     1     -43.416 -45.042  10.206  1.00  0.00    -0.303 N 
ATOM     17  HN  UNL     1     -42.722 -45.948  12.001  1.00  0.00     0.189 HD
HETATM   18  C   UNL     1     -43.910 -45.486   9.071  1.00  0.00     0.160 A 
ATOM     19  HN  UNL     1     -43.272 -44.056  10.423  1.00  0.00     0.186 HD
HETATM   20  S   UNL     1     -43.990 -47.198   8.947  1.00  0.00    -0.046 SA
ENDBRANCH   4  14
TORSDOF 2
ENDMDL
MODEL 9
REMARK VINA RESULT:      -5.1      4.238      4.768
REMARK  2 active torsions:
REMARK  status: ('A' for Active; 'I' for Inactive)
REMARK    1  A    between atoms: C_5  and  N_8 
REMARK       I    between atoms: N_8  and  C_9 
REMARK       I    between atoms: C_9  and  N_11 
REMARK    2  A    between atoms: N_11  and  C_12 
ROOT
HETATM    1  N   UNL     1     -42.738 -52.848  14.485  1.00  0.00    -0.338 N 
HETATM    2  C   UNL     1     -41.491 -53.445  14.511  1.00  0.00     0.322 C 
HETATM    3  O   UNL     1     -40.808 -53.560  13.500  1.00  0.00    -0.247 OA
HETATM    4  N   UNL     1     -41.189 -53.926  15.757  1.00  0.00    -0.288 N 
HETATM    5  H   UNL     1     -42.999 -52.338  15.316  1.00  0.00     0.164 HD
HETATM    6  H   UNL     1     -41.926 -54.041  16.430  1.00  0.00     0.172 HD
ENDROOT
BRANCH   1   7
HETATM    7  C   UNL     1     -43.282 -52.375  13.214  1.00  0.00     0.086 C 
HETATM    8  C   UNL     1     -44.029 -51.046  13.374  1.00  0.00     0.026 C 
HETATM    9  C   UNL     1     -45.389 -51.210  14.055  1.00  0.00     0.006 C 
HETATM   10  C   UNL     1     -46.272 -52.269  13.380  1.00  0.00    -0.019 C 
HETATM   11  C   UNL     1     -46.805 -51.783  12.030  1.00  0.00     0.010 C 
HETATM   12  C   UNL     1     -45.520 -53.601  13.246  1.00  0.00     0.006 C 
HETATM   13  C   UNL     1     -44.159 -53.452  12.567  1.00  0.00     0.026 C 
ENDBRANCH   1   7
BRANCH   4  14
HETATM   14  C   UNL     1     -40.038 -54.644  15.952  1.00  0.00     0.168 A 
HETATM   15  N   UNL     1     -38.910 -54.628  15.283  1.00  0.00    -0.279 N 
HETATM   16  N   UNL     1     -38.017 -55.572  15.752  1.00  0.00    -0.303 N 
ATOM     17  HN  UNL     1     -38.715 -53.994  14.508  1.00  0.00     0.189 HD
HETATM   18  C   UNL     1     -38.517 -56.254  16.760  1.00  0.00     0.160 A 
ATOM     19  HN  UNL     1     -37.085 -55.722  15.364  1.00  0.00     0.186 HD
HETATM   20  S   UNL     1     -40.087 -55.756  17.250  1.00  0.00    -0.046 SA
ENDBRANCH   4  14
TORSDOF 2
ENDMDL
