MODEL 1
REMARK VINA RESULT:      -5.9      0.000      0.000
REMARK  8 active torsions:
REMARK  status: ('A' for Active; 'I' for Inactive)
REMARK    1  A    between atoms: C_7  and  O_8 
REMARK    2  A    between atoms: O_8  and  C_9 
REMARK    3  A    between atoms: C_9  and  C_10 
REMARK    4  A    between atoms: C_10  and  O_11 
REMARK    5  A    between atoms: C_10  and  C_12 
REMARK    6  A    between atoms: C_12  and  N_13 
REMARK    7  A    between atoms: C_14  and  C_15 
REMARK    8  A    between atoms: C_15  and  O_16 
ROOT
HETATM    1  C   UNL     1     -46.573 -52.785  15.120  1.00  0.00     0.164 C 
ENDROOT
BRANCH   1   2
HETATM    2  C   UNL     1     -46.350 -54.301  15.130  1.00  0.00     0.160 C 
BRANCH   2   3
HETATM    3  C   UNL     1     -45.395 -54.821  14.035  1.00  0.00     0.209 C 
BRANCH   3   4
HETATM    4  O   UNL     1     -44.256 -55.392  14.690  1.00  0.00    -0.348 OA
BRANCH   4   5
HETATM    5  C   UNL     1     -43.030 -54.809  14.489  1.00  0.00     0.075 A 
HETATM    6  C   UNL     1     -42.088 -55.007  15.516  1.00  0.00    -0.029 A 
HETATM    7  C   UNL     1     -40.812 -54.436  15.407  1.00  0.00     0.010 A 
HETATM    8  C   UNL     1     -42.415 -55.867  16.707  1.00  0.00     0.051 C 
HETATM    9  C   UNL     1     -40.465 -53.683  14.287  1.00  0.00     0.007 A 
HETATM   10  C   UNL     1     -41.384 -53.500  13.250  1.00  0.00    -0.059 A 
HETATM   11  C   UNL     1     -41.005 -52.734  12.018  1.00  0.00     0.048 C 
HETATM   12  C   UNL     1     -42.669 -54.059  13.364  1.00  0.00     0.044 A 
ENDBRANCH   4   5
ENDBRANCH   3   4
ENDBRANCH   2   3
BRANCH   2  13
HETATM   13  O   UNL     1     -45.836 -54.615  16.441  1.00  0.00    -0.392 OA
HETATM   14  H   UNL     1     -46.537 -54.454  17.097  1.00  0.00     0.210 HD
ENDBRANCH   2  13
ENDBRANCH   1   2
BRANCH   1  15
HETATM   15  N   UNL     1     -45.574 -51.990  14.443  1.00  0.00    -0.330 N 
HETATM   16  C   UNL     1     -45.666 -51.410  13.195  1.00  0.00     0.108 A 
HETATM   17  N   UNL     1     -44.585 -50.695  12.932  1.00  0.00    -0.342 N 
HETATM   18  C   UNL     1     -43.809 -50.756  14.058  1.00  0.00     0.060 A 
ATOM     19  HN  UNL     1     -44.373 -50.198  12.067  1.00  0.00     0.167 HD
HETATM   20  C   UNL     1     -42.588 -50.124  14.333  1.00  0.00     0.032 A 
HETATM   21  C   UNL     1     -44.397 -51.564  15.024  1.00  0.00     0.062 A 
HETATM   22  C   UNL     1     -41.986 -50.331  15.580  1.00  0.00     0.002 A 
HETATM   23  C   UNL     1     -42.587 -51.155  16.532  1.00  0.00     0.002 A 
HETATM   24  C   UNL     1     -43.807 -51.788  16.276  1.00  0.00     0.032 A 
BRANCH  16  25
HETATM   25  C   UNL     1     -46.810 -51.544  12.250  1.00  0.00     0.240 C 
BRANCH  25  26
HETATM   26  O   UNL     1     -46.546 -52.682  11.437  1.00  0.00    -0.393 OA
HETATM   27  H   UNL     1     -47.149 -52.594  10.672  1.00  0.00     0.209 HD
ENDBRANCH  25  26
ENDBRANCH  16  25
ENDBRANCH   1  15
TORSDOF 8
ENDMDL
MODEL 2
REMARK VINA RESULT:      -5.8      4.133      7.100
REMARK  8 active torsions:
REMARK  status: ('A' for Active; 'I' for Inactive)
REMARK    1  A    between atoms: C_7  and  O_8 
REMARK    2  A    between atoms: O_8  and  C_9 
REMARK    3  A    between atoms: C_9  and  C_10 
REMARK    4  A    between atoms: C_10  and  O_11 
REMARK    5  A    between atoms: C_10  and  C_12 
REMARK    6  A    between atoms: C_12  and  N_13 
REMARK    7  A    between atoms: C_14  and  C_15 
REMARK    8  A    between atoms: C_15  and  O_16 
ROOT
HETATM    1  C   UNL     1     -41.796 -50.738  13.101  1.00  0.00     0.164 C 
ENDROOT
BRANCH   1   2
HETATM    2  C   UNL     1     -41.736 -49.897  11.820  1.00  0.00     0.160 C 
BRANCH   2   3
HETATM    3  C   UNL     1     -41.310 -48.429  12.030  1.00  0.00     0.209 C 
BRANCH   3   4
HETATM    4  O   UNL     1     -42.501 -47.658  12.231  1.00  0.00    -0.348 OA
BRANCH   4   5
HETATM    5  C   UNL     1     -43.188 -47.222  11.127  1.00  0.00     0.075 A 
HETATM    6  C   UNL     1     -42.708 -46.033  10.544  1.00  0.00    -0.029 A 
HETATM    7  C   UNL     1     -43.356 -45.501   9.419  1.00  0.00     0.010 A 
HETATM    8  C   UNL     1     -41.477 -45.354  11.080  1.00  0.00     0.051 C 
HETATM    9  C   UNL     1     -44.463 -46.143   8.868  1.00  0.00     0.007 A 
HETATM   10  C   UNL     1     -44.933 -47.336   9.424  1.00  0.00    -0.059 A 
HETATM   11  C   UNL     1     -46.094 -48.062   8.809  1.00  0.00     0.048 C 
HETATM   12  C   UNL     1     -44.296 -47.863  10.560  1.00  0.00     0.044 A 
ENDBRANCH   4   5
ENDBRANCH   3   4
ENDBRANCH   2   3
BRANCH   2  13
HETATM   13  O   UNL     1     -40.807 -50.574  10.948  1.00  0.00    -0.392 OA
HETATM   14  H   UNL     1     -41.295 -51.241  10.432  1.00  0.00     0.210 HD
ENDBRANCH   2  13
ENDBRANCH   1   2
BRANCH   1  15
HETATM   15  N   UNL     1     -42.610 -51.931  13.050  1.00  0.00    -0.330 N 
HETATM   16  C   UNL     1     -42.184 -53.232  12.879  1.00  0.00     0.108 A 
HETATM   17  N   UNL     1     -43.203 -54.070  12.959  1.00  0.00    -0.342 N 
HETATM   18  C   UNL     1     -44.299 -53.306  13.254  1.00  0.00     0.060 A 
ATOM     19  HN  UNL     1     -43.178 -55.081  12.826  1.00  0.00     0.167 HD
HETATM   20  C   UNL     1     -45.620 -53.704  13.506  1.00  0.00     0.032 A 
HETATM   21  C   UNL     1     -43.964 -51.959  13.315  1.00  0.00     0.062 A 
HETATM   22  C   UNL     1     -46.574 -52.724  13.806  1.00  0.00     0.002 A 
HETATM   23  C   UNL     1     -46.220 -51.375  13.851  1.00  0.00     0.002 A 
HETATM   24  C   UNL     1     -44.906 -50.963  13.608  1.00  0.00     0.032 A 
BRANCH  16  25
HETATM   25  C   UNL     1     -40.779 -53.669  12.642  1.00  0.00     0.240 C 
BRANCH  25  26
HETATM   26  O   UNL     1     -40.495 -53.428  11.269  1.00  0.00    -0.393 OA
HETATM   27  H   UNL     1     -39.948 -54.188  10.985  1.00  0.00     0.209 HD
ENDBRANCH  25  26
ENDBRANCH  16  25
ENDBRANCH   1  15
TORSDOF 8
ENDMDL
MODEL 3
REMARK VINA RESULT:      -5.7      2.785      5.690
REMARK  8 active torsions:
REMARK  status: ('A' for Active; 'I' for Inactive)
REMARK    1  A    between atoms: C_7  and  O_8 
REMARK    2  A    between atoms: O_8  and  C_9 
REMARK    3  A    between atoms: C_9  and  C_10 
REMARK    4  A    between atoms: C_10  and  O_11 
REMARK    5  A    between atoms: C_10  and  C_12 
REMARK    6  A    between atoms: C_12  and  N_13 
REMARK    7  A    between atoms: C_14  and  C_15 
REMARK    8  A    between atoms: C_15  and  O_16 
ROOT
HETATM    1  C   UNL     1     -40.958 -52.607  11.938  1.00  0.00     0.164 C 
ENDROOT
BRANCH   1   2
HETATM    2  C   UNL     1     -41.333 -51.125  12.059  1.00  0.00     0.160 C 
BRANCH   2   3
HETATM    3  C   UNL     1     -40.799 -50.425  13.326  1.00  0.00     0.209 C 
BRANCH   3   4
HETATM    4  O   UNL     1     -41.882 -49.678  13.895  1.00  0.00    -0.348 OA
BRANCH   4   5
HETATM    5  C   UNL     1     -42.859 -50.363  14.572  1.00  0.00     0.075 A 
HETATM    6  C   UNL     1     -42.455 -50.961  15.782  1.00  0.00    -0.029 A 
HETATM    7  C   UNL     1     -43.382 -51.695  16.536  1.00  0.00     0.010 A 
HETATM    8  C   UNL     1     -41.055 -50.778  16.302  1.00  0.00     0.051 C 
HETATM    9  C   UNL     1     -44.700 -51.832  16.105  1.00  0.00     0.007 A 
HETATM   10  C   UNL     1     -45.118 -51.223  14.918  1.00  0.00    -0.059 A 
HETATM   11  C   UNL     1     -46.546 -51.320  14.470  1.00  0.00     0.048 C 
HETATM   12  C   UNL     1     -44.187 -50.498  14.152  1.00  0.00     0.044 A 
ENDBRANCH   4   5
ENDBRANCH   3   4
ENDBRANCH   2   3
BRANCH   2  13
HETATM   13  O   UNL     1     -40.815 -50.490  10.872  1.00  0.00    -0.392 OA
HETATM   14  H   UNL     1     -40.316 -49.696  11.136  1.00  0.00     0.210 HD
ENDBRANCH   2  13
ENDBRANCH   1   2
BRANCH   1  15
HETATM   15  N   UNL     1     -41.393 -53.472  13.011  1.00  0.00    -0.330 N 
HETATM   16  C   UNL     1     -40.654 -53.908  14.092  1.00  0.00     0.108 A 
HETATM   17  N   UNL     1     -41.404 -54.627  14.909  1.00  0.00    -0.342 N 
HETATM   18  C   UNL     1     -42.668 -54.600  14.385  1.00  0.00     0.060 A 
ATOM     19  HN  UNL     1     -41.102 -55.106  15.758  1.00  0.00     0.167 HD
HETATM   20  C   UNL     1     -43.854 -55.153  14.891  1.00  0.00     0.032 A 
HETATM   21  C   UNL     1     -42.697 -53.888  13.192  1.00  0.00     0.062 A 
HETATM   22  C   UNL     1     -45.041 -54.975  14.171  1.00  0.00     0.002 A 
HETATM   23  C   UNL     1     -45.047 -54.266  12.970  1.00  0.00     0.002 A 
HETATM   24  C   UNL     1     -43.875 -53.705  12.455  1.00  0.00     0.032 A 
BRANCH  16  25
HETATM   25  C   UNL     1     -39.213 -53.622  14.338  1.00  0.00     0.240 C 
BRANCH  25  26
HETATM   26  O   UNL     1     -38.467 -54.476  13.479  1.00  0.00    -0.393 OA
HETATM   27  H   UNL     1     -37.656 -53.974  13.262  1.00  0.00     0.209 HD
ENDBRANCH  25  26
ENDBRANCH  16  25
ENDBRANCH   1  15
TORSDOF 8
ENDMDL
MODEL 4
REMARK VINA RESULT:      -5.7      3.476      5.705
REMARK  8 active torsions:
REMARK  status: ('A' for Active; 'I' for Inactive)
REMARK    1  A    between atoms: C_7  and  O_8 
REMARK    2  A    between atoms: O_8  and  C_9 
REMARK    3  A    between atoms: C_9  and  C_10 
REMARK    4  A    between atoms: C_10  and  O_11 
REMARK    5  A    between atoms: C_10  and  C_12 
REMARK    6  A    between atoms: C_12  and  N_13 
REMARK    7  A    between atoms: C_14  and  C_15 
REMARK    8  A    between atoms: C_15  and  O_16 
ROOT
HETATM    1  C   UNL     1     -40.630 -51.593  13.307  1.00  0.00     0.164 C 
ENDROOT
BRANCH   1   2
HETATM    2  C   UNL     1     -40.991 -52.845  12.500  1.00  0.00     0.160 C 
BRANCH   2   3
HETATM    3  C   UNL     1     -42.274 -53.565  12.962  1.00  0.00     0.209 C 
BRANCH   3   4
HETATM    4  O   UNL     1     -42.808 -52.829  14.069  1.00  0.00    -0.348 OA
BRANCH   4   5
HETATM    5  C   UNL     1     -44.096 -52.365  13.982  1.00  0.00     0.075 A 
HETATM    6  C   UNL     1     -44.633 -51.836  15.172  1.00  0.00    -0.029 A 
HETATM    7  C   UNL     1     -45.949 -51.352  15.184  1.00  0.00     0.010 A 
HETATM    8  C   UNL     1     -43.795 -51.737  16.418  1.00  0.00     0.051 C 
HETATM    9  C   UNL     1     -46.727 -51.380  14.028  1.00  0.00     0.007 A 
HETATM   10  C   UNL     1     -46.196 -51.880  12.836  1.00  0.00    -0.059 A 
HETATM   11  C   UNL     1     -47.006 -51.869  11.573  1.00  0.00     0.048 C 
HETATM   12  C   UNL     1     -44.882 -52.380  12.824  1.00  0.00     0.044 A 
ENDBRANCH   4   5
ENDBRANCH   3   4
ENDBRANCH   2   3
BRANCH   2  13
HETATM   13  O   UNL     1     -41.120 -52.406  11.131  1.00  0.00    -0.392 OA
HETATM   14  H   UNL     1     -40.816 -53.122  10.545  1.00  0.00     0.210 HD
ENDBRANCH   2  13
ENDBRANCH   1   2
BRANCH   1  15
HETATM   15  N   UNL     1     -40.361 -50.392  12.549  1.00  0.00    -0.330 N 
HETATM   16  C   UNL     1     -39.165 -50.011  11.974  1.00  0.00     0.108 A 
HETATM   17  N   UNL     1     -39.312 -48.887  11.295  1.00  0.00    -0.342 N 
HETATM   18  C   UNL     1     -40.641 -48.569  11.373  1.00  0.00     0.060 A 
ATOM     19  HN  UNL     1     -38.584 -48.362  10.811  1.00  0.00     0.167 HD
HETATM   20  C   UNL     1     -41.340 -47.507  10.779  1.00  0.00     0.032 A 
HETATM   21  C   UNL     1     -41.328 -49.489  12.156  1.00  0.00     0.062 A 
HETATM   22  C   UNL     1     -42.718 -47.401  10.997  1.00  0.00     0.002 A 
HETATM   23  C   UNL     1     -43.387 -48.329  11.795  1.00  0.00     0.002 A 
HETATM   24  C   UNL     1     -42.706 -49.395  12.391  1.00  0.00     0.032 A 
BRANCH  16  25
HETATM   25  C   UNL     1     -37.872 -50.744  12.078  1.00  0.00     0.240 C 
BRANCH  25  26
HETATM   26  O   UNL     1     -37.271 -50.710  10.790  1.00  0.00    -0.393 OA
HETATM   27  H   UNL     1     -37.236 -49.762  10.550  1.00  0.00     0.209 HD
ENDBRANCH  25  26
ENDBRANCH  16  25
ENDBRANCH   1  15
TORSDOF 8
ENDMDL
MODEL 5
REMARK VINA RESULT:      -5.6      2.839      4.521
REMARK  8 active torsions:
REMARK  status: ('A' for Active; 'I' for Inactive)
REMARK    1  A    between atoms: C_7  and  O_8 
REMARK    2  A    between atoms: O_8  and  C_9 
REMARK    3  A    between atoms: C_9  and  C_10 
REMARK    4  A    between atoms: C_10  and  O_11 
REMARK    5  A    between atoms: C_10  and  C_12 
REMARK    6  A    between atoms: C_12  and  N_13 
REMARK    7  A    between atoms: C_14  and  C_15 
REMARK    8  A    between atoms: C_15  and  O_16 
ROOT
HETATM    1  C   UNL     1     -39.764 -50.139  13.572  1.00  0.00     0.164 C 
ENDROOT
BRANCH   1   2
HETATM    2  C   UNL     1     -39.099 -51.389  12.985  1.00  0.00     0.160 C 
BRANCH   2   3
HETATM    3  C   UNL     1     -40.079 -52.462  12.468  1.00  0.00     0.209 C 
BRANCH   3   4
HETATM    4  O   UNL     1     -39.938 -53.616  13.305  1.00  0.00    -0.348 OA
BRANCH   4   5
HETATM    5  C   UNL     1     -41.057 -54.112  13.925  1.00  0.00     0.075 A 
HETATM    6  C   UNL     1     -40.854 -54.635  15.216  1.00  0.00    -0.029 A 
HETATM    7  C   UNL     1     -41.938 -55.179  15.922  1.00  0.00     0.010 A 
HETATM    8  C   UNL     1     -39.500 -54.572  15.870  1.00  0.00     0.051 C 
HETATM    9  C   UNL     1     -43.213 -55.197  15.362  1.00  0.00     0.007 A 
HETATM   10  C   UNL     1     -43.430 -54.658  14.091  1.00  0.00    -0.059 A 
HETATM   11  C   UNL     1     -44.808 -54.627  13.498  1.00  0.00     0.048 C 
HETATM   12  C   UNL     1     -42.344 -54.126  13.374  1.00  0.00     0.044 A 
ENDBRANCH   4   5
ENDBRANCH   3   4
ENDBRANCH   2   3
BRANCH   2  13
HETATM   13  O   UNL     1     -38.252 -50.918  11.915  1.00  0.00    -0.392 OA
HETATM   14  H   UNL     1     -38.811 -50.486  11.244  1.00  0.00     0.210 HD
ENDBRANCH   2  13
ENDBRANCH   1   2
BRANCH   1  15
HETATM   15  N   UNL     1     -41.175 -49.975  13.306  1.00  0.00    -0.330 N 
HETATM   16  C   UNL     1     -41.761 -49.453  12.171  1.00  0.00     0.108 A 
HETATM   17  N   UNL     1     -43.079 -49.528  12.251  1.00  0.00    -0.342 N 
HETATM   18  C   UNL     1     -43.351 -50.171  13.428  1.00  0.00     0.060 A 
ATOM     19  HN  UNL     1     -43.756 -49.177  11.574  1.00  0.00     0.167 HD
HETATM   20  C   UNL     1     -44.587 -50.559  13.966  1.00  0.00     0.032 A 
HETATM   21  C   UNL     1     -42.180 -50.463  14.118  1.00  0.00     0.062 A 
HETATM   22  C   UNL     1     -44.607 -51.229  15.195  1.00  0.00     0.002 A 
HETATM   23  C   UNL     1     -43.421 -51.502  15.877  1.00  0.00     0.002 A 
HETATM   24  C   UNL     1     -42.181 -51.127  15.352  1.00  0.00     0.032 A 
BRANCH  16  25
HETATM   25  C   UNL     1     -41.042 -48.883  10.998  1.00  0.00     0.240 C 
BRANCH  25  26
HETATM   26  O   UNL     1     -40.576 -49.981  10.223  1.00  0.00    -0.393 OA
HETATM   27  H   UNL     1     -41.358 -50.289   9.723  1.00  0.00     0.209 HD
ENDBRANCH  25  26
ENDBRANCH  16  25
ENDBRANCH   1  15
TORSDOF 8
ENDMDL
MODEL 6
REMARK VINA RESULT:      -5.6      4.564      6.129
REMARK  8 active torsions:
REMARK  status: ('A' for Active; 'I' for Inactive)
REMARK    1  A    between atoms: C_7  and  O_8 
REMARK    2  A    between atoms: O_8  and  C_9 
REMARK    3  A    between atoms: C_9  and  C_10 
REMARK    4  A    between atoms: C_10  and  O_11 
REMARK    5  A    between atoms: C_10  and  C_12 
REMARK    6  A    between atoms: C_12  and  N_13 
REMARK    7  A    between atoms: C_14  and  C_15 
REMARK    8  A    between atoms: C_15  and  O_16 
ROOT
HETATM    1  C   UNL     1     -41.207 -48.762  12.114  1.00  0.00     0.164 C 
ENDROOT
BRANCH   1   2
HETATM    2  C   UNL     1     -40.062 -49.688  11.689  1.00  0.00     0.160 C 
BRANCH   2   3
HETATM    3  C   UNL     1     -39.763 -50.840  12.669  1.00  0.00     0.209 C 
BRANCH   3   4
HETATM    4  O   UNL     1     -40.189 -52.059  12.047  1.00  0.00    -0.348 OA
BRANCH   4   5
HETATM    5  C   UNL     1     -41.262 -52.723  12.585  1.00  0.00     0.075 A 
HETATM    6  C   UNL     1     -40.946 -53.747  13.499  1.00  0.00    -0.029 A 
HETATM    7  C   UNL     1     -41.977 -54.493  14.090  1.00  0.00     0.010 A 
HETATM    8  C   UNL     1     -39.518 -54.018  13.890  1.00  0.00     0.051 C 
HETATM    9  C   UNL     1     -43.310 -54.224  13.788  1.00  0.00     0.007 A 
HETATM   10  C   UNL     1     -43.636 -53.194  12.901  1.00  0.00    -0.059 A 
HETATM   11  C   UNL     1     -45.069 -52.862  12.607  1.00  0.00     0.048 C 
HETATM   12  C   UNL     1     -42.605 -52.455  12.296  1.00  0.00     0.044 A 
ENDBRANCH   4   5
ENDBRANCH   3   4
ENDBRANCH   2   3
BRANCH   2  13
HETATM   13  O   UNL     1     -40.436 -50.207  10.395  1.00  0.00    -0.392 OA
HETATM   14  H   UNL     1     -39.940 -49.723   9.711  1.00  0.00     0.210 HD
ENDBRANCH   2  13
ENDBRANCH   1   2
BRANCH   1  15
HETATM   15  N   UNL     1     -41.147 -47.400  11.634  1.00  0.00    -0.330 N 
HETATM   16  C   UNL     1     -41.937 -46.816  10.664  1.00  0.00     0.108 A 
HETATM   17  N   UNL     1     -41.646 -45.533  10.538  1.00  0.00    -0.342 N 
HETATM   18  C   UNL     1     -40.699 -45.264  11.488  1.00  0.00     0.060 A 
ATOM     19  HN  UNL     1     -42.045 -44.876   9.867  1.00  0.00     0.167 HD
HETATM   20  C   UNL     1     -40.093 -44.044  11.822  1.00  0.00     0.032 A 
HETATM   21  C   UNL     1     -40.360 -46.414  12.192  1.00  0.00     0.062 A 
HETATM   22  C   UNL     1     -39.152 -44.019  12.858  1.00  0.00     0.002 A 
HETATM   23  C   UNL     1     -38.817 -45.187  13.544  1.00  0.00     0.002 A 
HETATM   24  C   UNL     1     -39.415 -46.409  13.227  1.00  0.00     0.032 A 
BRANCH  16  25
HETATM   25  C   UNL     1     -42.984 -47.503   9.858  1.00  0.00     0.240 C 
BRANCH  25  26
HETATM   26  O   UNL     1     -42.310 -48.259   8.859  1.00  0.00    -0.393 OA
HETATM   27  H   UNL     1     -42.144 -47.628   8.131  1.00  0.00     0.209 HD
ENDBRANCH  25  26
ENDBRANCH  16  25
ENDBRANCH   1  15
TORSDOF 8
ENDMDL
MODEL 7
REMARK VINA RESULT:      -5.5      2.555      4.429
REMARK  8 active torsions:
REMARK  status: ('A' for Active; 'I' for Inactive)
REMARK    1  A    between atoms: C_7  and  O_8 
REMARK    2  A    between atoms: O_8  and  C_9 
REMARK    3  A    between atoms: C_9  and  C_10 
REMARK    4  A    between atoms: C_10  and  O_11 
REMARK    5  A    between atoms: C_10  and  C_12 
REMARK    6  A    between atoms: C_12  and  N_13 
REMARK    7  A    between atoms: C_14  and  C_15 
REMARK    8  A    between atoms: C_15  and  O_16 
ROOT
HETATM    1  C   UNL     1     -39.413 -52.023  13.861  1.00  0.00     0.164 C 
ENDROOT
BRANCH   1   2
HETATM    2  C   UNL     1     -39.921 -53.457  13.673  1.00  0.00     0.160 C 
BRANCH   2   3
HETATM    3  C   UNL     1     -40.997 -53.624  12.580  1.00  0.00     0.209 C 
BRANCH   3   4
HETATM    4  O   UNL     1     -41.988 -54.527  13.085  1.00  0.00    -0.348 OA
BRANCH   4   5
HETATM    5  C   UNL     1     -43.153 -54.002  13.585  1.00  0.00     0.075 A 
HETATM    6  C   UNL     1     -43.556 -54.503  14.838  1.00  0.00    -0.029 A 
HETATM    7  C   UNL     1     -44.743 -54.037  15.422  1.00  0.00     0.010 A 
HETATM    8  C   UNL     1     -42.704 -55.496  15.581  1.00  0.00     0.051 C 
HETATM    9  C   UNL     1     -45.520 -53.075  14.781  1.00  0.00     0.007 A 
HETATM   10  C   UNL     1     -45.117 -52.553  13.549  1.00  0.00    -0.059 A 
HETATM   11  C   UNL     1     -45.920 -51.481  12.872  1.00  0.00     0.048 C 
HETATM   12  C   UNL     1     -43.936 -53.029  12.953  1.00  0.00     0.044 A 
ENDBRANCH   4   5
ENDBRANCH   3   4
ENDBRANCH   2   3
BRANCH   2  13
HETATM   13  O   UNL     1     -38.756 -54.250  13.362  1.00  0.00    -0.392 OA
HETATM   14  H   UNL     1     -39.047 -55.084  12.953  1.00  0.00     0.210 HD
ENDBRANCH   2  13
ENDBRANCH   1   2
BRANCH   1  15
HETATM   15  N   UNL     1     -40.388 -50.968  13.703  1.00  0.00    -0.330 N 
HETATM   16  C   UNL     1     -40.522 -50.100  12.639  1.00  0.00     0.108 A 
HETATM   17  N   UNL     1     -41.573 -49.315  12.808  1.00  0.00    -0.342 N 
HETATM   18  C   UNL     1     -42.169 -49.727  13.969  1.00  0.00     0.060 A 
ATOM     19  HN  UNL     1     -41.876 -48.557  12.198  1.00  0.00     0.167 HD
HETATM   20  C   UNL     1     -43.350 -49.271  14.574  1.00  0.00     0.032 A 
HETATM   21  C   UNL     1     -41.450 -50.759  14.559  1.00  0.00     0.062 A 
HETATM   22  C   UNL     1     -43.771 -49.869  15.767  1.00  0.00     0.002 A 
HETATM   23  C   UNL     1     -43.029 -50.897  16.349  1.00  0.00     0.002 A 
HETATM   24  C   UNL     1     -41.853 -51.366  15.757  1.00  0.00     0.032 A 
BRANCH  16  25
HETATM   25  C   UNL     1     -39.631 -50.033  11.447  1.00  0.00     0.240 C 
BRANCH  25  26
HETATM   26  O   UNL     1     -40.472 -50.044  10.299  1.00  0.00    -0.393 OA
HETATM   27  H   UNL     1     -40.244 -50.868   9.824  1.00  0.00     0.209 HD
ENDBRANCH  25  26
ENDBRANCH  16  25
ENDBRANCH   1  15
TORSDOF 8
ENDMDL
MODEL 8
REMARK VINA RESULT:      -5.5      4.161      7.290
REMARK  8 active torsions:
REMARK  status: ('A' for Active; 'I' for Inactive)
REMARK    1  A    between atoms: C_7  and  O_8 
REMARK    2  A    between atoms: O_8  and  C_9 
REMARK    3  A    between atoms: C_9  and  C_10 
REMARK    4  A    between atoms: C_10  and  O_11 
REMARK    5  A    between atoms: C_10  and  C_12 
REMARK    6  A    between atoms: C_12  and  N_13 
REMARK    7  A    between atoms: C_14  and  C_15 
REMARK    8  A    between atoms: C_15  and  O_16 
ROOT
HETATM    1  C   UNL     1     -41.175 -52.186  11.907  1.00  0.00     0.164 C 
ENDROOT
BRANCH   1   2
HETATM    2  C   UNL     1     -41.304 -50.712  12.310  1.00  0.00     0.160 C 
BRANCH   2   3
HETATM    3  C   UNL     1     -40.234 -49.780  11.706  1.00  0.00     0.209 C 
BRANCH   3   4
HETATM    4  O   UNL     1     -40.891 -48.913  10.774  1.00  0.00    -0.348 OA
BRANCH   4   5
HETATM    5  C   UNL     1     -40.897 -47.566  11.032  1.00  0.00     0.075 A 
HETATM    6  C   UNL     1     -41.921 -46.832  10.402  1.00  0.00    -0.029 A 
HETATM    7  C   UNL     1     -41.999 -45.444  10.594  1.00  0.00     0.010 A 
HETATM    8  C   UNL     1     -42.963 -47.524   9.566  1.00  0.00     0.051 C 
HETATM    9  C   UNL     1     -41.080 -44.788  11.410  1.00  0.00     0.007 A 
HETATM   10  C   UNL     1     -40.075 -45.510  12.060  1.00  0.00    -0.059 A 
HETATM   11  C   UNL     1     -39.111 -44.821  12.980  1.00  0.00     0.048 C 
HETATM   12  C   UNL     1     -39.985 -46.898  11.857  1.00  0.00     0.044 A 
ENDBRANCH   4   5
ENDBRANCH   3   4
ENDBRANCH   2   3
BRANCH   2  13
HETATM   13  O   UNL     1     -42.625 -50.304  11.894  1.00  0.00    -0.392 OA
HETATM   14  H   UNL     1     -43.101 -51.086  11.560  1.00  0.00     0.210 HD
ENDBRANCH   2  13
ENDBRANCH   1   2
BRANCH   1  15
HETATM   15  N   UNL     1     -41.506 -53.162  12.919  1.00  0.00    -0.330 N 
HETATM   16  C   UNL     1     -40.682 -53.662  13.906  1.00  0.00     0.108 A 
HETATM   17  N   UNL     1     -41.348 -54.484  14.698  1.00  0.00    -0.342 N 
HETATM   18  C   UNL     1     -42.644 -54.465  14.259  1.00  0.00     0.060 A 
ATOM     19  HN  UNL     1     -40.973 -55.024  15.478  1.00  0.00     0.167 HD
HETATM   20  C   UNL     1     -43.773 -55.111  14.784  1.00  0.00     0.032 A 
HETATM   21  C   UNL     1     -42.778 -53.649  13.142  1.00  0.00     0.062 A 
HETATM   22  C   UNL     1     -45.011 -54.921  14.160  1.00  0.00     0.002 A 
HETATM   23  C   UNL     1     -45.122 -54.107  13.033  1.00  0.00     0.002 A 
HETATM   24  C   UNL     1     -44.009 -53.451  12.500  1.00  0.00     0.032 A 
BRANCH  16  25
HETATM   25  C   UNL     1     -39.239 -53.337  14.088  1.00  0.00     0.240 C 
BRANCH  25  26
HETATM   26  O   UNL     1     -38.498 -54.348  13.415  1.00  0.00    -0.393 OA
HETATM   27  H   UNL     1     -37.702 -53.894  13.071  1.00  0.00     0.209 HD
ENDBRANCH  25  26
ENDBRANCH  16  25
ENDBRANCH   1  15
TORSDOF 8
ENDMDL
MODEL 9
REMARK VINA RESULT:      -5.4      6.080      8.334
REMARK  8 active torsions:
REMARK  status: ('A' for Active; 'I' for Inactive)
REMARK    1  A    between atoms: C_7  and  O_8 
REMARK    2  A    between atoms: O_8  and  C_9 
REMARK    3  A    between atoms: C_9  and  C_10 
REMARK    4  A    between atoms: C_10  and  O_11 
REMARK    5  A    between atoms: C_10  and  C_12 
REMARK    6  A    between atoms: C_12  and  N_13 
REMARK    7  A    between atoms: C_14  and  C_15 
REMARK    8  A    between atoms: C_15  and  O_16 
ROOT
HETATM    1  C   UNL     1     -40.364 -45.465  10.345  1.00  0.00     0.164 C 
ENDROOT
BRANCH   1   2
HETATM    2  C   UNL     1     -40.773 -44.254  11.192  1.00  0.00     0.160 C 
BRANCH   2   3
HETATM    3  C   UNL     1     -40.022 -44.120  12.532  1.00  0.00     0.209 C 
BRANCH   3   4
HETATM    4  O   UNL     1     -40.934 -44.479  13.577  1.00  0.00    -0.348 OA
BRANCH   4   5
HETATM    5  C   UNL     1     -40.719 -45.653  14.253  1.00  0.00     0.075 A 
HETATM    6  C   UNL     1     -41.821 -46.528  14.315  1.00  0.00    -0.029 A 
HETATM    7  C   UNL     1     -41.701 -47.747  14.999  1.00  0.00     0.010 A 
HETATM    8  C   UNL     1     -43.110 -46.196  13.614  1.00  0.00     0.051 C 
HETATM    9  C   UNL     1     -40.500 -48.104  15.609  1.00  0.00     0.007 A 
HETATM   10  C   UNL     1     -39.393 -47.254  15.532  1.00  0.00    -0.059 A 
HETATM   11  C   UNL     1     -38.081 -47.650  16.142  1.00  0.00     0.048 C 
HETATM   12  C   UNL     1     -39.515 -46.025  14.861  1.00  0.00     0.044 A 
ENDBRANCH   4   5
ENDBRANCH   3   4
ENDBRANCH   2   3
BRANCH   2  13
HETATM   13  O   UNL     1     -40.541 -43.097  10.362  1.00  0.00    -0.392 OA
HETATM   14  H   UNL     1     -39.736 -42.647  10.674  1.00  0.00     0.210 HD
ENDBRANCH   2  13
ENDBRANCH   1   2
BRANCH   1  15
HETATM   15  N   UNL     1     -41.085 -46.694  10.587  1.00  0.00    -0.330 N 
HETATM   16  C   UNL     1     -42.334 -47.043  10.116  1.00  0.00     0.108 A 
HETATM   17  N   UNL     1     -42.642 -48.275  10.481  1.00  0.00    -0.342 N 
HETATM   18  C   UNL     1     -41.547 -48.759  11.143  1.00  0.00     0.060 A 
ATOM     19  HN  UNL     1     -43.519 -48.766  10.306  1.00  0.00     0.167 HD
HETATM   20  C   UNL     1     -41.323 -50.034  11.683  1.00  0.00     0.032 A 
HETATM   21  C   UNL     1     -40.552 -47.792  11.232  1.00  0.00     0.062 A 
HETATM   22  C   UNL     1     -40.098 -50.298  12.307  1.00  0.00     0.002 A 
HETATM   23  C   UNL     1     -39.117 -49.309  12.395  1.00  0.00     0.002 A 
HETATM   24  C   UNL     1     -39.322 -48.035  11.858  1.00  0.00     0.032 A 
BRANCH  16  25
HETATM   25  C   UNL     1     -43.234 -46.179   9.301  1.00  0.00     0.240 C 
BRANCH  25  26
HETATM   26  O   UNL     1     -42.682 -46.124   7.991  1.00  0.00    -0.393 OA
HETATM   27  H   UNL     1     -43.047 -46.904   7.527  1.00  0.00     0.209 HD
ENDBRANCH  25  26
ENDBRANCH  16  25
ENDBRANCH   1  15
TORSDOF 8
ENDMDL
