MODEL 1
REMARK VINA RESULT:      -6.5      0.000      0.000
REMARK  5 active torsions:
REMARK  status: ('A' for Active; 'I' for Inactive)
REMARK    1  A    between atoms: C_2  and  N_3 
REMARK    2  A    between atoms: C_2  and  C_14 
REMARK    3  A    between atoms: N_3  and  C_4 
REMARK    4  A    between atoms: C_4  and  C_5 
REMARK       I    between atoms: C_5  and  N_7 
REMARK    5  A    between atoms: C_14  and  N_16 
ROOT
HETATM    1  N   UNL     1     -41.533 -49.715  11.000  1.00  0.00     0.098 N 
HETATM    2  H   UNL     1     -40.943 -50.433  10.570  1.00  0.00     0.317 HD
ENDROOT
BRANCH   1   3
HETATM    3  C   UNL     1     -40.825 -48.410  10.985  1.00  0.00     0.241 C 
HETATM    4  C   UNL     1     -39.805 -48.337  12.133  1.00  0.00     0.045 C 
BRANCH   3   5
HETATM    5  C   UNL     1     -41.771 -47.161  10.926  1.00  0.00     0.136 C 
HETATM    6  C   UNL     1     -41.046 -45.862  10.552  1.00  0.00     0.036 C 
BRANCH   5   7
HETATM    7  N   UNL     1     -42.921 -47.316  10.027  1.00  0.00    -0.297 N 
HETATM    8  C   UNL     1     -44.239 -47.465  10.348  1.00  0.00     0.118 A 
HETATM    9  C   UNL     1     -44.927 -47.634   9.162  1.00  0.00    -0.028 A 
HETATM   10  C   UNL     1     -46.389 -47.753   8.956  1.00  0.00     0.051 C 
HETATM   11  C   UNL     1     -43.908 -47.631   8.185  1.00  0.00     0.115 A 
HETATM   12  N   UNL     1     -42.696 -47.414   8.700  1.00  0.00    -0.309 N 
ATOM     13  HN  UNL     1     -41.808 -47.340   8.205  1.00  0.00     0.186 HD
ENDBRANCH   5   7
ENDBRANCH   3   5
ENDBRANCH   1   3
BRANCH   1  14
HETATM   14  C   UNL     1     -41.886 -50.184  12.352  1.00  0.00     0.372 C 
BRANCH  14  15
HETATM   15  C   UNL     1     -42.120 -51.700  12.361  1.00  0.00     0.248 C 
HETATM   16  O   UNL     1     -41.419 -52.434  11.659  1.00  0.00    -0.271 OA
HETATM   17  N   UNL     1     -43.088 -52.198  13.214  1.00  0.00    -0.346 N 
HETATM   18  C   UNL     1     -43.144 -53.629  13.507  1.00  0.00     0.152 C 
HETATM   19  C   UNL     1     -44.215 -51.432  13.761  1.00  0.00     0.157 C 
HETATM   20  C   UNL     1     -44.504 -54.215  13.135  1.00  0.00     0.188 C 
HETATM   21  O   UNL     1     -45.565 -53.487  13.772  1.00  0.00    -0.383 OA
HETATM   22  C   UNL     1     -45.548 -52.105  13.374  1.00  0.00     0.135 C 
HETATM   23  C   UNL     1     -46.728 -51.443  14.054  1.00  0.00     0.041 C 
ENDBRANCH  14  15
ENDBRANCH   1  14
TORSDOF 5
ENDMDL
MODEL 2
REMARK VINA RESULT:      -6.2      1.823      2.092
REMARK  5 active torsions:
REMARK  status: ('A' for Active; 'I' for Inactive)
REMARK    1  A    between atoms: C_2  and  N_3 
REMARK    2  A    between atoms: C_2  and  C_14 
REMARK    3  A    between atoms: N_3  and  C_4 
REMARK    4  A    between atoms: C_4  and  C_5 
REMARK       I    between atoms: C_5  and  N_7 
REMARK    5  A    between atoms: C_14  and  N_16 
ROOT
HETATM    1  N   UNL     1     -40.843 -51.303  11.219  1.00  0.00     0.098 N 
HETATM    2  H   UNL     1     -40.010 -51.860  11.430  1.00  0.00     0.317 HD
ENDROOT
BRANCH   1   3
HETATM    3  C   UNL     1     -40.512 -49.857  11.305  1.00  0.00     0.241 C 
HETATM    4  C   UNL     1     -39.192 -49.651  12.066  1.00  0.00     0.045 C 
BRANCH   3   5
HETATM    5  C   UNL     1     -41.677 -48.957  11.843  1.00  0.00     0.136 C 
HETATM    6  C   UNL     1     -41.209 -47.872  12.821  1.00  0.00     0.036 C 
BRANCH   5   7
HETATM    7  N   UNL     1     -42.475 -48.312  10.794  1.00  0.00    -0.297 N 
HETATM    8  C   UNL     1     -43.757 -47.848  10.864  1.00  0.00     0.118 A 
HETATM    9  C   UNL     1     -44.087 -47.381   9.606  1.00  0.00    -0.028 A 
HETATM   10  C   UNL     1     -45.331 -46.703   9.173  1.00  0.00     0.051 C 
HETATM   11  C   UNL     1     -42.941 -47.671   8.835  1.00  0.00     0.115 A 
HETATM   12  N   UNL     1     -41.954 -48.211   9.553  1.00  0.00    -0.309 N 
ATOM     13  HN  UNL     1     -41.024 -48.483   9.239  1.00  0.00     0.186 HD
ENDBRANCH   5   7
ENDBRANCH   3   5
ENDBRANCH   1   3
BRANCH   1  14
HETATM   14  C   UNL     1     -41.905 -51.726  12.149  1.00  0.00     0.372 C 
BRANCH  14  15
HETATM   15  C   UNL     1     -41.364 -52.727  13.178  1.00  0.00     0.248 C 
HETATM   16  O   UNL     1     -40.167 -53.023  13.176  1.00  0.00    -0.271 OA
HETATM   17  N   UNL     1     -42.247 -53.224  14.119  1.00  0.00    -0.346 N 
HETATM   18  C   UNL     1     -41.745 -53.918  15.304  1.00  0.00     0.152 C 
HETATM   19  C   UNL     1     -43.708 -53.269  13.975  1.00  0.00     0.157 C 
HETATM   20  C   UNL     1     -42.313 -55.333  15.396  1.00  0.00     0.188 C 
HETATM   21  O   UNL     1     -43.747 -55.311  15.344  1.00  0.00    -0.383 OA
HETATM   22  C   UNL     1     -44.207 -54.723  14.116  1.00  0.00     0.135 C 
HETATM   23  C   UNL     1     -45.720 -54.796  14.138  1.00  0.00     0.041 C 
ENDBRANCH  14  15
ENDBRANCH   1  14
TORSDOF 5
ENDMDL
MODEL 3
REMARK VINA RESULT:      -6.1      2.638      6.772
REMARK  5 active torsions:
REMARK  status: ('A' for Active; 'I' for Inactive)
REMARK    1  A    between atoms: C_2  and  N_3 
REMARK    2  A    between atoms: C_2  and  C_14 
REMARK    3  A    between atoms: N_3  and  C_4 
REMARK    4  A    between atoms: C_4  and  C_5 
REMARK       I    between atoms: C_5  and  N_7 
REMARK    5  A    between atoms: C_14  and  N_16 
ROOT
HETATM    1  N   UNL     1     -40.115 -50.877  11.900  1.00  0.00     0.098 N 
HETATM    2  H   UNL     1     -40.034 -51.470  11.069  1.00  0.00     0.317 HD
ENDROOT
BRANCH   1   3
HETATM    3  C   UNL     1     -40.347 -51.724  13.098  1.00  0.00     0.241 C 
HETATM    4  C   UNL     1     -39.150 -51.637  14.059  1.00  0.00     0.045 C 
BRANCH   3   5
HETATM    5  C   UNL     1     -40.769 -53.199  12.776  1.00  0.00     0.136 C 
HETATM    6  C   UNL     1     -40.029 -54.244  13.622  1.00  0.00     0.036 C 
BRANCH   5   7
HETATM    7  N   UNL     1     -42.210 -53.454  12.894  1.00  0.00    -0.297 N 
HETATM    8  C   UNL     1     -42.859 -54.280  13.765  1.00  0.00     0.118 A 
HETATM    9  C   UNL     1     -44.202 -54.227  13.447  1.00  0.00    -0.028 A 
HETATM   10  C   UNL     1     -45.340 -54.875  14.142  1.00  0.00     0.051 C 
HETATM   11  C   UNL     1     -44.242 -53.378  12.320  1.00  0.00     0.115 A 
HETATM   12  N   UNL     1     -43.043 -52.888  11.997  1.00  0.00    -0.309 N 
ATOM     13  HN  UNL     1     -42.811 -52.238  11.247  1.00  0.00     0.186 HD
ENDBRANCH   5   7
ENDBRANCH   3   5
ENDBRANCH   1   3
BRANCH   1  14
HETATM   14  C   UNL     1     -41.190 -49.902  11.643  1.00  0.00     0.372 C 
BRANCH  14  15
HETATM   15  C   UNL     1     -40.678 -48.467  11.816  1.00  0.00     0.248 C 
HETATM   16  O   UNL     1     -39.942 -48.187  12.766  1.00  0.00    -0.271 OA
HETATM   17  N   UNL     1     -41.023 -47.539  10.850  1.00  0.00    -0.346 N 
HETATM   18  C   UNL     1     -40.322 -46.258  10.777  1.00  0.00     0.152 C 
HETATM   19  C   UNL     1     -42.175 -47.642   9.945  1.00  0.00     0.157 C 
HETATM   20  C   UNL     1     -41.295 -45.088  10.911  1.00  0.00     0.188 C 
HETATM   21  O   UNL     1     -42.349 -45.189   9.941  1.00  0.00    -0.383 OA
HETATM   22  C   UNL     1     -43.089 -46.410  10.113  1.00  0.00     0.135 C 
HETATM   23  C   UNL     1     -44.200 -46.392   9.084  1.00  0.00     0.041 C 
ENDBRANCH  14  15
ENDBRANCH   1  14
TORSDOF 5
ENDMDL
MODEL 4
REMARK VINA RESULT:      -6.1      2.318      6.398
REMARK  5 active torsions:
REMARK  status: ('A' for Active; 'I' for Inactive)
REMARK    1  A    between atoms: C_2  and  N_3 
REMARK    2  A    between atoms: C_2  and  C_14 
REMARK    3  A    between atoms: N_3  and  C_4 
REMARK    4  A    between atoms: C_4  and  C_5 
REMARK       I    between atoms: C_5  and  N_7 
REMARK    5  A    between atoms: C_14  and  N_16 
ROOT
HETATM    1  N   UNL     1     -42.259 -50.420  12.008  1.00  0.00     0.098 N 
HETATM    2  H   UNL     1     -42.532 -49.690  12.672  1.00  0.00     0.317 HD
ENDROOT
BRANCH   1   3
HETATM    3  C   UNL     1     -42.017 -51.693  12.735  1.00  0.00     0.241 C 
HETATM    4  C   UNL     1     -40.638 -52.267  12.370  1.00  0.00     0.045 C 
BRANCH   3   5
HETATM    5  C   UNL     1     -43.172 -52.744  12.603  1.00  0.00     0.136 C 
HETATM    6  C   UNL     1     -42.863 -54.081  13.288  1.00  0.00     0.036 C 
BRANCH   5   7
HETATM    7  N   UNL     1     -44.475 -52.273  13.091  1.00  0.00    -0.297 N 
HETATM    8  C   UNL     1     -44.898 -52.125  14.380  1.00  0.00     0.118 A 
HETATM    9  C   UNL     1     -46.215 -51.712  14.327  1.00  0.00    -0.028 A 
HETATM   10  C   UNL     1     -47.106 -51.332  15.449  1.00  0.00     0.051 C 
HETATM   11  C   UNL     1     -46.504 -51.702  12.946  1.00  0.00     0.115 A 
HETATM   12  N   UNL     1     -45.448 -52.016  12.192  1.00  0.00    -0.309 N 
ATOM     13  HN  UNL     1     -45.391 -52.053  11.175  1.00  0.00     0.186 HD
ENDBRANCH   5   7
ENDBRANCH   3   5
ENDBRANCH   1   3
BRANCH   1  14
HETATM   14  C   UNL     1     -41.085 -49.926  11.266  1.00  0.00     0.372 C 
BRANCH  14  15
HETATM   15  C   UNL     1     -40.838 -48.441  11.561  1.00  0.00     0.248 C 
HETATM   16  O   UNL     1     -40.187 -48.112  12.556  1.00  0.00    -0.271 OA
HETATM   17  N   UNL     1     -41.314 -47.515  10.650  1.00  0.00    -0.346 N 
HETATM   18  C   UNL     1     -40.847 -46.131  10.696  1.00  0.00     0.152 C 
HETATM   19  C   UNL     1     -42.407 -47.746   9.696  1.00  0.00     0.157 C 
HETATM   20  C   UNL     1     -42.014 -45.161  10.875  1.00  0.00     0.188 C 
HETATM   21  O   UNL     1     -43.008 -45.367   9.860  1.00  0.00    -0.383 OA
HETATM   22  C   UNL     1     -43.526 -46.707   9.916  1.00  0.00     0.135 C 
HETATM   23  C   UNL     1     -44.597 -46.803   8.848  1.00  0.00     0.041 C 
ENDBRANCH  14  15
ENDBRANCH   1  14
TORSDOF 5
ENDMDL
MODEL 5
REMARK VINA RESULT:      -6.0      1.323      1.995
REMARK  5 active torsions:
REMARK  status: ('A' for Active; 'I' for Inactive)
REMARK    1  A    between atoms: C_2  and  N_3 
REMARK    2  A    between atoms: C_2  and  C_14 
REMARK    3  A    between atoms: N_3  and  C_4 
REMARK    4  A    between atoms: C_4  and  C_5 
REMARK       I    between atoms: C_5  and  N_7 
REMARK    5  A    between atoms: C_14  and  N_16 
ROOT
HETATM    1  N   UNL     1     -41.579 -50.390  11.300  1.00  0.00     0.098 N 
HETATM    2  H   UNL     1     -41.209 -51.206  10.805  1.00  0.00     0.317 HD
ENDROOT
BRANCH   1   3
HETATM    3  C   UNL     1     -40.738 -49.202  11.005  1.00  0.00     0.241 C 
HETATM    4  C   UNL     1     -39.435 -49.249  11.820  1.00  0.00     0.045 C 
BRANCH   3   5
HETATM    5  C   UNL     1     -41.487 -47.831  11.127  1.00  0.00     0.136 C 
HETATM    6  C   UNL     1     -40.576 -46.615  10.916  1.00  0.00     0.036 C 
BRANCH   5   7
HETATM    7  N   UNL     1     -42.644 -47.694  10.233  1.00  0.00    -0.297 N 
HETATM    8  C   UNL     1     -43.949 -47.465  10.560  1.00  0.00     0.118 A 
HETATM    9  C   UNL     1     -44.669 -47.477   9.381  1.00  0.00    -0.028 A 
HETATM   10  C   UNL     1     -46.110 -47.198   9.179  1.00  0.00     0.051 C 
HETATM   11  C   UNL     1     -43.698 -47.785   8.404  1.00  0.00     0.115 A 
HETATM   12  N   UNL     1     -42.468 -47.892   8.910  1.00  0.00    -0.309 N 
ATOM     13  HN  UNL     1     -41.598 -48.080   8.414  1.00  0.00     0.186 HD
ENDBRANCH   5   7
ENDBRANCH   3   5
ENDBRANCH   1   3
BRANCH   1  14
HETATM   14  C   UNL     1     -41.642 -50.732  12.732  1.00  0.00     0.372 C 
BRANCH  14  15
HETATM   15  C   UNL     1     -43.087 -50.676  13.244  1.00  0.00     0.248 C 
HETATM   16  O   UNL     1     -43.627 -49.584  13.441  1.00  0.00    -0.271 OA
HETATM   17  N   UNL     1     -43.758 -51.874  13.414  1.00  0.00    -0.346 N 
HETATM   18  C   UNL     1     -45.209 -51.885  13.586  1.00  0.00     0.152 C 
HETATM   19  C   UNL     1     -43.123 -53.184  13.604  1.00  0.00     0.157 C 
HETATM   20  C   UNL     1     -45.603 -52.557  14.901  1.00  0.00     0.188 C 
HETATM   21  O   UNL     1     -45.033 -53.871  14.993  1.00  0.00    -0.383 OA
HETATM   22  C   UNL     1     -43.598 -53.812  14.931  1.00  0.00     0.135 C 
HETATM   23  C   UNL     1     -43.098 -55.234  15.089  1.00  0.00     0.041 C 
ENDBRANCH  14  15
ENDBRANCH   1  14
TORSDOF 5
ENDMDL
MODEL 6
REMARK VINA RESULT:      -5.9      2.580      3.321
REMARK  5 active torsions:
REMARK  status: ('A' for Active; 'I' for Inactive)
REMARK    1  A    between atoms: C_2  and  N_3 
REMARK    2  A    between atoms: C_2  and  C_14 
REMARK    3  A    between atoms: N_3  and  C_4 
REMARK    4  A    between atoms: C_4  and  C_5 
REMARK       I    between atoms: C_5  and  N_7 
REMARK    5  A    between atoms: C_14  and  N_16 
ROOT
HETATM    1  N   UNL     1     -40.155 -50.396  10.972  1.00  0.00     0.098 N 
HETATM    2  H   UNL     1     -39.755 -51.332  10.863  1.00  0.00     0.317 HD
ENDROOT
BRANCH   1   3
HETATM    3  C   UNL     1     -39.091 -49.443  11.380  1.00  0.00     0.241 C 
HETATM    4  C   UNL     1     -37.806 -50.199  11.755  1.00  0.00     0.045 C 
BRANCH   3   5
HETATM    5  C   UNL     1     -39.533 -48.407  12.470  1.00  0.00     0.136 C 
HETATM    6  C   UNL     1     -38.564 -48.318  13.656  1.00  0.00     0.036 C 
BRANCH   5   7
HETATM    7  N   UNL     1     -39.753 -47.049  11.958  1.00  0.00    -0.297 N 
HETATM    8  C   UNL     1     -39.749 -45.870  12.645  1.00  0.00     0.118 A 
HETATM    9  C   UNL     1     -40.064 -44.874  11.740  1.00  0.00    -0.028 A 
HETATM   10  C   UNL     1     -40.110 -43.410  11.962  1.00  0.00     0.051 C 
HETATM   11  C   UNL     1     -40.299 -45.580  10.540  1.00  0.00     0.115 A 
HETATM   12  N   UNL     1     -40.087 -46.892  10.660  1.00  0.00    -0.309 N 
ATOM     13  HN  UNL     1     -40.161 -47.609   9.939  1.00  0.00     0.186 HD
ENDBRANCH   5   7
ENDBRANCH   3   5
ENDBRANCH   1   3
BRANCH   1  14
HETATM   14  C   UNL     1     -41.264 -50.497  11.937  1.00  0.00     0.372 C 
BRANCH  14  15
HETATM   15  C   UNL     1     -41.439 -51.943  12.418  1.00  0.00     0.248 C 
HETATM   16  O   UNL     1     -40.606 -52.799  12.108  1.00  0.00    -0.271 OA
HETATM   17  N   UNL     1     -42.514 -52.223  13.242  1.00  0.00    -0.346 N 
HETATM   18  C   UNL     1     -42.563 -53.480  13.986  1.00  0.00     0.152 C 
HETATM   19  C   UNL     1     -43.743 -51.425  13.337  1.00  0.00     0.157 C 
HETATM   20  C   UNL     1     -43.821 -54.275  13.642  1.00  0.00     0.188 C 
HETATM   21  O   UNL     1     -44.998 -53.478  13.841  1.00  0.00    -0.383 OA
HETATM   22  C   UNL     1     -44.969 -52.304  13.012  1.00  0.00     0.135 C 
HETATM   23  C   UNL     1     -46.269 -51.566  13.258  1.00  0.00     0.041 C 
ENDBRANCH  14  15
ENDBRANCH   1  14
TORSDOF 5
ENDMDL
MODEL 7
REMARK VINA RESULT:      -5.9      1.519      2.866
REMARK  5 active torsions:
REMARK  status: ('A' for Active; 'I' for Inactive)
REMARK    1  A    between atoms: C_2  and  N_3 
REMARK    2  A    between atoms: C_2  and  C_14 
REMARK    3  A    between atoms: N_3  and  C_4 
REMARK    4  A    between atoms: C_4  and  C_5 
REMARK       I    between atoms: C_5  and  N_7 
REMARK    5  A    between atoms: C_14  and  N_16 
ROOT
HETATM    1  N   UNL     1     -41.643 -49.906  11.396  1.00  0.00     0.098 N 
HETATM    2  H   UNL     1     -41.310 -50.542  10.667  1.00  0.00     0.317 HD
ENDROOT
BRANCH   1   3
HETATM    3  C   UNL     1     -40.908 -48.618  11.310  1.00  0.00     0.241 C 
HETATM    4  C   UNL     1     -40.418 -48.183  12.701  1.00  0.00     0.045 C 
BRANCH   3   5
HETATM    5  C   UNL     1     -41.677 -47.483  10.549  1.00  0.00     0.136 C 
HETATM    6  C   UNL     1     -43.151 -47.366  10.955  1.00  0.00     0.036 C 
BRANCH   5   7
HETATM    7  N   UNL     1     -41.064 -46.154  10.668  1.00  0.00    -0.297 N 
HETATM    8  C   UNL     1     -41.596 -45.017  11.204  1.00  0.00     0.118 A 
HETATM    9  C   UNL     1     -40.661 -44.015  11.031  1.00  0.00    -0.028 A 
HETATM   10  C   UNL     1     -40.716 -42.613  11.509  1.00  0.00     0.051 C 
HETATM   11  C   UNL     1     -39.621 -44.650  10.319  1.00  0.00     0.115 A 
HETATM   12  N   UNL     1     -39.849 -45.950  10.119  1.00  0.00    -0.309 N 
ATOM     13  HN  UNL     1     -39.244 -46.630   9.659  1.00  0.00     0.186 HD
ENDBRANCH   5   7
ENDBRANCH   3   5
ENDBRANCH   1   3
BRANCH   1  14
HETATM   14  C   UNL     1     -41.486 -50.594  12.689  1.00  0.00     0.372 C 
BRANCH  14  15
HETATM   15  C   UNL     1     -41.882 -52.072  12.574  1.00  0.00     0.248 C 
HETATM   16  O   UNL     1     -41.207 -52.835  11.878  1.00  0.00    -0.271 OA
HETATM   17  N   UNL     1     -42.966 -52.508  13.312  1.00  0.00    -0.346 N 
HETATM   18  C   UNL     1     -43.200 -53.939  13.500  1.00  0.00     0.152 C 
HETATM   19  C   UNL     1     -44.047 -51.654  13.823  1.00  0.00     0.157 C 
HETATM   20  C   UNL     1     -44.580 -54.344  12.983  1.00  0.00     0.188 C 
HETATM   21  O   UNL     1     -45.606 -53.541  13.585  1.00  0.00    -0.383 OA
HETATM   22  C   UNL     1     -45.407 -52.148  13.287  1.00  0.00     0.135 C 
HETATM   23  C   UNL     1     -46.563 -51.400  13.919  1.00  0.00     0.041 C 
ENDBRANCH  14  15
ENDBRANCH   1  14
TORSDOF 5
ENDMDL
MODEL 8
REMARK VINA RESULT:      -5.7      3.588      5.839
REMARK  5 active torsions:
REMARK  status: ('A' for Active; 'I' for Inactive)
REMARK    1  A    between atoms: C_2  and  N_3 
REMARK    2  A    between atoms: C_2  and  C_14 
REMARK    3  A    between atoms: N_3  and  C_4 
REMARK    4  A    between atoms: C_4  and  C_5 
REMARK       I    between atoms: C_5  and  N_7 
REMARK    5  A    between atoms: C_14  and  N_16 
ROOT
HETATM    1  N   UNL     1     -39.450 -49.894  10.893  1.00  0.00     0.098 N 
HETATM    2  H   UNL     1     -39.439 -49.517   9.941  1.00  0.00     0.317 HD
ENDROOT
BRANCH   1   3
HETATM    3  C   UNL     1     -40.600 -49.327  11.643  1.00  0.00     0.241 C 
HETATM    4  C   UNL     1     -41.586 -50.439  12.037  1.00  0.00     0.045 C 
BRANCH   3   5
HETATM    5  C   UNL     1     -41.297 -48.112  10.939  1.00  0.00     0.136 C 
HETATM    6  C   UNL     1     -42.770 -47.942  11.330  1.00  0.00     0.036 C 
BRANCH   5   7
HETATM    7  N   UNL     1     -40.619 -46.826  11.144  1.00  0.00    -0.297 N 
HETATM    8  C   UNL     1     -40.352 -46.183  12.318  1.00  0.00     0.118 A 
HETATM    9  C   UNL     1     -39.754 -44.981  11.993  1.00  0.00    -0.028 A 
HETATM   10  C   UNL     1     -39.198 -43.953  12.904  1.00  0.00     0.051 C 
HETATM   11  C   UNL     1     -39.765 -44.977  10.582  1.00  0.00     0.115 A 
HETATM   12  N   UNL     1     -40.264 -46.101  10.063  1.00  0.00    -0.309 N 
ATOM     13  HN  UNL     1     -40.356 -46.353   9.080  1.00  0.00     0.186 HD
ENDBRANCH   5   7
ENDBRANCH   3   5
ENDBRANCH   1   3
BRANCH   1  14
HETATM   14  C   UNL     1     -38.140 -49.597  11.500  1.00  0.00     0.372 C 
BRANCH  14  15
HETATM   15  C   UNL     1     -37.969 -50.351  12.825  1.00  0.00     0.248 C 
HETATM   16  O   UNL     1     -38.093 -51.579  12.854  1.00  0.00    -0.271 OA
HETATM   17  N   UNL     1     -37.619 -49.618  13.944  1.00  0.00    -0.346 N 
HETATM   18  C   UNL     1     -37.132 -50.295  15.145  1.00  0.00     0.152 C 
HETATM   19  C   UNL     1     -37.839 -48.176  14.119  1.00  0.00     0.157 C 
HETATM   20  C   UNL     1     -38.004 -49.965  16.355  1.00  0.00     0.188 C 
HETATM   21  O   UNL     1     -38.109 -48.544  16.535  1.00  0.00    -0.383 OA
HETATM   22  C   UNL     1     -38.694 -47.923  15.378  1.00  0.00     0.135 C 
HETATM   23  C   UNL     1     -38.808 -46.445  15.689  1.00  0.00     0.041 C 
ENDBRANCH  14  15
ENDBRANCH   1  14
TORSDOF 5
ENDMDL
MODEL 9
REMARK VINA RESULT:      -5.7      2.978      7.013
REMARK  5 active torsions:
REMARK  status: ('A' for Active; 'I' for Inactive)
REMARK    1  A    between atoms: C_2  and  N_3 
REMARK    2  A    between atoms: C_2  and  C_14 
REMARK    3  A    between atoms: N_3  and  C_4 
REMARK    4  A    between atoms: C_4  and  C_5 
REMARK       I    between atoms: C_5  and  N_7 
REMARK    5  A    between atoms: C_14  and  N_16 
ROOT
HETATM    1  N   UNL     1     -40.664 -50.719  11.375  1.00  0.00     0.098 N 
HETATM    2  H   UNL     1     -41.633 -50.637  11.055  1.00  0.00     0.317 HD
ENDROOT
BRANCH   1   3
HETATM    3  C   UNL     1     -40.622 -51.456  12.664  1.00  0.00     0.241 C 
HETATM    4  C   UNL     1     -39.305 -51.170  13.405  1.00  0.00     0.045 C 
BRANCH   3   5
HETATM    5  C   UNL     1     -40.939 -52.987  12.545  1.00  0.00     0.136 C 
HETATM    6  C   UNL     1     -40.091 -53.860  13.479  1.00  0.00     0.036 C 
BRANCH   5   7
HETATM    7  N   UNL     1     -42.350 -53.329  12.758  1.00  0.00    -0.297 N 
HETATM    8  C   UNL     1     -42.885 -54.230  13.633  1.00  0.00     0.118 A 
HETATM    9  C   UNL     1     -44.250 -54.239  13.419  1.00  0.00    -0.028 A 
HETATM   10  C   UNL     1     -45.293 -54.982  14.163  1.00  0.00     0.051 C 
HETATM   11  C   UNL     1     -44.422 -53.344  12.341  1.00  0.00     0.115 A 
HETATM   12  N   UNL     1     -43.280 -52.772  11.954  1.00  0.00    -0.309 N 
ATOM     13  HN  UNL     1     -43.142 -52.075  11.222  1.00  0.00     0.186 HD
ENDBRANCH   5   7
ENDBRANCH   3   5
ENDBRANCH   1   3
BRANCH   1  14
HETATM   14  C   UNL     1     -40.107 -49.357  11.450  1.00  0.00     0.372 C 
BRANCH  14  15
HETATM   15  C   UNL     1     -41.152 -48.315  11.033  1.00  0.00     0.248 C 
HETATM   16  O   UNL     1     -41.908 -48.549  10.087  1.00  0.00    -0.271 OA
HETATM   17  N   UNL     1     -41.245 -47.158  11.785  1.00  0.00    -0.346 N 
HETATM   18  C   UNL     1     -42.408 -46.283  11.648  1.00  0.00     0.152 C 
HETATM   19  C   UNL     1     -40.179 -46.607  12.632  1.00  0.00     0.157 C 
HETATM   20  C   UNL     1     -41.991 -44.870  11.243  1.00  0.00     0.188 C 
HETATM   21  O   UNL     1     -41.018 -44.344  12.158  1.00  0.00    -0.383 OA
HETATM   22  C   UNL     1     -39.841 -45.169  12.184  1.00  0.00     0.135 C 
HETATM   23  C   UNL     1     -38.865 -44.503  13.132  1.00  0.00     0.041 C 
ENDBRANCH  14  15
ENDBRANCH   1  14
TORSDOF 5
ENDMDL
