MODEL 1
REMARK VINA RESULT:      -6.0      0.000      0.000
REMARK  8 active torsions:
REMARK  status: ('A' for Active; 'I' for Inactive)
REMARK    1  A    between atoms: N_5  and  C_6 
REMARK    2  A    between atoms: C_6  and  C_7 
REMARK    3  A    between atoms: C_7  and  O_8 
REMARK    4  A    between atoms: C_7  and  C_9 
REMARK    5  A    between atoms: C_9  and  O_10 
REMARK    6  A    between atoms: O_10  and  C_11 
REMARK    7  A    between atoms: C_21  and  C_22 
REMARK    8  A    between atoms: C_22  and  N_23 
ROOT
HETATM    1  C   UNL     1     -44.818 -51.555  15.311  1.00  0.00     0.069 A 
HETATM    2  C   UNL     1     -43.638 -51.570  16.056  1.00  0.00     0.038 A 
HETATM    3  C   UNL     1     -42.503 -50.899  15.588  1.00  0.00     0.025 A 
HETATM    4  C   UNL     1     -42.543 -50.209  14.373  1.00  0.00     0.044 A 
HETATM    5  C   UNL     1     -41.378 -49.527  13.893  1.00  0.00     0.099 C 
HETATM    6  N   UNL     1     -40.432 -48.974  13.510  1.00  0.00    -0.191 NA
HETATM    7  C   UNL     1     -43.725 -50.193  13.627  1.00  0.00     0.025 A 
HETATM    8  C   UNL     1     -44.855 -50.863  14.098  1.00  0.00     0.038 A 
ENDROOT
BRANCH   1   9
HETATM    9  O   UNL     1     -45.986 -52.180  15.645  1.00  0.00    -0.349 OA
BRANCH   9  10
HETATM   10  C   UNL     1     -46.638 -52.928  14.615  1.00  0.00     0.209 C 
BRANCH  10  11
HETATM   11  C   UNL     1     -46.551 -54.422  14.953  1.00  0.00     0.162 C 
BRANCH  11  12
HETATM   12  C   UNL     1     -45.694 -55.188  13.930  1.00  0.00     0.186 C 
BRANCH  12  13
HETATM   13  N   UNL     1     -44.275 -54.801  13.976  1.00  0.00    -0.254 N 
HETATM   14  N   UNL     1     -43.563 -55.239  15.071  1.00  0.00    -0.300 N 
HETATM   15  C   UNL     1     -42.308 -54.927  15.162  1.00  0.00     0.029 A 
ATOM     16  HN  UNL     1     -44.014 -55.797  15.795  1.00  0.00     0.187 HD
HETATM   17  C   UNL     1     -41.557 -55.416  16.383  1.00  0.00     0.070 C 
HETATM   18  C   UNL     1     -41.570 -54.124  14.156  1.00  0.00    -0.013 A 
HETATM   19  C   UNL     1     -42.299 -53.707  13.107  1.00  0.00     0.103 A 
HETATM   20  C   UNL     1     -40.109 -53.848  14.377  1.00  0.00     0.052 C 
HETATM   21  C   UNL     1     -43.736 -54.011  12.968  1.00  0.00     0.282 A 
HETATM   22  O   UNL     1     -44.383 -53.564  12.027  1.00  0.00    -0.265 OA
BRANCH  19  23
HETATM   23  C   UNL     1     -41.609 -52.887  12.028  1.00  0.00    -0.031 C 
BRANCH  23  24
HETATM   24  N   UNL     1     -41.037 -52.208  11.134  1.00  0.00    -0.365 N 
ATOM     25  HN2 UNL     1     -41.537 -52.754  11.835  1.00  0.00     0.165 HD
ATOM     26  HN1 UNL     1     -40.572 -51.658  10.412  1.00  0.00     0.165 HD
ENDBRANCH  23  24
ENDBRANCH  19  23
ENDBRANCH  12  13
ENDBRANCH  11  12
BRANCH  11  27
HETATM   27  O   UNL     1     -46.011 -54.605  16.271  1.00  0.00    -0.392 OA
HETATM   28  H   UNL     1     -46.348 -55.471  16.579  1.00  0.00     0.210 HD
ENDBRANCH  11  27
ENDBRANCH  10  11
ENDBRANCH   9  10
ENDBRANCH   1   9
TORSDOF 8
ENDMDL
MODEL 2
REMARK VINA RESULT:      -6.0      2.276      4.559
REMARK  8 active torsions:
REMARK  status: ('A' for Active; 'I' for Inactive)
REMARK    1  A    between atoms: N_5  and  C_6 
REMARK    2  A    between atoms: C_6  and  C_7 
REMARK    3  A    between atoms: C_7  and  O_8 
REMARK    4  A    between atoms: C_7  and  C_9 
REMARK    5  A    between atoms: C_9  and  O_10 
REMARK    6  A    between atoms: O_10  and  C_11 
REMARK    7  A    between atoms: C_21  and  C_22 
REMARK    8  A    between atoms: C_22  and  N_23 
ROOT
HETATM    1  C   UNL     1     -44.217 -50.862  13.623  1.00  0.00     0.069 A 
HETATM    2  C   UNL     1     -45.475 -51.259  13.168  1.00  0.00     0.038 A 
HETATM    3  C   UNL     1     -46.534 -51.406  14.071  1.00  0.00     0.025 A 
HETATM    4  C   UNL     1     -46.339 -51.157  15.432  1.00  0.00     0.044 A 
HETATM    5  C   UNL     1     -47.425 -51.313  16.356  1.00  0.00     0.099 C 
HETATM    6  N   UNL     1     -48.307 -51.439  17.098  1.00  0.00    -0.191 NA
HETATM    7  C   UNL     1     -45.080 -50.759  15.888  1.00  0.00     0.025 A 
HETATM    8  C   UNL     1     -44.027 -50.612  14.984  1.00  0.00     0.038 A 
ENDROOT
BRANCH   1   9
HETATM    9  O   UNL     1     -43.100 -50.697  12.853  1.00  0.00    -0.349 OA
BRANCH   9  10
HETATM   10  C   UNL     1     -41.866 -51.182  13.390  1.00  0.00     0.209 C 
BRANCH  10  11
HETATM   11  C   UNL     1     -41.318 -52.279  12.467  1.00  0.00     0.162 C 
BRANCH  11  12
HETATM   12  C   UNL     1     -41.174 -53.622  13.203  1.00  0.00     0.186 C 
BRANCH  12  13
HETATM   13  N   UNL     1     -42.192 -53.808  14.248  1.00  0.00    -0.254 N 
HETATM   14  N   UNL     1     -41.779 -53.585  15.542  1.00  0.00    -0.300 N 
HETATM   15  C   UNL     1     -42.636 -53.734  16.504  1.00  0.00     0.029 A 
ATOM     16  HN  UNL     1     -40.818 -53.308  15.742  1.00  0.00     0.187 HD
HETATM   17  C   UNL     1     -42.148 -53.490  17.915  1.00  0.00     0.070 C 
HETATM   18  C   UNL     1     -44.053 -54.130  16.307  1.00  0.00    -0.013 A 
HETATM   19  C   UNL     1     -44.417 -54.348  15.032  1.00  0.00     0.103 A 
HETATM   20  C   UNL     1     -44.947 -54.251  17.510  1.00  0.00     0.052 C 
HETATM   21  C   UNL     1     -43.474 -54.219  13.904  1.00  0.00     0.282 A 
HETATM   22  O   UNL     1     -43.827 -54.483  12.760  1.00  0.00    -0.265 OA
BRANCH  19  23
HETATM   23  C   UNL     1     -45.857 -54.747  14.750  1.00  0.00    -0.031 C 
BRANCH  23  24
HETATM   24  N   UNL     1     -47.051 -55.078  14.516  1.00  0.00    -0.365 N 
ATOM     25  HN2 UNL     1     -46.074 -54.852  14.705  1.00  0.00     0.165 HD
ATOM     26  HN1 UNL     1     -48.017 -55.343  14.327  1.00  0.00     0.165 HD
ENDBRANCH  23  24
ENDBRANCH  19  23
ENDBRANCH  12  13
ENDBRANCH  11  12
BRANCH  11  27
HETATM   27  O   UNL     1     -42.172 -52.442  11.324  1.00  0.00    -0.392 OA
HETATM   28  H   UNL     1     -42.126 -51.596  10.834  1.00  0.00     0.210 HD
ENDBRANCH  11  27
ENDBRANCH  10  11
ENDBRANCH   9  10
ENDBRANCH   1   9
TORSDOF 8
ENDMDL
MODEL 3
REMARK VINA RESULT:      -5.8      3.431      6.703
REMARK  8 active torsions:
REMARK  status: ('A' for Active; 'I' for Inactive)
REMARK    1  A    between atoms: N_5  and  C_6 
REMARK    2  A    between atoms: C_6  and  C_7 
REMARK    3  A    between atoms: C_7  and  O_8 
REMARK    4  A    between atoms: C_7  and  C_9 
REMARK    5  A    between atoms: C_9  and  O_10 
REMARK    6  A    between atoms: O_10  and  C_11 
REMARK    7  A    between atoms: C_21  and  C_22 
REMARK    8  A    between atoms: C_22  and  N_23 
ROOT
HETATM    1  C   UNL     1     -44.323 -51.089  13.589  1.00  0.00     0.069 A 
HETATM    2  C   UNL     1     -45.602 -51.454  13.170  1.00  0.00     0.038 A 
HETATM    3  C   UNL     1     -46.648 -51.537  14.097  1.00  0.00     0.025 A 
HETATM    4  C   UNL     1     -46.417 -51.253  15.447  1.00  0.00     0.044 A 
HETATM    5  C   UNL     1     -47.488 -51.344  16.395  1.00  0.00     0.099 C 
HETATM    6  N   UNL     1     -48.359 -51.416  17.158  1.00  0.00    -0.191 NA
HETATM    7  C   UNL     1     -45.136 -50.887  15.866  1.00  0.00     0.025 A 
HETATM    8  C   UNL     1     -44.096 -50.805  14.938  1.00  0.00     0.038 A 
ENDROOT
BRANCH   1   9
HETATM    9  O   UNL     1     -43.216 -50.987  12.793  1.00  0.00    -0.349 OA
BRANCH   9  10
HETATM   10  C   UNL     1     -42.231 -52.016  12.919  1.00  0.00     0.209 C 
BRANCH  10  11
HETATM   11  C   UNL     1     -41.197 -51.855  11.797  1.00  0.00     0.162 C 
BRANCH  11  12
HETATM   12  C   UNL     1     -40.056 -50.907  12.205  1.00  0.00     0.186 C 
BRANCH  12  13
HETATM   13  N   UNL     1     -40.355 -49.498  11.906  1.00  0.00    -0.254 N 
HETATM   14  N   UNL     1     -41.310 -49.273  10.940  1.00  0.00    -0.300 N 
HETATM   15  C   UNL     1     -41.613 -48.050  10.637  1.00  0.00     0.029 A 
ATOM     16  HN  UNL     1     -41.769 -50.054  10.471  1.00  0.00     0.187 HD
HETATM   17  C   UNL     1     -42.660 -47.838   9.564  1.00  0.00     0.070 C 
HETATM   18  C   UNL     1     -41.000 -46.855  11.269  1.00  0.00    -0.013 A 
HETATM   19  C   UNL     1     -40.067 -47.113  12.201  1.00  0.00     0.103 A 
HETATM   20  C   UNL     1     -41.456 -45.490  10.835  1.00  0.00     0.052 C 
HETATM   21  C   UNL     1     -39.665 -48.486  12.562  1.00  0.00     0.282 A 
HETATM   22  O   UNL     1     -38.767 -48.683  13.375  1.00  0.00    -0.265 OA
BRANCH  19  23
HETATM   23  C   UNL     1     -39.400 -45.939  12.900  1.00  0.00    -0.031 C 
BRANCH  23  24
HETATM   24  N   UNL     1     -38.847 -44.967  13.480  1.00  0.00    -0.365 N 
ATOM     25  HN2 UNL     1     -39.256 -45.774  13.009  1.00  0.00     0.165 HD
ATOM     26  HN1 UNL     1     -38.400 -44.180  13.951  1.00  0.00     0.165 HD
ENDBRANCH  23  24
ENDBRANCH  19  23
ENDBRANCH  12  13
ENDBRANCH  11  12
BRANCH  11  27
HETATM   27  O   UNL     1     -40.656 -53.134  11.430  1.00  0.00    -0.392 OA
HETATM   28  H   UNL     1     -41.150 -53.793  11.960  1.00  0.00     0.210 HD
ENDBRANCH  11  27
ENDBRANCH  10  11
ENDBRANCH   9  10
ENDBRANCH   1   9
TORSDOF 8
ENDMDL
MODEL 4
REMARK VINA RESULT:      -5.5      2.692      4.801
REMARK  8 active torsions:
REMARK  status: ('A' for Active; 'I' for Inactive)
REMARK    1  A    between atoms: N_5  and  C_6 
REMARK    2  A    between atoms: C_6  and  C_7 
REMARK    3  A    between atoms: C_7  and  O_8 
REMARK    4  A    between atoms: C_7  and  C_9 
REMARK    5  A    between atoms: C_9  and  O_10 
REMARK    6  A    between atoms: O_10  and  C_11 
REMARK    7  A    between atoms: C_21  and  C_22 
REMARK    8  A    between atoms: C_22  and  N_23 
ROOT
HETATM    1  C   UNL     1     -44.586 -50.880  13.722  1.00  0.00     0.069 A 
HETATM    2  C   UNL     1     -45.859 -51.342  13.391  1.00  0.00     0.038 A 
HETATM    3  C   UNL     1     -46.823 -51.522  14.390  1.00  0.00     0.025 A 
HETATM    4  C   UNL     1     -46.516 -51.239  15.724  1.00  0.00     0.044 A 
HETATM    5  C   UNL     1     -47.502 -51.428  16.747  1.00  0.00     0.099 C 
HETATM    6  N   UNL     1     -48.305 -51.580  17.569  1.00  0.00    -0.191 NA
HETATM    7  C   UNL     1     -45.240 -50.775  16.055  1.00  0.00     0.025 A 
HETATM    8  C   UNL     1     -44.282 -50.597  15.055  1.00  0.00     0.038 A 
ENDROOT
BRANCH   1   9
HETATM    9  O   UNL     1     -43.553 -50.679  12.849  1.00  0.00    -0.349 OA
BRANCH   9  10
HETATM   10  C   UNL     1     -42.237 -50.617  13.405  1.00  0.00     0.209 C 
BRANCH  10  11
HETATM   11  C   UNL     1     -41.213 -50.880  12.292  1.00  0.00     0.162 C 
BRANCH  11  12
HETATM   12  C   UNL     1     -41.168 -52.366  11.899  1.00  0.00     0.186 C 
BRANCH  12  13
HETATM   13  N   UNL     1     -41.306 -53.263  13.056  1.00  0.00    -0.254 N 
HETATM   14  N   UNL     1     -42.592 -53.610  13.404  1.00  0.00    -0.300 N 
HETATM   15  C   UNL     1     -42.771 -54.400  14.417  1.00  0.00     0.029 A 
ATOM     16  HN  UNL     1     -43.388 -53.253  12.877  1.00  0.00     0.187 HD
HETATM   17  C   UNL     1     -44.198 -54.754  14.779  1.00  0.00     0.070 C 
HETATM   18  C   UNL     1     -41.674 -54.969  15.238  1.00  0.00    -0.013 A 
HETATM   19  C   UNL     1     -40.434 -54.602  14.874  1.00  0.00     0.103 A 
HETATM   20  C   UNL     1     -42.022 -55.887  16.377  1.00  0.00     0.052 C 
HETATM   21  C   UNL     1     -40.176 -53.685  13.748  1.00  0.00     0.282 A 
HETATM   22  O   UNL     1     -39.034 -53.324  13.482  1.00  0.00    -0.265 OA
BRANCH  19  23
HETATM   23  C   UNL     1     -39.256 -55.154  15.663  1.00  0.00    -0.031 C 
BRANCH  23  24
HETATM   24  N   UNL     1     -38.281 -55.611  16.317  1.00  0.00    -0.365 N 
ATOM     25  HN2 UNL     1     -39.081 -55.281  15.776  1.00  0.00     0.165 HD
ATOM     26  HN1 UNL     1     -37.492 -55.979  16.848  1.00  0.00     0.165 HD
ENDBRANCH  23  24
ENDBRANCH  19  23
ENDBRANCH  12  13
ENDBRANCH  11  12
BRANCH  11  27
HETATM   27  O   UNL     1     -41.516 -50.081  11.138  1.00  0.00    -0.392 OA
HETATM   28  H   UNL     1     -41.929 -49.263  11.481  1.00  0.00     0.210 HD
ENDBRANCH  11  27
ENDBRANCH  10  11
ENDBRANCH   9  10
ENDBRANCH   1   9
TORSDOF 8
ENDMDL
MODEL 5
REMARK VINA RESULT:      -5.4      2.765      3.318
REMARK  8 active torsions:
REMARK  status: ('A' for Active; 'I' for Inactive)
REMARK    1  A    between atoms: N_5  and  C_6 
REMARK    2  A    between atoms: C_6  and  C_7 
REMARK    3  A    between atoms: C_7  and  O_8 
REMARK    4  A    between atoms: C_7  and  C_9 
REMARK    5  A    between atoms: C_9  and  O_10 
REMARK    6  A    between atoms: O_10  and  C_11 
REMARK    7  A    between atoms: C_21  and  C_22 
REMARK    8  A    between atoms: C_22  and  N_23 
ROOT
HETATM    1  C   UNL     1     -47.178 -51.358  16.430  1.00  0.00     0.069 A 
HETATM    2  C   UNL     1     -45.905 -50.808  16.582  1.00  0.00     0.038 A 
HETATM    3  C   UNL     1     -45.674 -49.834  17.560  1.00  0.00     0.025 A 
HETATM    4  C   UNL     1     -46.715 -49.407  18.390  1.00  0.00     0.044 A 
HETATM    5  C   UNL     1     -46.477 -48.406  19.387  1.00  0.00     0.099 C 
HETATM    6  N   UNL     1     -46.278 -47.597  20.194  1.00  0.00    -0.191 NA
HETATM    7  C   UNL     1     -47.990 -49.959  18.237  1.00  0.00     0.025 A 
HETATM    8  C   UNL     1     -48.215 -50.931  17.261  1.00  0.00     0.038 A 
ENDROOT
BRANCH   1   9
HETATM    9  O   UNL     1     -47.540 -52.300  15.507  1.00  0.00    -0.349 OA
BRANCH   9  10
HETATM   10  C   UNL     1     -46.497 -52.849  14.698  1.00  0.00     0.209 C 
BRANCH  10  11
HETATM   11  C   UNL     1     -46.439 -54.366  14.920  1.00  0.00     0.162 C 
BRANCH  11  12
HETATM   12  C   UNL     1     -45.584 -55.067  13.850  1.00  0.00     0.186 C 
BRANCH  12  13
HETATM   13  N   UNL     1     -44.168 -54.673  13.910  1.00  0.00    -0.254 N 
HETATM   14  N   UNL     1     -43.446 -55.165  14.975  1.00  0.00    -0.300 N 
HETATM   15  C   UNL     1     -42.193 -54.851  15.076  1.00  0.00     0.029 A 
ATOM     16  HN  UNL     1     -43.889 -55.766  15.670  1.00  0.00     0.187 HD
HETATM   17  C   UNL     1     -41.431 -55.401  16.263  1.00  0.00     0.070 C 
HETATM   18  C   UNL     1     -41.467 -53.988  14.111  1.00  0.00    -0.013 A 
HETATM   19  C   UNL     1     -42.204 -53.520  13.090  1.00  0.00     0.103 A 
HETATM   20  C   UNL     1     -40.006 -53.715  14.339  1.00  0.00     0.052 C 
HETATM   21  C   UNL     1     -43.640 -53.825  12.944  1.00  0.00     0.282 A 
HETATM   22  O   UNL     1     -44.296 -53.331  12.032  1.00  0.00    -0.265 OA
BRANCH  19  23
HETATM   23  C   UNL     1     -41.527 -52.636  12.054  1.00  0.00    -0.031 C 
BRANCH  23  24
HETATM   24  N   UNL     1     -40.966 -51.904  11.196  1.00  0.00    -0.365 N 
ATOM     25  HN2 UNL     1     -41.381 -52.515  11.900  1.00  0.00     0.165 HD
ATOM     26  HN1 UNL     1     -40.513 -51.311  10.500  1.00  0.00     0.165 HD
ENDBRANCH  23  24
ENDBRANCH  19  23
ENDBRANCH  12  13
ENDBRANCH  11  12
BRANCH  11  27
HETATM   27  O   UNL     1     -45.918 -54.659  16.226  1.00  0.00    -0.392 OA
HETATM   28  H   UNL     1     -45.813 -53.794  16.671  1.00  0.00     0.210 HD
ENDBRANCH  11  27
ENDBRANCH  10  11
ENDBRANCH   9  10
ENDBRANCH   1   9
TORSDOF 8
ENDMDL
MODEL 6
REMARK VINA RESULT:      -5.2      3.959      7.610
REMARK  8 active torsions:
REMARK  status: ('A' for Active; 'I' for Inactive)
REMARK    1  A    between atoms: N_5  and  C_6 
REMARK    2  A    between atoms: C_6  and  C_7 
REMARK    3  A    between atoms: C_7  and  O_8 
REMARK    4  A    between atoms: C_7  and  C_9 
REMARK    5  A    between atoms: C_9  and  O_10 
REMARK    6  A    between atoms: O_10  and  C_11 
REMARK    7  A    between atoms: C_21  and  C_22 
REMARK    8  A    between atoms: C_22  and  N_23 
ROOT
HETATM    1  C   UNL     1     -40.684 -53.268  13.680  1.00  0.00     0.069 A 
HETATM    2  C   UNL     1     -41.966 -53.805  13.555  1.00  0.00     0.038 A 
HETATM    3  C   UNL     1     -42.487 -54.620  14.566  1.00  0.00     0.025 A 
HETATM    4  C   UNL     1     -41.729 -54.900  15.707  1.00  0.00     0.044 A 
HETATM    5  C   UNL     1     -42.263 -55.739  16.739  1.00  0.00     0.099 C 
HETATM    6  N   UNL     1     -42.701 -56.417  17.572  1.00  0.00    -0.191 NA
HETATM    7  C   UNL     1     -40.445 -54.361  15.832  1.00  0.00     0.025 A 
HETATM    8  C   UNL     1     -39.930 -53.548  14.821  1.00  0.00     0.038 A 
ENDROOT
BRANCH   1   9
HETATM    9  O   UNL     1     -40.054 -52.475  12.762  1.00  0.00    -0.349 OA
BRANCH   9  10
HETATM   10  C   UNL     1     -40.857 -51.939  11.708  1.00  0.00     0.209 C 
BRANCH  10  11
HETATM   11  C   UNL     1     -41.240 -50.494  12.057  1.00  0.00     0.162 C 
BRANCH  11  12
HETATM   12  C   UNL     1     -40.499 -49.479  11.169  1.00  0.00     0.186 C 
BRANCH  12  13
HETATM   13  N   UNL     1     -41.362 -48.367  10.739  1.00  0.00    -0.254 N 
HETATM   14  N   UNL     1     -42.027 -48.543   9.546  1.00  0.00    -0.300 N 
HETATM   15  C   UNL     1     -42.801 -47.595   9.120  1.00  0.00     0.029 A 
ATOM     16  HN  UNL     1     -41.913 -49.402   9.009  1.00  0.00     0.187 HD
HETATM   17  C   UNL     1     -43.510 -47.815   7.801  1.00  0.00     0.070 C 
HETATM   18  C   UNL     1     -43.030 -46.316   9.837  1.00  0.00    -0.013 A 
HETATM   19  C   UNL     1     -42.358 -46.176  10.992  1.00  0.00     0.103 A 
HETATM   20  C   UNL     1     -43.968 -45.305   9.237  1.00  0.00     0.052 C 
HETATM   21  C   UNL     1     -41.443 -47.212  11.508  1.00  0.00     0.282 A 
HETATM   22  O   UNL     1     -40.801 -47.026  12.536  1.00  0.00    -0.265 OA
BRANCH  19  23
HETATM   23  C   UNL     1     -42.548 -44.895  11.789  1.00  0.00    -0.031 C 
BRANCH  23  24
HETATM   24  N   UNL     1     -42.707 -43.834  12.450  1.00  0.00    -0.365 N 
ATOM     25  HN2 UNL     1     -42.569 -44.669  11.880  1.00  0.00     0.165 HD
ATOM     26  HN1 UNL     1     -42.835 -42.976  12.987  1.00  0.00     0.165 HD
ENDBRANCH  23  24
ENDBRANCH  19  23
ENDBRANCH  12  13
ENDBRANCH  11  12
BRANCH  11  27
HETATM   27  O   UNL     1     -42.658 -50.309  11.926  1.00  0.00    -0.392 OA
HETATM   28  H   UNL     1     -42.831 -50.254  10.964  1.00  0.00     0.210 HD
ENDBRANCH  11  27
ENDBRANCH  10  11
ENDBRANCH   9  10
ENDBRANCH   1   9
TORSDOF 8
ENDMDL
MODEL 7
REMARK VINA RESULT:      -5.1      3.061      4.374
REMARK  8 active torsions:
REMARK  status: ('A' for Active; 'I' for Inactive)
REMARK    1  A    between atoms: N_5  and  C_6 
REMARK    2  A    between atoms: C_6  and  C_7 
REMARK    3  A    between atoms: C_7  and  O_8 
REMARK    4  A    between atoms: C_7  and  C_9 
REMARK    5  A    between atoms: C_9  and  O_10 
REMARK    6  A    between atoms: O_10  and  C_11 
REMARK    7  A    between atoms: C_21  and  C_22 
REMARK    8  A    between atoms: C_22  and  N_23 
ROOT
HETATM    1  C   UNL     1     -46.581 -51.368  16.102  1.00  0.00     0.069 A 
HETATM    2  C   UNL     1     -45.531 -50.622  16.638  1.00  0.00     0.038 A 
HETATM    3  C   UNL     1     -45.748 -49.803  17.752  1.00  0.00     0.025 A 
HETATM    4  C   UNL     1     -47.016 -49.728  18.335  1.00  0.00     0.044 A 
HETATM    5  C   UNL     1     -47.238 -48.884  19.472  1.00  0.00     0.099 C 
HETATM    6  N   UNL     1     -47.410 -48.202  20.394  1.00  0.00    -0.191 NA
HETATM    7  C   UNL     1     -48.068 -50.475  17.798  1.00  0.00     0.025 A 
HETATM    8  C   UNL     1     -47.847 -51.292  16.688  1.00  0.00     0.038 A 
ENDROOT
BRANCH   1   9
HETATM    9  O   UNL     1     -46.507 -52.190  15.013  1.00  0.00    -0.349 OA
BRANCH   9  10
HETATM   10  C   UNL     1     -46.663 -51.579  13.729  1.00  0.00     0.209 C 
BRANCH  10  11
HETATM   11  C   UNL     1     -45.857 -52.378  12.696  1.00  0.00     0.162 C 
BRANCH  11  12
HETATM   12  C   UNL     1     -45.465 -53.767  13.230  1.00  0.00     0.186 C 
BRANCH  12  13
HETATM   13  N   UNL     1     -44.026 -53.880  13.513  1.00  0.00    -0.254 N 
HETATM   14  N   UNL     1     -43.182 -53.252  12.624  1.00  0.00    -0.300 N 
HETATM   15  C   UNL     1     -41.904 -53.319  12.827  1.00  0.00     0.029 A 
ATOM     16  HN  UNL     1     -43.555 -52.744  11.823  1.00  0.00     0.187 HD
HETATM   17  C   UNL     1     -41.004 -52.626  11.826  1.00  0.00     0.070 C 
HETATM   18  C   UNL     1     -41.273 -54.031  13.966  1.00  0.00    -0.013 A 
HETATM   19  C   UNL     1     -42.127 -54.639  14.807  1.00  0.00     0.103 A 
HETATM   20  C   UNL     1     -39.775 -54.017  14.091  1.00  0.00     0.052 C 
HETATM   21  C   UNL     1     -43.588 -54.617  14.607  1.00  0.00     0.282 A 
HETATM   22  O   UNL     1     -44.334 -55.233  15.362  1.00  0.00    -0.265 OA
BRANCH  19  23
HETATM   23  C   UNL     1     -41.555 -55.382  16.005  1.00  0.00    -0.031 C 
BRANCH  23  24
HETATM   24  N   UNL     1     -41.083 -55.996  16.998  1.00  0.00    -0.365 N 
ATOM     25  HN2 UNL     1     -41.494 -55.531  16.189  1.00  0.00     0.165 HD
ATOM     26  HN1 UNL     1     -40.699 -56.492  17.803  1.00  0.00     0.165 HD
ENDBRANCH  23  24
ENDBRANCH  19  23
ENDBRANCH  12  13
ENDBRANCH  11  12
BRANCH  11  27
HETATM   27  O   UNL     1     -46.607 -52.521  11.480  1.00  0.00    -0.392 OA
HETATM   28  H   UNL     1     -45.957 -52.776  10.794  1.00  0.00     0.210 HD
ENDBRANCH  11  27
ENDBRANCH  10  11
ENDBRANCH   9  10
ENDBRANCH   1   9
TORSDOF 8
ENDMDL
MODEL 8
REMARK VINA RESULT:      -5.1      2.880      4.567
REMARK  8 active torsions:
REMARK  status: ('A' for Active; 'I' for Inactive)
REMARK    1  A    between atoms: N_5  and  C_6 
REMARK    2  A    between atoms: C_6  and  C_7 
REMARK    3  A    between atoms: C_7  and  O_8 
REMARK    4  A    between atoms: C_7  and  C_9 
REMARK    5  A    between atoms: C_9  and  O_10 
REMARK    6  A    between atoms: O_10  and  C_11 
REMARK    7  A    between atoms: C_21  and  C_22 
REMARK    8  A    between atoms: C_22  and  N_23 
ROOT
HETATM    1  C   UNL     1     -44.774 -52.985  14.874  1.00  0.00     0.069 A 
HETATM    2  C   UNL     1     -45.763 -52.021  15.073  1.00  0.00     0.038 A 
HETATM    3  C   UNL     1     -46.519 -51.557  13.991  1.00  0.00     0.025 A 
HETATM    4  C   UNL     1     -46.290 -52.057  12.705  1.00  0.00     0.044 A 
HETATM    5  C   UNL     1     -47.062 -51.576  11.597  1.00  0.00     0.099 C 
HETATM    6  N   UNL     1     -47.692 -51.186  10.705  1.00  0.00    -0.191 NA
HETATM    7  C   UNL     1     -45.300 -53.022  12.506  1.00  0.00     0.025 A 
HETATM    8  C   UNL     1     -44.549 -53.483  13.589  1.00  0.00     0.038 A 
ENDROOT
BRANCH   1   9
HETATM    9  O   UNL     1     -43.958 -53.508  15.837  1.00  0.00    -0.349 OA
BRANCH   9  10
HETATM   10  C   UNL     1     -42.950 -54.426  15.405  1.00  0.00     0.209 C 
BRANCH  10  11
HETATM   11  C   UNL     1     -41.577 -53.906  15.850  1.00  0.00     0.162 C 
BRANCH  11  12
HETATM   12  C   UNL     1     -40.512 -54.102  14.757  1.00  0.00     0.186 C 
BRANCH  12  13
HETATM   13  N   UNL     1     -39.955 -52.829  14.273  1.00  0.00    -0.254 N 
HETATM   14  N   UNL     1     -39.010 -52.235  15.079  1.00  0.00    -0.300 N 
HETATM   15  C   UNL     1     -38.486 -51.112  14.700  1.00  0.00     0.029 A 
ATOM     16  HN  UNL     1     -38.728 -52.670  15.957  1.00  0.00     0.187 HD
HETATM   17  C   UNL     1     -37.457 -50.481  15.614  1.00  0.00     0.070 C 
HETATM   18  C   UNL     1     -38.832 -50.410  13.439  1.00  0.00    -0.013 A 
HETATM   19  C   UNL     1     -39.764 -51.014  12.683  1.00  0.00     0.103 A 
HETATM   20  C   UNL     1     -38.136 -49.119  13.112  1.00  0.00     0.052 C 
HETATM   21  C   UNL     1     -40.412 -52.279  13.081  1.00  0.00     0.282 A 
HETATM   22  O   UNL     1     -41.301 -52.771  12.394  1.00  0.00    -0.265 OA
BRANCH  19  23
HETATM   23  C   UNL     1     -40.165 -50.360  11.370  1.00  0.00    -0.031 C 
BRANCH  23  24
HETATM   24  N   UNL     1     -40.498 -49.818  10.282  1.00  0.00    -0.365 N 
ATOM     25  HN2 UNL     1     -40.269 -50.251  11.177  1.00  0.00     0.165 HD
ATOM     26  HN1 UNL     1     -40.766 -49.379   9.401  1.00  0.00     0.165 HD
ENDBRANCH  23  24
ENDBRANCH  19  23
ENDBRANCH  12  13
ENDBRANCH  11  12
BRANCH  11  27
HETATM   27  O   UNL     1     -41.660 -52.516  16.202  1.00  0.00    -0.392 OA
HETATM   28  H   UNL     1     -41.187 -52.428  17.054  1.00  0.00     0.210 HD
ENDBRANCH  11  27
ENDBRANCH  10  11
ENDBRANCH   9  10
ENDBRANCH   1   9
TORSDOF 8
ENDMDL
MODEL 9
REMARK VINA RESULT:      -5.0      3.377      7.180
REMARK  8 active torsions:
REMARK  status: ('A' for Active; 'I' for Inactive)
REMARK    1  A    between atoms: N_5  and  C_6 
REMARK    2  A    between atoms: C_6  and  C_7 
REMARK    3  A    between atoms: C_7  and  O_8 
REMARK    4  A    between atoms: C_7  and  C_9 
REMARK    5  A    between atoms: C_9  and  O_10 
REMARK    6  A    between atoms: O_10  and  C_11 
REMARK    7  A    between atoms: C_21  and  C_22 
REMARK    8  A    between atoms: C_22  and  N_23 
ROOT
HETATM    1  C   UNL     1     -41.137 -52.817  12.773  1.00  0.00     0.069 A 
HETATM    2  C   UNL     1     -42.337 -52.385  12.207  1.00  0.00     0.038 A 
HETATM    3  C   UNL     1     -43.540 -53.015  12.546  1.00  0.00     0.025 A 
HETATM    4  C   UNL     1     -43.547 -54.078  13.454  1.00  0.00     0.044 A 
HETATM    5  C   UNL     1     -44.780 -54.724  13.796  1.00  0.00     0.099 C 
HETATM    6  N   UNL     1     -45.781 -55.242  14.071  1.00  0.00    -0.191 NA
HETATM    7  C   UNL     1     -42.346 -54.510  14.022  1.00  0.00     0.025 A 
HETATM    8  C   UNL     1     -41.148 -53.878  13.681  1.00  0.00     0.038 A 
ENDROOT
BRANCH   1   9
HETATM    9  O   UNL     1     -39.898 -52.302  12.516  1.00  0.00    -0.349 OA
BRANCH   9  10
HETATM   10  C   UNL     1     -39.348 -51.416  13.494  1.00  0.00     0.209 C 
BRANCH  10  11
HETATM   11  C   UNL     1     -38.043 -50.819  12.949  1.00  0.00     0.162 C 
BRANCH  11  12
HETATM   12  C   UNL     1     -38.305 -49.832  11.798  1.00  0.00     0.186 C 
BRANCH  12  13
HETATM   13  N   UNL     1     -39.200 -48.732  12.188  1.00  0.00    -0.254 N 
HETATM   14  N   UNL     1     -38.721 -47.873  13.152  1.00  0.00    -0.300 N 
HETATM   15  C   UNL     1     -39.468 -46.885  13.532  1.00  0.00     0.029 A 
ATOM     16  HN  UNL     1     -37.796 -48.011  13.558  1.00  0.00     0.187 HD
HETATM   17  C   UNL     1     -38.915 -45.965  14.599  1.00  0.00     0.070 C 
HETATM   18  C   UNL     1     -40.822 -46.605  12.994  1.00  0.00    -0.013 A 
HETATM   19  C   UNL     1     -41.260 -47.468  12.062  1.00  0.00     0.103 A 
HETATM   20  C   UNL     1     -41.578 -45.412  13.512  1.00  0.00     0.052 C 
HETATM   21  C   UNL     1     -40.461 -48.625  11.614  1.00  0.00     0.282 A 
HETATM   22  O   UNL     1     -40.917 -49.426  10.805  1.00  0.00    -0.265 OA
BRANCH  19  23
HETATM   23  C   UNL     1     -42.636 -47.241  11.456  1.00  0.00    -0.031 C 
BRANCH  23  24
HETATM   24  N   UNL     1     -43.777 -47.052  10.954  1.00  0.00    -0.365 N 
ATOM     25  HN2 UNL     1     -42.873 -47.217  11.397  1.00  0.00     0.165 HD
ATOM     26  HN1 UNL     1     -44.699 -46.899  10.547  1.00  0.00     0.165 HD
ENDBRANCH  23  24
ENDBRANCH  19  23
ENDBRANCH  12  13
ENDBRANCH  11  12
BRANCH  11  27
HETATM   27  O   UNL     1     -37.320 -50.158  13.999  1.00  0.00    -0.392 OA
HETATM   28  H   UNL     1     -37.967 -49.569  14.438  1.00  0.00     0.210 HD
ENDBRANCH  11  27
ENDBRANCH  10  11
ENDBRANCH   9  10
ENDBRANCH   1   9
TORSDOF 8
ENDMDL
