MODEL 1
REMARK VINA RESULT:      -5.6      0.000      0.000
REMARK  5 active torsions:
REMARK  status: ('A' for Active; 'I' for Inactive)
REMARK    1  A    between atoms: O_2  and  C_3 
REMARK    2  A    between atoms: C_3  and  C_4 
REMARK    3  A    between atoms: C_4  and  N_5 
REMARK    4  A    between atoms: C_6  and  N_7 
REMARK    5  A    between atoms: N_7  and  N_8 
ROOT
HETATM    1  N   UNL     1     -40.426 -47.944  11.547  1.00  0.00    -0.171 N 
HETATM    2  C   UNL     1     -40.792 -48.921  10.632  1.00  0.00     0.697 A 
HETATM    3  N   UNL     1     -41.737 -48.468   9.820  1.00  0.00    -0.173 N 
ATOM      4  HN  UNL     1     -42.204 -48.978   9.071  1.00  0.00     0.186 HD
HETATM    5  C   UNL     1     -41.951 -47.180  10.197  1.00  0.00     0.160 A 
HETATM    6  N   UNL     1     -42.819 -46.285   9.609  1.00  0.00    -0.287 N 
HETATM    7  C   UNL     1     -43.611 -46.625   8.444  1.00  0.00     0.163 C 
HETATM    8  C   UNL     1     -42.934 -44.994  10.128  1.00  0.00     0.332 A 
HETATM    9  O   UNL     1     -43.705 -44.173   9.628  1.00  0.00    -0.246 OA
HETATM   10  N   UNL     1     -42.128 -44.674  11.231  1.00  0.00    -0.269 N 
HETATM   11  C   UNL     1     -42.225 -43.344  11.803  1.00  0.00     0.164 C 
HETATM   12  C   UNL     1     -41.188 -45.521  11.818  1.00  0.00     0.282 A 
HETATM   13  O   UNL     1     -40.447 -45.169  12.731  1.00  0.00    -0.265 OA
HETATM   14  C   UNL     1     -41.167 -46.826  11.252  1.00  0.00     0.164 A 
ENDROOT
BRANCH   2  15
HETATM   15  N   UNL     1     -40.234 -50.162  10.623  1.00  0.00    -0.156 N 
HETATM   16  H   UNL     1     -39.764 -50.514   9.789  1.00  0.00     0.199 HD
BRANCH  15  17
HETATM   17  N   UNL     1     -41.037 -51.113  11.294  1.00  0.00    -0.235 NA
HETATM   18  H   UNL     1     -40.451 -51.650  11.949  1.00  0.00     0.143 HD
HETATM   19  H   UNL     1     -41.377 -51.808  10.626  1.00  0.00     0.143 HD
ENDBRANCH  15  17
ENDBRANCH   2  15
BRANCH   1  20
HETATM   20  C   UNL     1     -39.362 -48.010  12.527  1.00  0.00     0.174 C 
BRANCH  20  21
HETATM   21  C   UNL     1     -39.715 -48.709  13.838  1.00  0.00     0.187 C 
BRANCH  21  22
HETATM   22  O   UNL     1     -39.452 -50.108  13.679  1.00  0.00    -0.394 OA
HETATM   23  C   UNL     1     -38.058 -50.372  13.564  1.00  0.00     0.201 C 
ENDBRANCH  21  22
ENDBRANCH  20  21
ENDBRANCH   1  20
TORSDOF 5
ENDMDL
MODEL 2
REMARK VINA RESULT:      -5.5      6.160      8.670
REMARK  5 active torsions:
REMARK  status: ('A' for Active; 'I' for Inactive)
REMARK    1  A    between atoms: O_2  and  C_3 
REMARK    2  A    between atoms: C_3  and  C_4 
REMARK    3  A    between atoms: C_4  and  N_5 
REMARK    4  A    between atoms: C_6  and  N_7 
REMARK    5  A    between atoms: N_7  and  N_8 
ROOT
HETATM    1  N   UNL     1     -44.634 -53.931  13.539  1.00  0.00    -0.171 N 
HETATM    2  C   UNL     1     -44.810 -53.022  12.505  1.00  0.00     0.697 A 
HETATM    3  N   UNL     1     -43.650 -52.493  12.147  1.00  0.00    -0.173 N 
ATOM      4  HN  UNL     1     -43.489 -51.784  11.431  1.00  0.00     0.186 HD
HETATM    5  C   UNL     1     -42.720 -53.092  12.935  1.00  0.00     0.160 A 
HETATM    6  N   UNL     1     -41.357 -52.894  12.895  1.00  0.00    -0.287 N 
HETATM    7  C   UNL     1     -40.731 -52.006  11.935  1.00  0.00     0.163 C 
HETATM    8  C   UNL     1     -40.533 -53.581  13.788  1.00  0.00     0.332 A 
HETATM    9  O   UNL     1     -39.311 -53.421  13.781  1.00  0.00    -0.246 OA
HETATM   10  N   UNL     1     -41.156 -54.466  14.682  1.00  0.00    -0.269 N 
HETATM   11  C   UNL     1     -40.334 -55.193  15.630  1.00  0.00     0.164 C 
HETATM   12  C   UNL     1     -42.521 -54.751  14.716  1.00  0.00     0.282 A 
HETATM   13  O   UNL     1     -43.010 -55.594  15.462  1.00  0.00    -0.265 OA
HETATM   14  C   UNL     1     -43.287 -53.978  13.800  1.00  0.00     0.164 A 
ENDROOT
BRANCH   2  15
HETATM   15  N   UNL     1     -46.033 -52.743  11.976  1.00  0.00    -0.156 N 
HETATM   16  H   UNL     1     -46.298 -53.106  11.060  1.00  0.00     0.199 HD
BRANCH  15  17
HETATM   17  N   UNL     1     -46.427 -51.407  12.219  1.00  0.00    -0.235 NA
HETATM   18  H   UNL     1     -46.565 -50.926  11.319  1.00  0.00     0.143 HD
HETATM   19  H   UNL     1     -45.662 -50.899  12.667  1.00  0.00     0.143 HD
ENDBRANCH  15  17
ENDBRANCH   2  15
BRANCH   1  20
HETATM   20  C   UNL     1     -45.634 -54.791  14.135  1.00  0.00     0.174 C 
BRANCH  20  21
HETATM   21  C   UNL     1     -46.410 -54.190  15.305  1.00  0.00     0.187 C 
BRANCH  21  22
HETATM   22  O   UNL     1     -47.177 -53.088  14.807  1.00  0.00    -0.394 OA
HETATM   23  C   UNL     1     -47.176 -51.992  15.715  1.00  0.00     0.201 C 
ENDBRANCH  21  22
ENDBRANCH  20  21
ENDBRANCH   1  20
TORSDOF 5
ENDMDL
MODEL 3
REMARK VINA RESULT:      -5.3      4.305      7.370
REMARK  5 active torsions:
REMARK  status: ('A' for Active; 'I' for Inactive)
REMARK    1  A    between atoms: O_2  and  C_3 
REMARK    2  A    between atoms: C_3  and  C_4 
REMARK    3  A    between atoms: C_4  and  N_5 
REMARK    4  A    between atoms: C_6  and  N_7 
REMARK    5  A    between atoms: N_7  and  N_8 
ROOT
HETATM    1  N   UNL     1     -40.400 -52.214  12.985  1.00  0.00    -0.171 N 
HETATM    2  C   UNL     1     -41.146 -51.771  11.902  1.00  0.00     0.697 A 
HETATM    3  N   UNL     1     -42.319 -52.387  11.862  1.00  0.00    -0.173 N 
ATOM      4  HN  UNL     1     -43.053 -52.272  11.164  1.00  0.00     0.186 HD
HETATM    5  C   UNL     1     -42.336 -53.204  12.947  1.00  0.00     0.160 A 
HETATM    6  N   UNL     1     -43.375 -54.015  13.349  1.00  0.00    -0.287 N 
HETATM    7  C   UNL     1     -44.641 -54.060  12.643  1.00  0.00     0.163 C 
HETATM    8  C   UNL     1     -43.229 -54.811  14.487  1.00  0.00     0.332 A 
HETATM    9  O   UNL     1     -44.138 -55.551  14.869  1.00  0.00    -0.246 OA
HETATM   10  N   UNL     1     -42.011 -54.721  15.178  1.00  0.00    -0.269 N 
HETATM   11  C   UNL     1     -41.819 -55.538  16.361  1.00  0.00     0.164 C 
HETATM   12  C   UNL     1     -40.957 -53.868  14.851  1.00  0.00     0.282 A 
HETATM   13  O   UNL     1     -39.942 -53.765  15.532  1.00  0.00    -0.265 OA
HETATM   14  C   UNL     1     -41.177 -53.125  13.657  1.00  0.00     0.164 A 
ENDROOT
BRANCH   2  15
HETATM   15  N   UNL     1     -40.683 -50.839  11.026  1.00  0.00    -0.156 N 
HETATM   16  H   UNL     1     -39.687 -50.775  10.814  1.00  0.00     0.199 HD
BRANCH  15  17
HETATM   17  N   UNL     1     -41.337 -49.594  11.175  1.00  0.00    -0.235 NA
HETATM   18  H   UNL     1     -42.262 -49.642  10.726  1.00  0.00     0.143 HD
HETATM   19  H   UNL     1     -40.833 -48.877  10.649  1.00  0.00     0.143 HD
ENDBRANCH  15  17
ENDBRANCH   2  15
BRANCH   1  20
HETATM   20  C   UNL     1     -39.117 -51.714  13.434  1.00  0.00     0.174 C 
BRANCH  20  21
HETATM   21  C   UNL     1     -39.167 -50.478  14.329  1.00  0.00     0.187 C 
BRANCH  21  22
HETATM   22  O   UNL     1     -39.333 -49.330  13.490  1.00  0.00    -0.394 OA
HETATM   23  C   UNL     1     -38.101 -48.916  12.912  1.00  0.00     0.201 C 
ENDBRANCH  21  22
ENDBRANCH  20  21
ENDBRANCH   1  20
TORSDOF 5
ENDMDL
MODEL 4
REMARK VINA RESULT:      -5.2      1.797      2.202
REMARK  5 active torsions:
REMARK  status: ('A' for Active; 'I' for Inactive)
REMARK    1  A    between atoms: O_2  and  C_3 
REMARK    2  A    between atoms: C_3  and  C_4 
REMARK    3  A    between atoms: C_4  and  N_5 
REMARK    4  A    between atoms: C_6  and  N_7 
REMARK    5  A    between atoms: N_7  and  N_8 
ROOT
HETATM    1  N   UNL     1     -40.563 -49.559  12.758  1.00  0.00    -0.171 N 
HETATM    2  C   UNL     1     -41.507 -50.306  12.067  1.00  0.00     0.697 A 
HETATM    3  N   UNL     1     -42.142 -49.551  11.182  1.00  0.00    -0.173 N 
ATOM      4  HN  UNL     1     -42.896 -49.834  10.556  1.00  0.00     0.186 HD
HETATM    5  C   UNL     1     -41.576 -48.321  11.284  1.00  0.00     0.160 A 
HETATM    6  N   UNL     1     -41.881 -47.210  10.526  1.00  0.00    -0.287 N 
HETATM    7  C   UNL     1     -42.862 -47.245   9.460  1.00  0.00     0.163 C 
HETATM    8  C   UNL     1     -41.214 -46.007  10.766  1.00  0.00     0.332 A 
HETATM    9  O   UNL     1     -41.468 -44.995  10.110  1.00  0.00    -0.246 OA
HETATM   10  N   UNL     1     -40.240 -46.006  11.776  1.00  0.00    -0.269 N 
HETATM   11  C   UNL     1     -39.531 -44.773  12.060  1.00  0.00     0.164 C 
HETATM   12  C   UNL     1     -39.849 -47.118  12.523  1.00  0.00     0.282 A 
HETATM   13  O   UNL     1     -38.934 -47.087  13.340  1.00  0.00    -0.265 OA
HETATM   14  C   UNL     1     -40.607 -48.288  12.240  1.00  0.00     0.164 A 
ENDROOT
BRANCH   2  15
HETATM   15  N   UNL     1     -41.718 -51.628  12.314  1.00  0.00    -0.156 N 
HETATM   16  H   UNL     1     -41.595 -52.006  13.253  1.00  0.00     0.199 HD
BRANCH  15  17
HETATM   17  N   UNL     1     -41.224 -52.451  11.275  1.00  0.00    -0.235 NA
HETATM   18  H   UNL     1     -40.349 -52.048  10.911  1.00  0.00     0.143 HD
HETATM   19  H   UNL     1     -41.868 -52.427  10.482  1.00  0.00     0.143 HD
ENDBRANCH  15  17
ENDBRANCH   2  15
BRANCH   1  20
HETATM   20  C   UNL     1     -39.599 -50.037  13.726  1.00  0.00     0.174 C 
BRANCH  20  21
HETATM   21  C   UNL     1     -38.390 -50.769  13.148  1.00  0.00     0.187 C 
BRANCH  21  22
HETATM   22  O   UNL     1     -38.717 -52.160  13.055  1.00  0.00    -0.394 OA
HETATM   23  C   UNL     1     -38.983 -52.725  14.333  1.00  0.00     0.201 C 
ENDBRANCH  21  22
ENDBRANCH  20  21
ENDBRANCH   1  20
TORSDOF 5
ENDMDL
MODEL 5
REMARK VINA RESULT:      -5.1      5.322      7.794
REMARK  5 active torsions:
REMARK  status: ('A' for Active; 'I' for Inactive)
REMARK    1  A    between atoms: O_2  and  C_3 
REMARK    2  A    between atoms: C_3  and  C_4 
REMARK    3  A    between atoms: C_4  and  N_5 
REMARK    4  A    between atoms: C_6  and  N_7 
REMARK    5  A    between atoms: N_7  and  N_8 
ROOT
HETATM    1  N   UNL     1     -41.101 -53.421  13.513  1.00  0.00    -0.171 N 
HETATM    2  C   UNL     1     -41.714 -53.023  12.333  1.00  0.00     0.697 A 
HETATM    3  N   UNL     1     -43.032 -53.108  12.441  1.00  0.00    -0.173 N 
ATOM      4  HN  UNL     1     -43.725 -52.900  11.723  1.00  0.00     0.186 HD
HETATM    5  C   UNL     1     -43.264 -53.529  13.711  1.00  0.00     0.160 A 
HETATM    6  N   UNL     1     -44.495 -53.722  14.302  1.00  0.00    -0.287 N 
HETATM    7  C   UNL     1     -45.738 -53.445  13.609  1.00  0.00     0.163 C 
HETATM    8  C   UNL     1     -44.565 -54.175  15.620  1.00  0.00     0.332 A 
HETATM    9  O   UNL     1     -45.649 -54.362  16.174  1.00  0.00    -0.246 OA
HETATM   10  N   UNL     1     -43.349 -54.397  16.285  1.00  0.00    -0.269 N 
HETATM   11  C   UNL     1     -43.380 -54.876  17.654  1.00  0.00     0.164 C 
HETATM   12  C   UNL     1     -42.082 -54.154  15.754  1.00  0.00     0.282 A 
HETATM   13  O   UNL     1     -41.048 -54.287  16.402  1.00  0.00    -0.265 OA
HETATM   14  C   UNL     1     -42.105 -53.733  14.396  1.00  0.00     0.164 A 
ENDROOT
BRANCH   2  15
HETATM   15  N   UNL     1     -41.008 -52.623  11.240  1.00  0.00    -0.156 N 
HETATM   16  H   UNL     1     -40.147 -53.101  10.974  1.00  0.00     0.199 HD
BRANCH  15  17
HETATM   17  N   UNL     1     -40.963 -51.214  11.120  1.00  0.00    -0.235 NA
HETATM   18  H   UNL     1     -41.889 -50.870  10.827  1.00  0.00     0.143 HD
HETATM   19  H   UNL     1     -40.339 -50.955  10.354  1.00  0.00     0.143 HD
ENDBRANCH  15  17
ENDBRANCH   2  15
BRANCH   1  20
HETATM   20  C   UNL     1     -39.690 -53.373  13.831  1.00  0.00     0.174 C 
BRANCH  20  21
HETATM   21  C   UNL     1     -39.110 -51.978  14.057  1.00  0.00     0.187 C 
BRANCH  21  22
HETATM   22  O   UNL     1     -38.471 -51.563  12.845  1.00  0.00    -0.394 OA
HETATM   23  C   UNL     1     -38.050 -50.205  12.910  1.00  0.00     0.201 C 
ENDBRANCH  21  22
ENDBRANCH  20  21
ENDBRANCH   1  20
TORSDOF 5
ENDMDL
MODEL 6
REMARK VINA RESULT:      -5.0      1.935      5.578
REMARK  5 active torsions:
REMARK  status: ('A' for Active; 'I' for Inactive)
REMARK    1  A    between atoms: O_2  and  C_3 
REMARK    2  A    between atoms: C_3  and  C_4 
REMARK    3  A    between atoms: C_4  and  N_5 
REMARK    4  A    between atoms: C_6  and  N_7 
REMARK    5  A    between atoms: N_7  and  N_8 
ROOT
HETATM    1  N   UNL     1     -40.429 -47.666  11.466  1.00  0.00    -0.171 N 
HETATM    2  C   UNL     1     -41.472 -48.139  10.683  1.00  0.00     0.697 A 
HETATM    3  N   UNL     1     -41.579 -49.455  10.792  1.00  0.00    -0.173 N 
ATOM      4  HN  UNL     1     -42.242 -50.063  10.312  1.00  0.00     0.186 HD
HETATM    5  C   UNL     1     -40.619 -49.823  11.680  1.00  0.00     0.160 A 
HETATM    6  N   UNL     1     -40.374 -51.097  12.145  1.00  0.00    -0.287 N 
HETATM    7  C   UNL     1     -41.179 -52.235  11.747  1.00  0.00     0.163 C 
HETATM    8  C   UNL     1     -39.334 -51.313  13.050  1.00  0.00     0.332 A 
HETATM    9  O   UNL     1     -39.086 -52.441  13.481  1.00  0.00    -0.246 OA
HETATM   10  N   UNL     1     -38.593 -50.191  13.453  1.00  0.00    -0.269 N 
HETATM   11  C   UNL     1     -37.499 -50.376  14.388  1.00  0.00     0.164 C 
HETATM   12  C   UNL     1     -38.844 -48.875  13.064  1.00  0.00     0.282 A 
HETATM   13  O   UNL     1     -38.220 -47.915  13.506  1.00  0.00    -0.265 OA
HETATM   14  C   UNL     1     -39.894 -48.754  12.112  1.00  0.00     0.164 A 
ENDROOT
BRANCH   2  15
HETATM   15  N   UNL     1     -42.241 -47.318   9.915  1.00  0.00    -0.156 N 
HETATM   16  H   UNL     1     -42.907 -46.677  10.348  1.00  0.00     0.199 HD
BRANCH  15  17
HETATM   17  N   UNL     1     -42.714 -47.965   8.750  1.00  0.00    -0.235 NA
HETATM   18  H   UNL     1     -42.137 -48.798   8.567  1.00  0.00     0.143 HD
HETATM   19  H   UNL     1     -42.562 -47.363   7.938  1.00  0.00     0.143 HD
ENDBRANCH  15  17
ENDBRANCH   2  15
BRANCH   1  20
HETATM   20  C   UNL     1     -40.058 -46.287  11.700  1.00  0.00     0.174 C 
BRANCH  20  21
HETATM   21  C   UNL     1     -39.641 -45.496  10.462  1.00  0.00     0.187 C 
BRANCH  21  22
HETATM   22  O   UNL     1     -40.664 -44.534  10.185  1.00  0.00    -0.394 OA
HETATM   23  C   UNL     1     -40.582 -43.413  11.058  1.00  0.00     0.201 C 
ENDBRANCH  21  22
ENDBRANCH  20  21
ENDBRANCH   1  20
TORSDOF 5
ENDMDL
MODEL 7
REMARK VINA RESULT:      -5.0      2.352      4.478
REMARK  5 active torsions:
REMARK  status: ('A' for Active; 'I' for Inactive)
REMARK    1  A    between atoms: O_2  and  C_3 
REMARK    2  A    between atoms: C_3  and  C_4 
REMARK    3  A    between atoms: C_4  and  N_5 
REMARK    4  A    between atoms: C_6  and  N_7 
REMARK    5  A    between atoms: N_7  and  N_8 
ROOT
HETATM    1  N   UNL     1     -41.605 -47.294  10.771  1.00  0.00    -0.171 N 
HETATM    2  C   UNL     1     -41.044 -48.328  11.507  1.00  0.00     0.697 A 
HETATM    3  N   UNL     1     -40.280 -47.849  12.477  1.00  0.00    -0.173 N 
ATOM      4  HN  UNL     1     -39.732 -48.381  13.152  1.00  0.00     0.186 HD
HETATM    5  C   UNL     1     -40.380 -46.497  12.382  1.00  0.00     0.160 A 
HETATM    6  N   UNL     1     -39.791 -45.568  13.213  1.00  0.00    -0.287 N 
HETATM    7  C   UNL     1     -38.989 -45.952  14.358  1.00  0.00     0.163 C 
HETATM    8  C   UNL     1     -39.981 -44.207  12.971  1.00  0.00     0.332 A 
HETATM    9  O   UNL     1     -39.463 -43.352  13.692  1.00  0.00    -0.246 OA
HETATM   10  N   UNL     1     -40.794 -43.859  11.881  1.00  0.00    -0.269 N 
HETATM   11  C   UNL     1     -41.009 -42.453  11.593  1.00  0.00     0.164 C 
HETATM   12  C   UNL     1     -41.465 -44.759  11.053  1.00  0.00     0.282 A 
HETATM   13  O   UNL     1     -42.230 -44.406  10.161  1.00  0.00    -0.265 OA
HETATM   14  C   UNL     1     -41.182 -46.122  11.348  1.00  0.00     0.164 A 
ENDROOT
BRANCH   2  15
HETATM   15  N   UNL     1     -41.273 -49.639  11.219  1.00  0.00    -0.156 N 
HETATM   16  H   UNL     1     -41.608 -50.278  11.941  1.00  0.00     0.199 HD
BRANCH  15  17
HETATM   17  N   UNL     1     -40.284 -50.178  10.365  1.00  0.00    -0.235 NA
HETATM   18  H   UNL     1     -40.512 -49.939   9.390  1.00  0.00     0.143 HD
HETATM   19  H   UNL     1     -40.324 -51.199  10.395  1.00  0.00     0.143 HD
ENDBRANCH  15  17
ENDBRANCH   2  15
BRANCH   1  20
HETATM   20  C   UNL     1     -42.575 -47.399   9.701  1.00  0.00     0.174 C 
BRANCH  20  21
HETATM   21  C   UNL     1     -44.039 -47.413  10.137  1.00  0.00     0.187 C 
BRANCH  21  22
HETATM   22  O   UNL     1     -44.851 -47.317   8.962  1.00  0.00    -0.394 OA
HETATM   23  C   UNL     1     -46.238 -47.283   9.281  1.00  0.00     0.201 C 
ENDBRANCH  21  22
ENDBRANCH  20  21
ENDBRANCH   1  20
TORSDOF 5
ENDMDL
MODEL 8
REMARK VINA RESULT:      -4.8      5.461      9.117
REMARK  5 active torsions:
REMARK  status: ('A' for Active; 'I' for Inactive)
REMARK    1  A    between atoms: O_2  and  C_3 
REMARK    2  A    between atoms: C_3  and  C_4 
REMARK    3  A    between atoms: C_4  and  N_5 
REMARK    4  A    between atoms: C_6  and  N_7 
REMARK    5  A    between atoms: N_7  and  N_8 
ROOT
HETATM    1  N   UNL     1     -42.406 -53.749  13.232  1.00  0.00    -0.171 N 
HETATM    2  C   UNL     1     -41.233 -53.489  12.536  1.00  0.00     0.697 A 
HETATM    3  N   UNL     1     -40.179 -53.875  13.240  1.00  0.00    -0.173 N 
ATOM      4  HN  UNL     1     -39.197 -53.784  12.982  1.00  0.00     0.186 HD
HETATM    5  C   UNL     1     -40.683 -54.416  14.379  1.00  0.00     0.160 A 
HETATM    6  N   UNL     1     -39.964 -54.995  15.403  1.00  0.00    -0.287 N 
HETATM    7  C   UNL     1     -38.521 -55.129  15.357  1.00  0.00     0.163 C 
HETATM    8  C   UNL     1     -40.634 -55.495  16.520  1.00  0.00     0.332 A 
HETATM    9  O   UNL     1     -40.019 -56.014  17.454  1.00  0.00    -0.246 OA
HETATM   10  N   UNL     1     -42.034 -55.392  16.526  1.00  0.00    -0.269 N 
HETATM   11  C   UNL     1     -42.766 -55.894  17.673  1.00  0.00     0.164 C 
HETATM   12  C   UNL     1     -42.810 -54.877  15.487  1.00  0.00     0.282 A 
HETATM   13  O   UNL     1     -44.037 -54.880  15.503  1.00  0.00    -0.265 OA
HETATM   14  C   UNL     1     -42.042 -54.355  14.409  1.00  0.00     0.164 A 
ENDROOT
BRANCH   2  15
HETATM   15  N   UNL     1     -41.225 -52.905  11.307  1.00  0.00    -0.156 N 
HETATM   16  H   UNL     1     -40.802 -53.381  10.509  1.00  0.00     0.199 HD
BRANCH  15  17
HETATM   17  N   UNL     1     -40.959 -51.518  11.376  1.00  0.00    -0.235 NA
HETATM   18  H   UNL     1     -39.976 -51.375  11.648  1.00  0.00     0.143 HD
HETATM   19  H   UNL     1     -41.499 -51.103  12.138  1.00  0.00     0.143 HD
ENDBRANCH  15  17
ENDBRANCH   2  15
BRANCH   1  20
HETATM   20  C   UNL     1     -43.764 -53.572  12.764  1.00  0.00     0.174 C 
BRANCH  20  21
HETATM   21  C   UNL     1     -44.439 -52.265  13.175  1.00  0.00     0.187 C 
BRANCH  21  22
HETATM   22  O   UNL     1     -43.521 -51.195  12.927  1.00  0.00    -0.394 OA
HETATM   23  C   UNL     1     -43.522 -50.244  13.985  1.00  0.00     0.201 C 
ENDBRANCH  21  22
ENDBRANCH  20  21
ENDBRANCH   1  20
TORSDOF 5
ENDMDL
MODEL 9
REMARK VINA RESULT:      -4.8      6.248      7.560
REMARK  5 active torsions:
REMARK  status: ('A' for Active; 'I' for Inactive)
REMARK    1  A    between atoms: O_2  and  C_3 
REMARK    2  A    between atoms: C_3  and  C_4 
REMARK    3  A    between atoms: C_4  and  N_5 
REMARK    4  A    between atoms: C_6  and  N_7 
REMARK    5  A    between atoms: N_7  and  N_8 
ROOT
HETATM    1  N   UNL     1     -42.216 -53.532  13.448  1.00  0.00    -0.171 N 
HETATM    2  C   UNL     1     -42.381 -52.845  12.254  1.00  0.00     0.697 A 
HETATM    3  N   UNL     1     -43.611 -52.363  12.160  1.00  0.00    -0.173 N 
ATOM      4  HN  UNL     1     -44.012 -51.838  11.383  1.00  0.00     0.186 HD
HETATM    5  C   UNL     1     -44.227 -52.715  13.318  1.00  0.00     0.160 A 
HETATM    6  N   UNL     1     -45.514 -52.395  13.696  1.00  0.00    -0.287 N 
HETATM    7  C   UNL     1     -46.381 -51.575  12.874  1.00  0.00     0.163 C 
HETATM    8  C   UNL     1     -46.006 -52.848  14.921  1.00  0.00     0.332 A 
HETATM    9  O   UNL     1     -47.153 -52.583  15.285  1.00  0.00    -0.246 OA
HETATM   10  N   UNL     1     -45.136 -53.606  15.719  1.00  0.00    -0.269 N 
HETATM   11  C   UNL     1     -45.614 -54.102  16.996  1.00  0.00     0.164 C 
HETATM   12  C   UNL     1     -43.807 -53.900  15.412  1.00  0.00     0.282 A 
HETATM   13  O   UNL     1     -43.059 -54.498  16.179  1.00  0.00    -0.265 OA
HETATM   14  C   UNL     1     -43.404 -53.433  14.130  1.00  0.00     0.164 A 
ENDROOT
BRANCH   2  15
HETATM   15  N   UNL     1     -41.384 -52.724  11.335  1.00  0.00    -0.156 N 
HETATM   16  H   UNL     1     -40.701 -53.471  11.209  1.00  0.00     0.199 HD
BRANCH  15  17
HETATM   17  N   UNL     1     -40.845 -51.417  11.301  1.00  0.00    -0.235 NA
HETATM   18  H   UNL     1     -40.088 -51.345  11.996  1.00  0.00     0.143 HD
HETATM   19  H   UNL     1     -41.548 -50.746  11.616  1.00  0.00     0.143 HD
ENDBRANCH  15  17
ENDBRANCH   2  15
BRANCH   1  20
HETATM   20  C   UNL     1     -40.996 -54.111  13.969  1.00  0.00     0.174 C 
BRANCH  20  21
HETATM   21  C   UNL     1     -40.080 -53.150  14.726  1.00  0.00     0.187 C 
BRANCH  21  22
HETATM   22  O   UNL     1     -39.778 -53.735  15.997  1.00  0.00    -0.394 OA
HETATM   23  C   UNL     1     -39.521 -55.130  15.889  1.00  0.00     0.201 C 
ENDBRANCH  21  22
ENDBRANCH  20  21
ENDBRANCH   1  20
TORSDOF 5
ENDMDL
