MODEL 1
REMARK VINA RESULT:      -5.5      0.000      0.000
REMARK  6 active torsions:
REMARK  status: ('A' for Active; 'I' for Inactive)
REMARK    1  A    between atoms: O_2  and  C_3 
REMARK    2  A    between atoms: C_3  and  C_4 
REMARK    3  A    between atoms: C_4  and  N_5 
REMARK    4  A    between atoms: C_6  and  N_7 
REMARK    5  A    between atoms: C_8  and  S_9 
REMARK    6  A    between atoms: S_9  and  C_10 
ROOT
HETATM    1  N   UNL     1     -41.999 -53.148  12.997  1.00  0.00    -0.287 N 
HETATM    2  C   UNL     1     -43.295 -53.664  12.914  1.00  0.00     0.107 C 
HETATM    3  C   UNL     1     -43.737 -54.506  13.881  1.00  0.00     0.112 C 
HETATM    4  C   UNL     1     -42.793 -54.973  14.931  1.00  0.00     0.269 C 
HETATM    5  O   UNL     1     -43.134 -55.602  15.927  1.00  0.00    -0.266 OA
HETATM    6  N   UNL     1     -41.486 -54.658  14.711  1.00  0.00    -0.274 N 
HETATM    7  C   UNL     1     -41.056 -53.654  13.893  1.00  0.00     0.330 C 
HETATM    8  O   UNL     1     -39.892 -53.271  13.983  1.00  0.00    -0.246 OA
HETATM    9  H   UNL     1     -40.824 -54.964  15.407  1.00  0.00     0.173 HD
ENDROOT
BRANCH   3  10
HETATM   10  S   UNL     1     -45.419 -54.916  14.044  1.00  0.00    -0.082 SA
BRANCH  10  11
HETATM   11  C   UNL     1     -46.083 -53.520  14.922  1.00  0.00     0.005 A 
HETATM   12  C   UNL     1     -46.018 -53.541  16.321  1.00  0.00     0.019 A 
HETATM   13  C   UNL     1     -46.490 -52.464  17.072  1.00  0.00     0.001 A 
HETATM   14  C   UNL     1     -47.024 -51.351  16.428  1.00  0.00     0.000 A 
HETATM   15  C   UNL     1     -47.066 -51.306  15.036  1.00  0.00     0.001 A 
HETATM   16  C   UNL     1     -46.587 -52.382  14.284  1.00  0.00     0.019 A 
ENDBRANCH  10  11
ENDBRANCH   3  10
BRANCH   2  17
HETATM   17  N   UNL     1     -44.130 -53.337  11.843  1.00  0.00    -0.287 NA
HETATM   18  H   UNL     1     -44.425 -54.152  11.324  1.00  0.00     0.125 HD
HETATM   19  H   UNL     1     -43.645 -52.715  11.191  1.00  0.00     0.125 HD
ENDBRANCH   2  17
BRANCH   1  20
HETATM   20  C   UNL     1     -41.564 -52.040  12.130  1.00  0.00     0.161 C 
BRANCH  20  21
HETATM   21  C   UNL     1     -41.883 -50.626  12.654  1.00  0.00     0.187 C 
BRANCH  21  22
HETATM   22  O   UNL     1     -43.280 -50.428  12.861  1.00  0.00    -0.394 OA
HETATM   23  C   UNL     1     -43.553 -50.090  14.220  1.00  0.00     0.201 C 
ENDBRANCH  21  22
ENDBRANCH  20  21
ENDBRANCH   1  20
TORSDOF 6
ENDMDL
MODEL 2
REMARK VINA RESULT:      -5.2      2.529      3.380
REMARK  6 active torsions:
REMARK  status: ('A' for Active; 'I' for Inactive)
REMARK    1  A    between atoms: O_2  and  C_3 
REMARK    2  A    between atoms: C_3  and  C_4 
REMARK    3  A    between atoms: C_4  and  N_5 
REMARK    4  A    between atoms: C_6  and  N_7 
REMARK    5  A    between atoms: C_8  and  S_9 
REMARK    6  A    between atoms: S_9  and  C_10 
ROOT
HETATM    1  N   UNL     1     -40.074 -50.960  12.525  1.00  0.00    -0.287 N 
HETATM    2  C   UNL     1     -40.874 -52.098  12.406  1.00  0.00     0.107 C 
HETATM    3  C   UNL     1     -41.233 -52.777  13.524  1.00  0.00     0.112 C 
HETATM    4  C   UNL     1     -40.656 -52.381  14.836  1.00  0.00     0.269 C 
HETATM    5  O   UNL     1     -41.036 -52.826  15.914  1.00  0.00    -0.266 OA
HETATM    6  N   UNL     1     -39.644 -51.471  14.769  1.00  0.00    -0.274 N 
HETATM    7  C   UNL     1     -39.422 -50.633  13.715  1.00  0.00     0.330 C 
HETATM    8  O   UNL     1     -38.674 -49.670  13.868  1.00  0.00    -0.246 OA
HETATM    9  H   UNL     1     -39.234 -51.186  15.644  1.00  0.00     0.173 HD
ENDROOT
BRANCH   3  10
HETATM   10  S   UNL     1     -42.487 -53.981  13.506  1.00  0.00    -0.082 SA
BRANCH  10  11
HETATM   11  C   UNL     1     -43.972 -53.006  13.586  1.00  0.00     0.005 A 
HETATM   12  C   UNL     1     -44.869 -53.097  12.513  1.00  0.00     0.019 A 
HETATM   13  C   UNL     1     -46.069 -52.385  12.526  1.00  0.00     0.001 A 
HETATM   14  C   UNL     1     -46.387 -51.582  13.618  1.00  0.00     0.000 A 
HETATM   15  C   UNL     1     -45.517 -51.508  14.704  1.00  0.00     0.001 A 
HETATM   16  C   UNL     1     -44.318 -52.226  14.694  1.00  0.00     0.019 A 
ENDBRANCH  10  11
ENDBRANCH   3  10
BRANCH   2  17
HETATM   17  N   UNL     1     -41.293 -52.554  11.153  1.00  0.00    -0.287 NA
HETATM   18  H   UNL     1     -40.976 -53.494  10.961  1.00  0.00     0.125 HD
HETATM   19  H   UNL     1     -40.927 -51.948  10.415  1.00  0.00     0.125 HD
ENDBRANCH   2  17
BRANCH   1  20
HETATM   20  C   UNL     1     -39.876 -50.047  11.386  1.00  0.00     0.161 C 
BRANCH  20  21
HETATM   21  C   UNL     1     -40.961 -48.968  11.206  1.00  0.00     0.187 C 
BRANCH  21  22
HETATM   22  O   UNL     1     -40.655 -47.770  11.915  1.00  0.00    -0.394 OA
HETATM   23  C   UNL     1     -40.301 -46.719  11.016  1.00  0.00     0.201 C 
ENDBRANCH  21  22
ENDBRANCH  20  21
ENDBRANCH   1  20
TORSDOF 6
ENDMDL
MODEL 3
REMARK VINA RESULT:      -5.2      1.164      1.375
REMARK  6 active torsions:
REMARK  status: ('A' for Active; 'I' for Inactive)
REMARK    1  A    between atoms: O_2  and  C_3 
REMARK    2  A    between atoms: C_3  and  C_4 
REMARK    3  A    between atoms: C_4  and  N_5 
REMARK    4  A    between atoms: C_6  and  N_7 
REMARK    5  A    between atoms: C_8  and  S_9 
REMARK    6  A    between atoms: S_9  and  C_10 
ROOT
HETATM    1  N   UNL     1     -41.498 -52.874  13.419  1.00  0.00    -0.287 N 
HETATM    2  C   UNL     1     -42.746 -53.394  13.067  1.00  0.00     0.107 C 
HETATM    3  C   UNL     1     -43.316 -54.341  13.852  1.00  0.00     0.112 C 
HETATM    4  C   UNL     1     -42.545 -54.907  14.991  1.00  0.00     0.269 C 
HETATM    5  O   UNL     1     -43.026 -55.644  15.845  1.00  0.00    -0.266 OA
HETATM    6  N   UNL     1     -41.229 -54.554  15.027  1.00  0.00    -0.274 N 
HETATM    7  C   UNL     1     -40.701 -53.463  14.402  1.00  0.00     0.330 C 
HETATM    8  O   UNL     1     -39.580 -53.077  14.725  1.00  0.00    -0.246 OA
HETATM    9  H   UNL     1     -40.683 -54.925  15.789  1.00  0.00     0.173 HD
ENDROOT
BRANCH   3  10
HETATM   10  S   UNL     1     -44.988 -54.787  13.688  1.00  0.00    -0.082 SA
BRANCH  10  11
HETATM   11  C   UNL     1     -45.836 -53.456  14.508  1.00  0.00     0.005 A 
HETATM   12  C   UNL     1     -45.901 -53.490  15.907  1.00  0.00     0.019 A 
HETATM   13  C   UNL     1     -46.521 -52.461  16.616  1.00  0.00     0.001 A 
HETATM   14  C   UNL     1     -47.075 -51.383  15.931  1.00  0.00     0.000 A 
HETATM   15  C   UNL     1     -46.989 -51.323  14.542  1.00  0.00     0.001 A 
HETATM   16  C   UNL     1     -46.362 -52.351  13.832  1.00  0.00     0.019 A 
ENDBRANCH  10  11
ENDBRANCH   3  10
BRANCH   2  17
HETATM   17  N   UNL     1     -43.402 -52.964  11.911  1.00  0.00    -0.287 NA
HETATM   18  H   UNL     1     -43.122 -53.487  11.093  1.00  0.00     0.125 HD
HETATM   19  H   UNL     1     -43.197 -51.978  11.731  1.00  0.00     0.125 HD
ENDBRANCH   2  17
BRANCH   1  20
HETATM   20  C   UNL     1     -40.960 -51.673  12.757  1.00  0.00     0.161 C 
BRANCH  20  21
HETATM   21  C   UNL     1     -41.363 -50.330  13.395  1.00  0.00     0.187 C 
BRANCH  21  22
HETATM   22  O   UNL     1     -40.378 -49.847  14.305  1.00  0.00    -0.394 OA
HETATM   23  C   UNL     1     -39.091 -49.800  13.691  1.00  0.00     0.201 C 
ENDBRANCH  21  22
ENDBRANCH  20  21
ENDBRANCH   1  20
TORSDOF 6
ENDMDL
MODEL 4
REMARK VINA RESULT:      -5.1      1.871      3.286
REMARK  6 active torsions:
REMARK  status: ('A' for Active; 'I' for Inactive)
REMARK    1  A    between atoms: O_2  and  C_3 
REMARK    2  A    between atoms: C_3  and  C_4 
REMARK    3  A    between atoms: C_4  and  N_5 
REMARK    4  A    between atoms: C_6  and  N_7 
REMARK    5  A    between atoms: C_8  and  S_9 
REMARK    6  A    between atoms: S_9  and  C_10 
ROOT
HETATM    1  N   UNL     1     -41.598 -54.019  13.541  1.00  0.00    -0.287 N 
HETATM    2  C   UNL     1     -42.757 -54.414  14.213  1.00  0.00     0.107 C 
HETATM    3  C   UNL     1     -43.968 -54.118  13.678  1.00  0.00     0.112 C 
HETATM    4  C   UNL     1     -44.042 -53.262  12.465  1.00  0.00     0.269 C 
HETATM    5  O   UNL     1     -45.068 -53.072  11.822  1.00  0.00    -0.266 OA
HETATM    6  N   UNL     1     -42.866 -52.676  12.102  1.00  0.00    -0.274 N 
HETATM    7  C   UNL     1     -41.630 -53.118  12.475  1.00  0.00     0.330 C 
HETATM    8  O   UNL     1     -40.643 -52.702  11.874  1.00  0.00    -0.246 OA
HETATM    9  H   UNL     1     -42.888 -52.089  11.283  1.00  0.00     0.173 HD
ENDROOT
BRANCH   3  10
HETATM   10  S   UNL     1     -45.433 -54.857  14.254  1.00  0.00    -0.082 SA
BRANCH  10  11
HETATM   11  C   UNL     1     -46.116 -53.605  15.315  1.00  0.00     0.005 A 
HETATM   12  C   UNL     1     -45.861 -53.706  16.689  1.00  0.00     0.019 A 
HETATM   13  C   UNL     1     -46.339 -52.740  17.575  1.00  0.00     0.001 A 
HETATM   14  C   UNL     1     -47.069 -51.657  17.093  1.00  0.00     0.000 A 
HETATM   15  C   UNL     1     -47.302 -51.529  15.725  1.00  0.00     0.001 A 
HETATM   16  C   UNL     1     -46.818 -52.494  14.837  1.00  0.00     0.019 A 
ENDBRANCH  10  11
ENDBRANCH   3  10
BRANCH   2  17
HETATM   17  N   UNL     1     -42.684 -55.091  15.433  1.00  0.00    -0.287 NA
HETATM   18  H   UNL     1     -42.798 -54.473  16.223  1.00  0.00     0.125 HD
HETATM   19  H   UNL     1     -41.776 -55.552  15.529  1.00  0.00     0.125 HD
ENDBRANCH   2  17
BRANCH   1  20
HETATM   20  C   UNL     1     -40.276 -54.535  13.936  1.00  0.00     0.161 C 
BRANCH  20  21
HETATM   21  C   UNL     1     -39.561 -53.741  15.046  1.00  0.00     0.187 C 
BRANCH  21  22
HETATM   22  O   UNL     1     -38.603 -54.531  15.745  1.00  0.00    -0.394 OA
HETATM   23  C   UNL     1     -39.218 -55.673  16.341  1.00  0.00     0.201 C 
ENDBRANCH  21  22
ENDBRANCH  20  21
ENDBRANCH   1  20
TORSDOF 6
ENDMDL
MODEL 5
REMARK VINA RESULT:      -4.9      1.741      2.221
REMARK  6 active torsions:
REMARK  status: ('A' for Active; 'I' for Inactive)
REMARK    1  A    between atoms: O_2  and  C_3 
REMARK    2  A    between atoms: C_3  and  C_4 
REMARK    3  A    between atoms: C_4  and  N_5 
REMARK    4  A    between atoms: C_6  and  N_7 
REMARK    5  A    between atoms: C_8  and  S_9 
REMARK    6  A    between atoms: S_9  and  C_10 
ROOT
HETATM    1  N   UNL     1     -41.929 -53.774  13.399  1.00  0.00    -0.287 N 
HETATM    2  C   UNL     1     -43.261 -53.523  13.064  1.00  0.00     0.107 C 
HETATM    3  C   UNL     1     -44.238 -53.816  13.958  1.00  0.00     0.112 C 
HETATM    4  C   UNL     1     -43.887 -54.526  15.217  1.00  0.00     0.269 C 
HETATM    5  O   UNL     1     -44.666 -54.692  16.149  1.00  0.00    -0.266 OA
HETATM    6  N   UNL     1     -42.612 -55.002  15.272  1.00  0.00    -0.274 N 
HETATM    7  C   UNL     1     -41.577 -54.543  14.511  1.00  0.00     0.330 C 
HETATM    8  O   UNL     1     -40.428 -54.833  14.832  1.00  0.00    -0.246 OA
HETATM    9  H   UNL     1     -42.349 -55.489  16.115  1.00  0.00     0.173 HD
ENDROOT
BRANCH   3  10
HETATM   10  S   UNL     1     -45.863 -53.228  13.769  1.00  0.00    -0.082 SA
BRANCH  10  11
HETATM   11  C   UNL     1     -46.009 -52.040  15.085  1.00  0.00     0.005 A 
HETATM   12  C   UNL     1     -47.193 -52.040  15.833  1.00  0.00     0.019 A 
HETATM   13  C   UNL     1     -47.361 -51.158  16.901  1.00  0.00     0.001 A 
HETATM   14  C   UNL     1     -46.340 -50.272  17.235  1.00  0.00     0.000 A 
HETATM   15  C   UNL     1     -45.146 -50.283  16.517  1.00  0.00     0.001 A 
HETATM   16  C   UNL     1     -44.976 -51.172  15.452  1.00  0.00     0.019 A 
ENDBRANCH  10  11
ENDBRANCH   3  10
BRANCH   2  17
HETATM   17  N   UNL     1     -43.598 -52.991  11.816  1.00  0.00    -0.287 NA
HETATM   18  H   UNL     1     -43.702 -53.705  11.110  1.00  0.00     0.125 HD
HETATM   19  H   UNL     1     -42.872 -52.345  11.498  1.00  0.00     0.125 HD
ENDBRANCH   2  17
BRANCH   1  20
HETATM   20  C   UNL     1     -40.824 -53.240  12.585  1.00  0.00     0.161 C 
BRANCH  20  21
HETATM   21  C   UNL     1     -40.243 -51.894  13.060  1.00  0.00     0.187 C 
BRANCH  21  22
HETATM   22  O   UNL     1     -38.823 -51.928  13.173  1.00  0.00    -0.394 OA
HETATM   23  C   UNL     1     -38.250 -50.670  12.821  1.00  0.00     0.201 C 
ENDBRANCH  21  22
ENDBRANCH  20  21
ENDBRANCH   1  20
TORSDOF 6
ENDMDL
MODEL 6
REMARK VINA RESULT:      -4.8      3.215      6.547
REMARK  6 active torsions:
REMARK  status: ('A' for Active; 'I' for Inactive)
REMARK    1  A    between atoms: O_2  and  C_3 
REMARK    2  A    between atoms: C_3  and  C_4 
REMARK    3  A    between atoms: C_4  and  N_5 
REMARK    4  A    between atoms: C_6  and  N_7 
REMARK    5  A    between atoms: C_8  and  S_9 
REMARK    6  A    between atoms: S_9  and  C_10 
ROOT
HETATM    1  N   UNL     1     -42.589 -52.472  13.024  1.00  0.00    -0.287 N 
HETATM    2  C   UNL     1     -41.722 -51.850  12.123  1.00  0.00     0.107 C 
HETATM    3  C   UNL     1     -41.690 -50.496  12.060  1.00  0.00     0.112 C 
HETATM    4  C   UNL     1     -42.673 -49.703  12.847  1.00  0.00     0.269 C 
HETATM    5  O   UNL     1     -42.622 -48.486  12.978  1.00  0.00    -0.266 OA
HETATM    6  N   UNL     1     -43.668 -50.433  13.425  1.00  0.00    -0.274 N 
HETATM    7  C   UNL     1     -43.601 -51.771  13.683  1.00  0.00     0.330 C 
HETATM    8  O   UNL     1     -44.418 -52.270  14.453  1.00  0.00    -0.246 OA
HETATM    9  H   UNL     1     -44.349 -49.920  13.963  1.00  0.00     0.173 HD
ENDROOT
BRANCH   3  10
HETATM   10  S   UNL     1     -40.419 -49.644  11.233  1.00  0.00    -0.082 SA
BRANCH  10  11
HETATM   11  C   UNL     1     -39.223 -49.372  12.521  1.00  0.00     0.005 A 
HETATM   12  C   UNL     1     -39.124 -48.080  13.055  1.00  0.00     0.019 A 
HETATM   13  C   UNL     1     -38.231 -47.805  14.090  1.00  0.00     0.001 A 
HETATM   14  C   UNL     1     -37.432 -48.822  14.607  1.00  0.00     0.000 A 
HETATM   15  C   UNL     1     -37.543 -50.117  14.104  1.00  0.00     0.001 A 
HETATM   16  C   UNL     1     -38.444 -50.394  13.071  1.00  0.00     0.019 A 
ENDBRANCH  10  11
ENDBRANCH   3  10
BRANCH   2  17
HETATM   17  N   UNL     1     -40.904 -52.603  11.278  1.00  0.00    -0.287 NA
HETATM   18  H   UNL     1     -39.922 -52.439  11.447  1.00  0.00     0.125 HD
HETATM   19  H   UNL     1     -41.092 -52.369  10.300  1.00  0.00     0.125 HD
ENDBRANCH   2  17
BRANCH   1  20
HETATM   20  C   UNL     1     -42.478 -53.911  13.317  1.00  0.00     0.161 C 
BRANCH  20  21
HETATM   21  C   UNL     1     -41.370 -54.299  14.315  1.00  0.00     0.187 C 
BRANCH  21  22
HETATM   22  O   UNL     1     -40.119 -54.527  13.670  1.00  0.00    -0.394 OA
HETATM   23  C   UNL     1     -39.074 -53.789  14.304  1.00  0.00     0.201 C 
ENDBRANCH  21  22
ENDBRANCH  20  21
ENDBRANCH   1  20
TORSDOF 6
ENDMDL
MODEL 7
REMARK VINA RESULT:      -4.8      2.265      5.191
REMARK  6 active torsions:
REMARK  status: ('A' for Active; 'I' for Inactive)
REMARK    1  A    between atoms: O_2  and  C_3 
REMARK    2  A    between atoms: C_3  and  C_4 
REMARK    3  A    between atoms: C_4  and  N_5 
REMARK    4  A    between atoms: C_6  and  N_7 
REMARK    5  A    between atoms: C_8  and  S_9 
REMARK    6  A    between atoms: S_9  and  C_10 
ROOT
HETATM    1  N   UNL     1     -43.728 -54.357  13.895  1.00  0.00    -0.287 N 
HETATM    2  C   UNL     1     -43.186 -53.380  13.056  1.00  0.00     0.107 C 
HETATM    3  C   UNL     1     -41.842 -53.207  13.020  1.00  0.00     0.112 C 
HETATM    4  C   UNL     1     -40.982 -53.960  13.972  1.00  0.00     0.269 C 
HETATM    5  O   UNL     1     -39.758 -53.991  13.911  1.00  0.00    -0.266 OA
HETATM    6  N   UNL     1     -41.655 -54.628  14.951  1.00  0.00    -0.274 N 
HETATM    7  C   UNL     1     -42.969 -54.990  14.881  1.00  0.00     0.330 C 
HETATM    8  O   UNL     1     -43.398 -55.825  15.674  1.00  0.00    -0.246 OA
HETATM    9  H   UNL     1     -41.096 -55.145  15.610  1.00  0.00     0.173 HD
ENDROOT
BRANCH   3  10
HETATM   10  S   UNL     1     -41.068 -52.272  11.774  1.00  0.00    -0.082 SA
BRANCH  10  11
HETATM   11  C   UNL     1     -40.454 -50.860  12.664  1.00  0.00     0.005 A 
HETATM   12  C   UNL     1     -39.204 -50.349  12.291  1.00  0.00     0.019 A 
HETATM   13  C   UNL     1     -38.677 -49.223  12.924  1.00  0.00     0.001 A 
HETATM   14  C   UNL     1     -39.401 -48.592  13.932  1.00  0.00     0.000 A 
HETATM   15  C   UNL     1     -40.659 -49.073  14.291  1.00  0.00     0.001 A 
HETATM   16  C   UNL     1     -41.189 -50.197  13.652  1.00  0.00     0.019 A 
ENDBRANCH  10  11
ENDBRANCH   3  10
BRANCH   2  17
HETATM   17  N   UNL     1     -44.011 -52.571  12.270  1.00  0.00    -0.287 NA
HETATM   18  H   UNL     1     -43.926 -52.778  11.286  1.00  0.00     0.125 HD
HETATM   19  H   UNL     1     -43.771 -51.586  12.400  1.00  0.00     0.125 HD
ENDBRANCH   2  17
BRANCH   1  20
HETATM   20  C   UNL     1     -45.139 -54.761  13.781  1.00  0.00     0.161 C 
BRANCH  20  21
HETATM   21  C   UNL     1     -46.137 -53.918  14.599  1.00  0.00     0.187 C 
BRANCH  21  22
HETATM   22  O   UNL     1     -46.662 -52.825  13.850  1.00  0.00    -0.394 OA
HETATM   23  C   UNL     1     -46.664 -51.627  14.626  1.00  0.00     0.201 C 
ENDBRANCH  21  22
ENDBRANCH  20  21
ENDBRANCH   1  20
TORSDOF 6
ENDMDL
MODEL 8
REMARK VINA RESULT:      -4.8      6.677      8.825
REMARK  6 active torsions:
REMARK  status: ('A' for Active; 'I' for Inactive)
REMARK    1  A    between atoms: O_2  and  C_3 
REMARK    2  A    between atoms: C_3  and  C_4 
REMARK    3  A    between atoms: C_4  and  N_5 
REMARK    4  A    between atoms: C_6  and  N_7 
REMARK    5  A    between atoms: C_8  and  S_9 
REMARK    6  A    between atoms: S_9  and  C_10 
ROOT
HETATM    1  N   UNL     1     -40.111 -45.397  12.093  1.00  0.00    -0.287 N 
HETATM    2  C   UNL     1     -40.471 -46.579  12.744  1.00  0.00     0.107 C 
HETATM    3  C   UNL     1     -41.102 -47.556  12.047  1.00  0.00     0.112 C 
HETATM    4  C   UNL     1     -41.524 -47.297  10.644  1.00  0.00     0.269 C 
HETATM    5  O   UNL     1     -41.954 -48.160   9.888  1.00  0.00    -0.266 OA
HETATM    6  N   UNL     1     -41.407 -46.001  10.238  1.00  0.00    -0.274 N 
HETATM    7  C   UNL     1     -40.594 -45.074  10.823  1.00  0.00     0.330 C 
HETATM    8  O   UNL     1     -40.348 -44.033  10.219  1.00  0.00    -0.246 OA
HETATM    9  H   UNL     1     -41.688 -45.797   9.292  1.00  0.00     0.173 HD
ENDROOT
BRANCH   3  10
HETATM   10  S   UNL     1     -41.275 -49.168  12.673  1.00  0.00    -0.082 SA
BRANCH  10  11
HETATM   11  C   UNL     1     -39.626 -49.822  12.542  1.00  0.00     0.005 A 
HETATM   12  C   UNL     1     -39.208 -50.734  13.520  1.00  0.00     0.019 A 
HETATM   13  C   UNL     1     -37.939 -51.311  13.459  1.00  0.00     0.001 A 
HETATM   14  C   UNL     1     -37.079 -50.987  12.413  1.00  0.00     0.000 A 
HETATM   15  C   UNL     1     -37.496 -50.106  11.418  1.00  0.00     0.001 A 
HETATM   16  C   UNL     1     -38.769 -49.533  11.475  1.00  0.00     0.019 A 
ENDBRANCH  10  11
ENDBRANCH   3  10
BRANCH   2  17
HETATM   17  N   UNL     1     -40.204 -46.759  14.104  1.00  0.00    -0.287 NA
HETATM   18  H   UNL     1     -41.015 -47.075  14.616  1.00  0.00     0.125 HD
HETATM   19  H   UNL     1     -39.897 -45.879  14.525  1.00  0.00     0.125 HD
ENDBRANCH   2  17
BRANCH   1  20
HETATM   20  C   UNL     1     -39.203 -44.425  12.725  1.00  0.00     0.161 C 
BRANCH  20  21
HETATM   21  C   UNL     1     -39.891 -43.308  13.534  1.00  0.00     0.187 C 
BRANCH  21  22
HETATM   22  O   UNL     1     -39.329 -42.025  13.270  1.00  0.00    -0.394 OA
HETATM   23  C   UNL     1     -40.221 -41.224  12.496  1.00  0.00     0.201 C 
ENDBRANCH  21  22
ENDBRANCH  20  21
ENDBRANCH   1  20
TORSDOF 6
ENDMDL
MODEL 9
REMARK VINA RESULT:      -4.7      2.637      5.251
REMARK  6 active torsions:
REMARK  status: ('A' for Active; 'I' for Inactive)
REMARK    1  A    between atoms: O_2  and  C_3 
REMARK    2  A    between atoms: C_3  and  C_4 
REMARK    3  A    between atoms: C_4  and  N_5 
REMARK    4  A    between atoms: C_6  and  N_7 
REMARK    5  A    between atoms: C_8  and  S_9 
REMARK    6  A    between atoms: S_9  and  C_10 
ROOT
HETATM    1  N   UNL     1     -44.522 -54.191  13.739  1.00  0.00    -0.287 N 
HETATM    2  C   UNL     1     -43.288 -54.603  14.246  1.00  0.00     0.107 C 
HETATM    3  C   UNL     1     -42.153 -54.029  13.776  1.00  0.00     0.112 C 
HETATM    4  C   UNL     1     -42.232 -53.077  12.636  1.00  0.00     0.269 C 
HETATM    5  O   UNL     1     -41.292 -52.393  12.248  1.00  0.00    -0.266 OA
HETATM    6  N   UNL     1     -43.448 -53.013  12.024  1.00  0.00    -0.274 N 
HETATM    7  C   UNL     1     -44.626 -53.397  12.595  1.00  0.00     0.330 C 
HETATM    8  O   UNL     1     -45.682 -53.039  12.079  1.00  0.00    -0.246 OA
HETATM    9  H   UNL     1     -43.529 -52.376  11.247  1.00  0.00     0.173 HD
ENDROOT
BRANCH   3  10
HETATM   10  S   UNL     1     -40.623 -54.225  14.579  1.00  0.00    -0.082 SA
BRANCH  10  11
HETATM   11  C   UNL     1     -40.430 -52.684  15.446  1.00  0.00     0.005 A 
HETATM   12  C   UNL     1     -39.239 -51.972  15.251  1.00  0.00     0.019 A 
HETATM   13  C   UNL     1     -39.036 -50.740  15.873  1.00  0.00     0.001 A 
HETATM   14  C   UNL     1     -40.028 -50.204  16.690  1.00  0.00     0.000 A 
HETATM   15  C   UNL     1     -41.229 -50.888  16.867  1.00  0.00     0.001 A 
HETATM   16  C   UNL     1     -41.435 -52.119  16.238  1.00  0.00     0.019 A 
ENDBRANCH  10  11
ENDBRANCH   3  10
BRANCH   2  17
HETATM   17  N   UNL     1     -43.208 -55.606  15.215  1.00  0.00    -0.287 NA
HETATM   18  H   UNL     1     -42.371 -56.164  15.122  1.00  0.00     0.125 HD
HETATM   19  H   UNL     1     -44.009 -56.238  15.138  1.00  0.00     0.125 HD
ENDBRANCH   2  17
BRANCH   1  20
HETATM   20  C   UNL     1     -45.783 -54.586  14.390  1.00  0.00     0.161 C 
BRANCH  20  21
HETATM   21  C   UNL     1     -46.128 -53.818  15.681  1.00  0.00     0.187 C 
BRANCH  21  22
HETATM   22  O   UNL     1     -45.801 -54.558  16.854  1.00  0.00    -0.394 OA
HETATM   23  C   UNL     1     -45.007 -53.779  17.747  1.00  0.00     0.201 C 
ENDBRANCH  21  22
ENDBRANCH  20  21
ENDBRANCH   1  20
TORSDOF 6
ENDMDL
