MODEL 1
REMARK VINA RESULT:      -5.5      0.000      0.000
REMARK  6 active torsions:
REMARK  status: ('A' for Active; 'I' for Inactive)
REMARK    1  A    between atoms: N_2  and  C_3 
REMARK    2  A    between atoms: N_2  and  C_16 
REMARK    3  A    between atoms: C_3  and  C_4 
REMARK    4  A    between atoms: C_4  and  N_5 
REMARK       I    between atoms: N_5  and  C_6 
REMARK    5  A    between atoms: C_6  and  C_8 
REMARK    6  A    between atoms: C_8  and  N_9 
ROOT
HETATM    1  N   UNL     1     -42.168 -50.077  11.865  1.00  0.00    -0.358 N 
HETATM    2  C   UNL     1     -41.206 -49.308  11.236  1.00  0.00     0.237 C 
HETATM    3  O   UNL     1     -40.120 -49.769  10.889  1.00  0.00    -0.272 OA
HETATM    4  H   UNL     1     -42.995 -49.633  12.246  1.00  0.00     0.162 HD
ENDROOT
BRANCH   2   5
HETATM    5  C   UNL     1     -41.616 -47.881  10.953  1.00  0.00     0.250 C 
BRANCH   5   6
HETATM    6  N   UNL     1     -42.773 -47.799  10.085  1.00  0.00    -0.294 N 
HETATM    7  C   UNL     1     -44.051 -47.462  10.434  1.00  0.00     0.118 A 
HETATM    8  C   UNL     1     -44.787 -47.448   9.268  1.00  0.00    -0.028 A 
HETATM    9  C   UNL     1     -46.232 -47.178   9.103  1.00  0.00     0.051 C 
HETATM   10  C   UNL     1     -43.841 -47.752   8.266  1.00  0.00     0.115 A 
HETATM   11  N   UNL     1     -42.616 -47.959   8.754  1.00  0.00    -0.309 N 
ATOM     12  HN  UNL     1     -41.763 -48.184   8.243  1.00  0.00     0.186 HD
ENDBRANCH   5   6
ENDBRANCH   2   5
BRANCH   1  13
HETATM   13  C   UNL     1     -41.942 -51.483  12.167  1.00  0.00     0.152 C 
BRANCH  13  14
HETATM   14  C   UNL     1     -42.669 -51.950  13.442  1.00  0.00     0.292 C 
BRANCH  14  15
HETATM   15  N   UNL     1     -42.832 -53.414  13.554  1.00  0.00     0.090 N 
HETATM   16  C   UNL     1     -41.620 -54.138  13.163  1.00  0.00     0.310 C 
BRANCH  15  17
HETATM   17  C   UNL     1     -44.002 -53.898  12.789  1.00  0.00     0.222 A 
HETATM   18  C   UNL     1     -45.353 -53.256  12.961  1.00  0.00     0.038 A 
HETATM   19  C   UNL     1     -45.099 -54.618  13.531  1.00  0.00     0.038 A 
ENDBRANCH  15  17
ENDBRANCH  14  15
ENDBRANCH  13  14
ENDBRANCH   1  13
TORSDOF 6
ENDMDL
MODEL 2
REMARK VINA RESULT:      -5.3      3.260      4.773
REMARK  6 active torsions:
REMARK  status: ('A' for Active; 'I' for Inactive)
REMARK    1  A    between atoms: N_2  and  C_3 
REMARK    2  A    between atoms: N_2  and  C_16 
REMARK    3  A    between atoms: C_3  and  C_4 
REMARK    4  A    between atoms: C_4  and  N_5 
REMARK       I    between atoms: N_5  and  C_6 
REMARK    5  A    between atoms: C_6  and  C_8 
REMARK    6  A    between atoms: C_8  and  N_9 
ROOT
HETATM    1  N   UNL     1     -42.570 -51.936  12.115  1.00  0.00    -0.358 N 
HETATM    2  C   UNL     1     -41.220 -51.687  11.949  1.00  0.00     0.237 C 
HETATM    3  O   UNL     1     -40.361 -52.529  12.199  1.00  0.00    -0.272 OA
HETATM    4  H   UNL     1     -43.237 -51.180  12.018  1.00  0.00     0.162 HD
ENDROOT
BRANCH   2   5
HETATM    5  C   UNL     1     -40.890 -50.326  11.380  1.00  0.00     0.250 C 
BRANCH   5   6
HETATM    6  N   UNL     1     -39.631 -49.809  11.878  1.00  0.00    -0.294 N 
HETATM    7  C   UNL     1     -39.413 -49.140  13.050  1.00  0.00     0.118 A 
HETATM    8  C   UNL     1     -38.056 -48.913  13.128  1.00  0.00    -0.028 A 
HETATM    9  C   UNL     1     -37.308 -48.195  14.184  1.00  0.00     0.051 C 
HETATM   10  C   UNL     1     -37.542 -49.524  11.964  1.00  0.00     0.115 A 
HETATM   11  N   UNL     1     -38.492 -50.075  11.205  1.00  0.00    -0.309 N 
ATOM     12  HN  UNL     1     -38.383 -50.579  10.325  1.00  0.00     0.186 HD
ENDBRANCH   5   6
ENDBRANCH   2   5
BRANCH   1  13
HETATM   13  C   UNL     1     -43.053 -53.218  12.611  1.00  0.00     0.152 C 
BRANCH  13  14
HETATM   14  C   UNL     1     -44.580 -53.377  12.482  1.00  0.00     0.292 C 
BRANCH  14  15
HETATM   15  N   UNL     1     -45.276 -53.655  13.754  1.00  0.00     0.090 N 
HETATM   16  C   UNL     1     -45.591 -55.076  13.916  1.00  0.00     0.310 C 
BRANCH  15  17
HETATM   17  C   UNL     1     -46.493 -52.827  13.908  1.00  0.00     0.222 A 
HETATM   18  C   UNL     1     -46.592 -51.476  13.253  1.00  0.00     0.038 A 
HETATM   19  C   UNL     1     -46.409 -51.571  14.736  1.00  0.00     0.038 A 
ENDBRANCH  15  17
ENDBRANCH  14  15
ENDBRANCH  13  14
ENDBRANCH   1  13
TORSDOF 6
ENDMDL
MODEL 3
REMARK VINA RESULT:      -5.3      1.405      2.514
REMARK  6 active torsions:
REMARK  status: ('A' for Active; 'I' for Inactive)
REMARK    1  A    between atoms: N_2  and  C_3 
REMARK    2  A    between atoms: N_2  and  C_16 
REMARK    3  A    between atoms: C_3  and  C_4 
REMARK    4  A    between atoms: C_4  and  N_5 
REMARK       I    between atoms: N_5  and  C_6 
REMARK    5  A    between atoms: C_6  and  C_8 
REMARK    6  A    between atoms: C_8  and  N_9 
ROOT
HETATM    1  N   UNL     1     -41.729 -50.123  11.416  1.00  0.00    -0.358 N 
HETATM    2  C   UNL     1     -41.686 -48.789  11.778  1.00  0.00     0.237 C 
HETATM    3  O   UNL     1     -41.676 -48.427  12.953  1.00  0.00    -0.272 OA
HETATM    4  H   UNL     1     -41.862 -50.376  10.444  1.00  0.00     0.162 HD
ENDROOT
BRANCH   2   5
HETATM    5  C   UNL     1     -41.588 -47.819  10.623  1.00  0.00     0.250 C 
BRANCH   5   6
HETATM    6  N   UNL     1     -42.808 -47.761   9.845  1.00  0.00    -0.294 N 
HETATM    7  C   UNL     1     -44.053 -47.396  10.277  1.00  0.00     0.118 A 
HETATM    8  C   UNL     1     -44.877 -47.422   9.172  1.00  0.00    -0.028 A 
HETATM    9  C   UNL     1     -46.329 -47.144   9.108  1.00  0.00     0.051 C 
HETATM   10  C   UNL     1     -44.015 -47.779   8.113  1.00  0.00     0.115 A 
HETATM   11  N   UNL     1     -42.757 -47.978   8.514  1.00  0.00    -0.309 N 
ATOM     12  HN  UNL     1     -41.948 -48.235   7.948  1.00  0.00     0.186 HD
ENDBRANCH   5   6
ENDBRANCH   2   5
BRANCH   1  13
HETATM   13  C   UNL     1     -41.780 -51.182  12.415  1.00  0.00     0.152 C 
BRANCH  13  14
HETATM   14  C   UNL     1     -41.088 -52.479  11.952  1.00  0.00     0.292 C 
BRANCH  14  15
HETATM   15  N   UNL     1     -41.287 -53.633  12.853  1.00  0.00     0.090 N 
HETATM   16  C   UNL     1     -42.701 -53.863  13.157  1.00  0.00     0.310 C 
BRANCH  15  17
HETATM   17  C   UNL     1     -40.496 -53.504  14.097  1.00  0.00     0.222 A 
HETATM   18  C   UNL     1     -39.040 -53.128  14.047  1.00  0.00     0.038 A 
HETATM   19  C   UNL     1     -39.434 -54.533  14.385  1.00  0.00     0.038 A 
ENDBRANCH  15  17
ENDBRANCH  14  15
ENDBRANCH  13  14
ENDBRANCH   1  13
TORSDOF 6
ENDMDL
MODEL 4
REMARK VINA RESULT:      -5.3      2.204      3.600
REMARK  6 active torsions:
REMARK  status: ('A' for Active; 'I' for Inactive)
REMARK    1  A    between atoms: N_2  and  C_3 
REMARK    2  A    between atoms: N_2  and  C_16 
REMARK    3  A    between atoms: C_3  and  C_4 
REMARK    4  A    between atoms: C_4  and  N_5 
REMARK       I    between atoms: N_5  and  C_6 
REMARK    5  A    between atoms: C_6  and  C_8 
REMARK    6  A    between atoms: C_8  and  N_9 
ROOT
HETATM    1  N   UNL     1     -41.711 -50.293  11.385  1.00  0.00    -0.358 N 
HETATM    2  C   UNL     1     -41.788 -48.964  11.760  1.00  0.00     0.237 C 
HETATM    3  O   UNL     1     -41.920 -48.618  12.933  1.00  0.00    -0.272 OA
HETATM    4  H   UNL     1     -41.729 -50.540  10.403  1.00  0.00     0.162 HD
ENDROOT
BRANCH   2   5
HETATM    5  C   UNL     1     -41.634 -47.973  10.629  1.00  0.00     0.250 C 
BRANCH   5   6
HETATM    6  N   UNL     1     -42.843 -47.838   9.843  1.00  0.00    -0.294 N 
HETATM    7  C   UNL     1     -44.085 -47.474  10.285  1.00  0.00     0.118 A 
HETATM    8  C   UNL     1     -44.896 -47.411   9.172  1.00  0.00    -0.028 A 
HETATM    9  C   UNL     1     -46.341 -47.097   9.112  1.00  0.00     0.051 C 
HETATM   10  C   UNL     1     -44.030 -47.719   8.102  1.00  0.00     0.115 A 
HETATM   11  N   UNL     1     -42.781 -47.972   8.502  1.00  0.00    -0.309 N 
ATOM     12  HN  UNL     1     -41.972 -48.210   7.929  1.00  0.00     0.186 HD
ENDBRANCH   5   6
ENDBRANCH   2   5
BRANCH   1  13
HETATM   13  C   UNL     1     -41.797 -51.367  12.366  1.00  0.00     0.152 C 
BRANCH  13  14
HETATM   14  C   UNL     1     -40.458 -52.099  12.575  1.00  0.00     0.292 C 
BRANCH  14  15
HETATM   15  N   UNL     1     -39.679 -51.628  13.738  1.00  0.00     0.090 N 
HETATM   16  C   UNL     1     -40.534 -51.278  14.875  1.00  0.00     0.310 C 
BRANCH  15  17
HETATM   17  C   UNL     1     -38.788 -50.500  13.385  1.00  0.00     0.222 A 
HETATM   18  C   UNL     1     -37.899 -50.573  12.173  1.00  0.00     0.038 A 
HETATM   19  C   UNL     1     -37.301 -50.681  13.542  1.00  0.00     0.038 A 
ENDBRANCH  15  17
ENDBRANCH  14  15
ENDBRANCH  13  14
ENDBRANCH   1  13
TORSDOF 6
ENDMDL
MODEL 5
REMARK VINA RESULT:      -5.2      1.461      6.478
REMARK  6 active torsions:
REMARK  status: ('A' for Active; 'I' for Inactive)
REMARK    1  A    between atoms: N_2  and  C_3 
REMARK    2  A    between atoms: N_2  and  C_16 
REMARK    3  A    between atoms: C_3  and  C_4 
REMARK    4  A    between atoms: C_4  and  N_5 
REMARK       I    between atoms: N_5  and  C_6 
REMARK    5  A    between atoms: C_6  and  C_8 
REMARK    6  A    between atoms: C_8  and  N_9 
ROOT
HETATM    1  N   UNL     1     -40.623 -50.723  11.271  1.00  0.00    -0.358 N 
HETATM    2  C   UNL     1     -40.716 -51.367  12.491  1.00  0.00     0.237 C 
HETATM    3  O   UNL     1     -40.732 -50.755  13.558  1.00  0.00    -0.272 OA
HETATM    4  H   UNL     1     -40.486 -51.265  10.426  1.00  0.00     0.162 HD
ENDROOT
BRANCH   2   5
HETATM    5  C   UNL     1     -40.856 -52.870  12.409  1.00  0.00     0.250 C 
BRANCH   5   6
HETATM    6  N   UNL     1     -42.218 -53.311  12.632  1.00  0.00    -0.294 N 
HETATM    7  C   UNL     1     -42.673 -54.129  13.629  1.00  0.00     0.118 A 
HETATM    8  C   UNL     1     -44.042 -54.207  13.479  1.00  0.00    -0.028 A 
HETATM    9  C   UNL     1     -45.005 -54.994  14.281  1.00  0.00     0.051 C 
HETATM   10  C   UNL     1     -44.313 -53.363  12.382  1.00  0.00     0.115 A 
HETATM   11  N   UNL     1     -43.211 -52.811  11.868  1.00  0.00    -0.309 N 
ATOM     12  HN  UNL     1     -43.137 -52.163  11.083  1.00  0.00     0.186 HD
ENDBRANCH   5   6
ENDBRANCH   2   5
BRANCH   1  13
HETATM   13  C   UNL     1     -40.526 -49.272  11.181  1.00  0.00     0.152 C 
BRANCH  13  14
HETATM   14  C   UNL     1     -41.883 -48.595  10.908  1.00  0.00     0.292 C 
BRANCH  14  15
HETATM   15  N   UNL     1     -41.787 -47.275  10.252  1.00  0.00     0.090 N 
HETATM   16  C   UNL     1     -40.775 -46.418  10.874  1.00  0.00     0.310 C 
BRANCH  15  17
HETATM   17  C   UNL     1     -43.097 -46.588  10.202  1.00  0.00     0.222 A 
HETATM   18  C   UNL     1     -44.352 -47.350   9.873  1.00  0.00     0.038 A 
HETATM   19  C   UNL     1     -43.766 -46.412   8.863  1.00  0.00     0.038 A 
ENDBRANCH  15  17
ENDBRANCH  14  15
ENDBRANCH  13  14
ENDBRANCH   1  13
TORSDOF 6
ENDMDL
MODEL 6
REMARK VINA RESULT:      -5.1      1.970      2.887
REMARK  6 active torsions:
REMARK  status: ('A' for Active; 'I' for Inactive)
REMARK    1  A    between atoms: N_2  and  C_3 
REMARK    2  A    between atoms: N_2  and  C_16 
REMARK    3  A    between atoms: C_3  and  C_4 
REMARK    4  A    between atoms: C_4  and  N_5 
REMARK       I    between atoms: N_5  and  C_6 
REMARK    5  A    between atoms: C_6  and  C_8 
REMARK    6  A    between atoms: C_8  and  N_9 
ROOT
HETATM    1  N   UNL     1     -42.197 -52.242  11.847  1.00  0.00    -0.358 N 
HETATM    2  C   UNL     1     -41.736 -51.059  12.394  1.00  0.00     0.237 C 
HETATM    3  O   UNL     1     -41.819 -50.814  13.595  1.00  0.00    -0.272 OA
HETATM    4  H   UNL     1     -42.225 -52.354  10.841  1.00  0.00     0.162 HD
ENDROOT
BRANCH   2   5
HETATM    5  C   UNL     1     -41.069 -50.122  11.413  1.00  0.00     0.250 C 
BRANCH   5   6
HETATM    6  N   UNL     1     -41.764 -48.856  11.296  1.00  0.00    -0.294 N 
HETATM    7  C   UNL     1     -41.247 -47.659  10.886  1.00  0.00     0.118 A 
HETATM    8  C   UNL     1     -42.295 -46.764  10.865  1.00  0.00    -0.028 A 
HETATM    9  C   UNL     1     -42.260 -45.323  10.527  1.00  0.00     0.051 C 
HETATM   10  C   UNL     1     -43.412 -47.539  11.244  1.00  0.00     0.115 A 
HETATM   11  N   UNL     1     -43.097 -48.811  11.499  1.00  0.00    -0.309 N 
ATOM     12  HN  UNL     1     -43.718 -49.569  11.781  1.00  0.00     0.186 HD
ENDBRANCH   5   6
ENDBRANCH   2   5
BRANCH   1  13
HETATM   13  C   UNL     1     -42.825 -53.268  12.669  1.00  0.00     0.152 C 
BRANCH  13  14
HETATM   14  C   UNL     1     -44.332 -53.423  12.392  1.00  0.00     0.292 C 
BRANCH  14  15
HETATM   15  N   UNL     1     -45.164 -53.580  13.602  1.00  0.00     0.090 N 
HETATM   16  C   UNL     1     -45.436 -54.986  13.909  1.00  0.00     0.310 C 
BRANCH  15  17
HETATM   17  C   UNL     1     -46.424 -52.810  13.510  1.00  0.00     0.222 A 
HETATM   18  C   UNL     1     -46.488 -51.533  12.715  1.00  0.00     0.038 A 
HETATM   19  C   UNL     1     -46.507 -51.479  14.211  1.00  0.00     0.038 A 
ENDBRANCH  15  17
ENDBRANCH  14  15
ENDBRANCH  13  14
ENDBRANCH   1  13
TORSDOF 6
ENDMDL
MODEL 7
REMARK VINA RESULT:      -5.1      2.450      7.263
REMARK  6 active torsions:
REMARK  status: ('A' for Active; 'I' for Inactive)
REMARK    1  A    between atoms: N_2  and  C_3 
REMARK    2  A    between atoms: N_2  and  C_16 
REMARK    3  A    between atoms: C_3  and  C_4 
REMARK    4  A    between atoms: C_4  and  N_5 
REMARK       I    between atoms: N_5  and  C_6 
REMARK    5  A    between atoms: C_6  and  C_8 
REMARK    6  A    between atoms: C_8  and  N_9 
ROOT
HETATM    1  N   UNL     1     -40.938 -49.830  10.923  1.00  0.00    -0.358 N 
HETATM    2  C   UNL     1     -41.494 -50.571  11.950  1.00  0.00     0.237 C 
HETATM    3  O   UNL     1     -42.343 -50.109  12.710  1.00  0.00    -0.272 OA
HETATM    4  H   UNL     1     -40.156 -50.204  10.400  1.00  0.00     0.162 HD
ENDROOT
BRANCH   2   5
HETATM    5  C   UNL     1     -41.025 -52.007  12.025  1.00  0.00     0.250 C 
BRANCH   5   6
HETATM    6  N   UNL     1     -42.041 -52.894  12.554  1.00  0.00    -0.294 N 
HETATM    7  C   UNL     1     -41.974 -53.647  13.694  1.00  0.00     0.118 A 
HETATM    8  C   UNL     1     -43.198 -54.269  13.826  1.00  0.00    -0.028 A 
HETATM    9  C   UNL     1     -43.630 -55.221  14.874  1.00  0.00     0.051 C 
HETATM   10  C   UNL     1     -43.944 -53.788  12.730  1.00  0.00     0.115 A 
HETATM   11  N   UNL     1     -43.250 -52.948  11.958  1.00  0.00    -0.309 N 
ATOM     12  HN  UNL     1     -43.561 -52.462  11.117  1.00  0.00     0.186 HD
ENDBRANCH   5   6
ENDBRANCH   2   5
BRANCH   1  13
HETATM   13  C   UNL     1     -41.321 -48.444  10.691  1.00  0.00     0.152 C 
BRANCH  13  14
HETATM   14  C   UNL     1     -40.395 -47.438  11.401  1.00  0.00     0.292 C 
BRANCH  14  15
HETATM   15  N   UNL     1     -41.041 -46.157  11.757  1.00  0.00     0.090 N 
HETATM   16  C   UNL     1     -42.448 -46.329  12.123  1.00  0.00     0.310 C 
BRANCH  15  17
HETATM   17  C   UNL     1     -40.897 -45.150  10.682  1.00  0.00     0.222 A 
HETATM   18  C   UNL     1     -39.549 -44.852  10.083  1.00  0.00     0.038 A 
HETATM   19  C   UNL     1     -40.193 -43.856  10.998  1.00  0.00     0.038 A 
ENDBRANCH  15  17
ENDBRANCH  14  15
ENDBRANCH  13  14
ENDBRANCH   1  13
TORSDOF 6
ENDMDL
MODEL 8
REMARK VINA RESULT:      -5.0      4.077      6.438
REMARK  6 active torsions:
REMARK  status: ('A' for Active; 'I' for Inactive)
REMARK    1  A    between atoms: N_2  and  C_3 
REMARK    2  A    between atoms: N_2  and  C_16 
REMARK    3  A    between atoms: C_3  and  C_4 
REMARK    4  A    between atoms: C_4  and  N_5 
REMARK       I    between atoms: N_5  and  C_6 
REMARK    5  A    between atoms: C_6  and  C_8 
REMARK    6  A    between atoms: C_8  and  N_9 
ROOT
HETATM    1  N   UNL     1     -42.634 -52.401  11.822  1.00  0.00    -0.358 N 
HETATM    2  C   UNL     1     -43.535 -53.136  12.570  1.00  0.00     0.237 C 
HETATM    3  O   UNL     1     -43.175 -53.940  13.428  1.00  0.00    -0.272 OA
HETATM    4  H   UNL     1     -42.964 -51.844  11.043  1.00  0.00     0.162 HD
ENDROOT
BRANCH   2   5
HETATM    5  C   UNL     1     -44.990 -52.830  12.296  1.00  0.00     0.250 C 
BRANCH   5   6
HETATM    6  N   UNL     1     -45.780 -52.767  13.508  1.00  0.00    -0.294 N 
HETATM    7  C   UNL     1     -46.146 -51.649  14.205  1.00  0.00     0.118 A 
HETATM    8  C   UNL     1     -46.951 -52.076  15.240  1.00  0.00    -0.028 A 
HETATM    9  C   UNL     1     -47.577 -51.262  16.305  1.00  0.00     0.051 C 
HETATM   10  C   UNL     1     -47.038 -53.471  15.050  1.00  0.00     0.115 A 
HETATM   11  N   UNL     1     -46.336 -53.896  13.996  1.00  0.00    -0.309 N 
ATOM     12  HN  UNL     1     -46.242 -54.848  13.644  1.00  0.00     0.186 HD
ENDBRANCH   5   6
ENDBRANCH   2   5
BRANCH   1  13
HETATM   13  C   UNL     1     -41.196 -52.548  12.001  1.00  0.00     0.152 C 
BRANCH  13  14
HETATM   14  C   UNL     1     -40.553 -51.348  12.722  1.00  0.00     0.292 C 
BRANCH  14  15
HETATM   15  N   UNL     1     -39.106 -51.493  12.981  1.00  0.00     0.090 N 
HETATM   16  C   UNL     1     -38.832 -52.076  14.296  1.00  0.00     0.310 C 
BRANCH  15  17
HETATM   17  C   UNL     1     -38.385 -50.212  12.815  1.00  0.00     0.222 A 
HETATM   18  C   UNL     1     -38.758 -49.257  11.712  1.00  0.00     0.038 A 
HETATM   19  C   UNL     1     -37.485 -50.042  11.618  1.00  0.00     0.038 A 
ENDBRANCH  15  17
ENDBRANCH  14  15
ENDBRANCH  13  14
ENDBRANCH   1  13
TORSDOF 6
ENDMDL
MODEL 9
REMARK VINA RESULT:      -4.9      2.152      5.915
REMARK  6 active torsions:
REMARK  status: ('A' for Active; 'I' for Inactive)
REMARK    1  A    between atoms: N_2  and  C_3 
REMARK    2  A    between atoms: N_2  and  C_16 
REMARK    3  A    between atoms: C_3  and  C_4 
REMARK    4  A    between atoms: C_4  and  N_5 
REMARK       I    between atoms: N_5  and  C_6 
REMARK    5  A    between atoms: C_6  and  C_8 
REMARK    6  A    between atoms: C_8  and  N_9 
ROOT
HETATM    1  N   UNL     1     -42.143 -51.651  11.847  1.00  0.00    -0.358 N 
HETATM    2  C   UNL     1     -42.367 -52.659  12.768  1.00  0.00     0.237 C 
HETATM    3  O   UNL     1     -41.625 -52.847  13.729  1.00  0.00    -0.272 OA
HETATM    4  H   UNL     1     -42.702 -51.607  11.004  1.00  0.00     0.162 HD
ENDROOT
BRANCH   2   5
HETATM    5  C   UNL     1     -43.624 -53.466  12.534  1.00  0.00     0.250 C 
BRANCH   5   6
HETATM    6  N   UNL     1     -44.812 -52.795  13.022  1.00  0.00    -0.294 N 
HETATM    7  C   UNL     1     -45.146 -52.538  14.323  1.00  0.00     0.118 A 
HETATM    8  C   UNL     1     -46.321 -51.819  14.293  1.00  0.00    -0.028 A 
HETATM    9  C   UNL     1     -47.120 -51.326  15.437  1.00  0.00     0.051 C 
HETATM   10  C   UNL     1     -46.588 -51.661  12.917  1.00  0.00     0.115 A 
HETATM   11  N   UNL     1     -45.672 -52.245  12.141  1.00  0.00    -0.309 N 
ATOM     12  HN  UNL     1     -45.633 -52.270  11.122  1.00  0.00     0.186 HD
ENDBRANCH   5   6
ENDBRANCH   2   5
BRANCH   1  13
HETATM   13  C   UNL     1     -40.998 -50.758  11.960  1.00  0.00     0.152 C 
BRANCH  13  14
HETATM   14  C   UNL     1     -41.397 -49.307  12.292  1.00  0.00     0.292 C 
BRANCH  14  15
HETATM   15  N   UNL     1     -40.993 -48.314  11.276  1.00  0.00     0.090 N 
HETATM   16  C   UNL     1     -39.779 -47.590  11.660  1.00  0.00     0.310 C 
BRANCH  15  17
HETATM   17  C   UNL     1     -42.089 -47.371  10.961  1.00  0.00     0.222 A 
HETATM   18  C   UNL     1     -43.520 -47.838  10.932  1.00  0.00     0.038 A 
HETATM   19  C   UNL     1     -42.814 -47.524   9.649  1.00  0.00     0.038 A 
ENDBRANCH  15  17
ENDBRANCH  14  15
ENDBRANCH  13  14
ENDBRANCH   1  13
TORSDOF 6
ENDMDL
