MODEL 1
REMARK VINA RESULT:      -5.6      0.000      0.000
REMARK  2 active torsions:
REMARK  status: ('A' for Active; 'I' for Inactive)
REMARK    1  A    between atoms: C_3  and  N_4 
REMARK    2  A    between atoms: N_4  and  C_5 
ROOT
HETATM    1 CL   UNL     1     -42.539 -50.341  13.915  1.00  0.00    -0.076 Cl
HETATM    2  C   UNL     1     -42.042 -51.872  13.282  1.00  0.00     0.125 C 
HETATM    3  C   UNL     1     -42.405 -53.034  13.852  1.00  0.00     0.053 C 
HETATM    4  C   UNL     1     -41.717 -54.227  13.281  1.00  0.00     0.132 C 
HETATM    5  N   UNL     1     -40.959 -54.259  12.235  1.00  0.00    -0.307 N 
ATOM      6  HN  UNL     1     -40.537 -55.125  11.898  1.00  0.00     0.186 HD
HETATM    7  N   UNL     1     -40.757 -53.069  11.610  1.00  0.00    -0.265 N 
HETATM    8  C   UNL     1     -41.203 -51.848  12.055  1.00  0.00     0.283 C 
HETATM    9  O   UNL     1     -40.943 -50.816  11.440  1.00  0.00    -0.265 OA
HETATM   10  H   UNL     1     -40.194 -53.081  10.764  1.00  0.00     0.190 HD
ENDROOT
BRANCH   3  11
HETATM   11  N   UNL     1     -43.294 -53.231  14.923  1.00  0.00    -0.283 NA
HETATM   12  H   UNL     1     -42.877 -53.897  15.576  1.00  0.00     0.128 HD
BRANCH  11  13
HETATM   13  C   UNL     1     -44.659 -53.705  14.625  1.00  0.00     0.091 C 
HETATM   14  C   UNL     1     -45.165 -53.414  13.205  1.00  0.00     0.054 C 
HETATM   15  C   UNL     1     -46.562 -52.833  13.466  1.00  0.00     0.123 C 
HETATM   16  C   UNL     1     -46.466 -51.373  13.894  1.00  0.00     0.034 C 
HETATM   17  O   UNL     1     -46.927 -53.441  14.727  1.00  0.00    -0.379 OA
HETATM   18  C   UNL     1     -45.776 -51.501  15.252  1.00  0.00     0.036 C 
HETATM   19  C   UNL     1     -45.750 -53.018  15.464  1.00  0.00     0.140 C 
ENDBRANCH  11  13
ENDBRANCH   3  11
TORSDOF 2
ENDMDL
MODEL 2
REMARK VINA RESULT:      -5.6      2.228      2.650
REMARK  2 active torsions:
REMARK  status: ('A' for Active; 'I' for Inactive)
REMARK    1  A    between atoms: C_3  and  N_4 
REMARK    2  A    between atoms: N_4  and  C_5 
ROOT
HETATM    1 CL   UNL     1     -41.515 -54.927  15.381  1.00  0.00    -0.076 Cl
HETATM    2  C   UNL     1     -41.798 -54.002  13.947  1.00  0.00     0.125 C 
HETATM    3  C   UNL     1     -43.002 -53.478  13.660  1.00  0.00     0.053 C 
HETATM    4  C   UNL     1     -43.094 -52.890  12.293  1.00  0.00     0.132 C 
HETATM    5  N   UNL     1     -42.123 -52.708  11.460  1.00  0.00    -0.307 N 
ATOM      6  HN  UNL     1     -42.268 -52.281  10.544  1.00  0.00     0.186 HD
HETATM    7  N   UNL     1     -40.897 -53.121  11.876  1.00  0.00    -0.265 N 
HETATM    8  C   UNL     1     -40.635 -53.794  13.045  1.00  0.00     0.283 C 
HETATM    9  O   UNL     1     -39.495 -54.158  13.325  1.00  0.00    -0.265 OA
HETATM   10  H   UNL     1     -40.115 -52.952  11.249  1.00  0.00     0.190 HD
ENDROOT
BRANCH   3  11
HETATM   11  N   UNL     1     -44.156 -53.470  14.463  1.00  0.00    -0.283 NA
HETATM   12  H   UNL     1     -44.977 -53.445  13.857  1.00  0.00     0.128 HD
BRANCH  11  13
HETATM   13  C   UNL     1     -44.313 -52.392  15.458  1.00  0.00     0.091 C 
HETATM   14  C   UNL     1     -45.244 -52.710  16.636  1.00  0.00     0.054 C 
HETATM   15  C   UNL     1     -46.131 -51.458  16.702  1.00  0.00     0.123 C 
HETATM   16  C   UNL     1     -47.216 -51.512  15.634  1.00  0.00     0.034 C 
HETATM   17  O   UNL     1     -45.275 -50.434  16.140  1.00  0.00    -0.379 OA
HETATM   18  C   UNL     1     -46.387 -51.403  14.353  1.00  0.00     0.036 C 
HETATM   19  C   UNL     1     -44.982 -51.126  14.898  1.00  0.00     0.140 C 
ENDBRANCH  11  13
ENDBRANCH   3  11
TORSDOF 2
ENDMDL
MODEL 3
REMARK VINA RESULT:      -5.5      2.067      2.781
REMARK  2 active torsions:
REMARK  status: ('A' for Active; 'I' for Inactive)
REMARK    1  A    between atoms: C_3  and  N_4 
REMARK    2  A    between atoms: N_4  and  C_5 
ROOT
HETATM    1 CL   UNL     1     -43.094 -48.049  12.933  1.00  0.00    -0.076 Cl
HETATM    2  C   UNL     1     -42.213 -49.355  12.219  1.00  0.00     0.125 C 
HETATM    3  C   UNL     1     -42.343 -50.624  12.643  1.00  0.00     0.053 C 
HETATM    4  C   UNL     1     -41.359 -51.566  12.040  1.00  0.00     0.132 C 
HETATM    5  N   UNL     1     -40.533 -51.316  11.077  1.00  0.00    -0.307 N 
ATOM      6  HN  UNL     1     -39.899 -52.026  10.709  1.00  0.00     0.186 HD
HETATM    7  N   UNL     1     -40.561 -50.049  10.585  1.00  0.00    -0.265 N 
HETATM    8  C   UNL     1     -41.308 -49.012  11.091  1.00  0.00     0.283 C 
HETATM    9  O   UNL     1     -41.243 -47.887  10.599  1.00  0.00    -0.265 OA
HETATM   10  H   UNL     1     -39.945 -49.844   9.803  1.00  0.00     0.190 HD
ENDROOT
BRANCH   3  11
HETATM   11  N   UNL     1     -43.245 -51.128  13.597  1.00  0.00    -0.283 NA
HETATM   12  H   UNL     1     -42.833 -51.954  14.032  1.00  0.00     0.128 HD
BRANCH  11  13
HETATM   13  C   UNL     1     -44.603 -51.497  13.154  1.00  0.00     0.091 C 
HETATM   14  C   UNL     1     -45.641 -51.662  14.273  1.00  0.00     0.054 C 
HETATM   15  C   UNL     1     -46.305 -52.998  13.912  1.00  0.00     0.123 C 
HETATM   16  C   UNL     1     -45.429 -54.168  14.345  1.00  0.00     0.034 C 
HETATM   17  O   UNL     1     -46.122 -53.065  12.478  1.00  0.00    -0.379 OA
HETATM   18  C   UNL     1     -44.224 -54.004  13.418  1.00  0.00     0.036 C 
HETATM   19  C   UNL     1     -44.683 -52.878  12.484  1.00  0.00     0.140 C 
ENDBRANCH  11  13
ENDBRANCH   3  11
TORSDOF 2
ENDMDL
MODEL 4
REMARK VINA RESULT:      -5.4      6.146      7.866
REMARK  2 active torsions:
REMARK  status: ('A' for Active; 'I' for Inactive)
REMARK    1  A    between atoms: C_3  and  N_4 
REMARK    2  A    between atoms: N_4  and  C_5 
ROOT
HETATM    1 CL   UNL     1     -38.928 -47.137  13.606  1.00  0.00    -0.076 Cl
HETATM    2  C   UNL     1     -39.563 -48.092  12.311  1.00  0.00     0.125 C 
HETATM    3  C   UNL     1     -40.759 -47.836  11.753  1.00  0.00     0.053 C 
HETATM    4  C   UNL     1     -41.214 -48.883  10.795  1.00  0.00     0.132 C 
HETATM    5  N   UNL     1     -40.527 -49.886  10.357  1.00  0.00    -0.307 N 
ATOM      6  HN  UNL     1     -40.909 -50.553   9.685  1.00  0.00     0.186 HD
HETATM    7  N   UNL     1     -39.264 -50.000  10.845  1.00  0.00    -0.265 N 
HETATM    8  C   UNL     1     -38.711 -49.208  11.823  1.00  0.00     0.283 C 
HETATM    9  O   UNL     1     -37.568 -49.406  12.228  1.00  0.00    -0.265 OA
HETATM   10  H   UNL     1     -38.696 -50.762  10.484  1.00  0.00     0.190 HD
ENDROOT
BRANCH   3  11
HETATM   11  N   UNL     1     -41.616 -46.750  12.004  1.00  0.00    -0.283 NA
HETATM   12  H   UNL     1     -42.578 -47.090  12.022  1.00  0.00     0.128 HD
BRANCH  11  13
HETATM   13  C   UNL     1     -41.576 -45.595  11.087  1.00  0.00     0.091 C 
HETATM   14  C   UNL     1     -40.173 -45.140  10.659  1.00  0.00     0.054 C 
HETATM   15  C   UNL     1     -40.241 -43.621  10.873  1.00  0.00     0.123 C 
HETATM   16  C   UNL     1     -40.068 -43.278  12.349  1.00  0.00     0.034 C 
HETATM   17  O   UNL     1     -41.652 -43.342  10.715  1.00  0.00    -0.379 OA
HETATM   18  C   UNL     1     -41.344 -43.870  12.949  1.00  0.00     0.036 C 
HETATM   19  C   UNL     1     -42.124 -44.297  11.701  1.00  0.00     0.140 C 
ENDBRANCH  11  13
ENDBRANCH   3  11
TORSDOF 2
ENDMDL
MODEL 5
REMARK VINA RESULT:      -5.4      2.485      3.351
REMARK  2 active torsions:
REMARK  status: ('A' for Active; 'I' for Inactive)
REMARK    1  A    between atoms: C_3  and  N_4 
REMARK    2  A    between atoms: N_4  and  C_5 
ROOT
HETATM    1 CL   UNL     1     -38.948 -52.433  14.258  1.00  0.00    -0.076 Cl
HETATM    2  C   UNL     1     -39.515 -51.426  12.972  1.00  0.00     0.125 C 
HETATM    3  C   UNL     1     -40.825 -51.248  12.727  1.00  0.00     0.053 C 
HETATM    4  C   UNL     1     -41.108 -50.510  11.463  1.00  0.00     0.132 C 
HETATM    5  N   UNL     1     -40.247 -49.920  10.699  1.00  0.00    -0.307 N 
ATOM      6  HN  UNL     1     -40.526 -49.420   9.855  1.00  0.00     0.186 HD
HETATM    7  N   UNL     1     -38.948 -50.006  11.090  1.00  0.00    -0.265 N 
HETATM    8  C   UNL     1     -38.481 -50.742  12.153  1.00  0.00     0.283 C 
HETATM    9  O   UNL     1     -37.280 -50.788  12.412  1.00  0.00    -0.265 OA
HETATM   10  H   UNL     1     -38.262 -49.517  10.522  1.00  0.00     0.190 HD
ENDROOT
BRANCH   3  11
HETATM   11  N   UNL     1     -41.917 -51.709  13.482  1.00  0.00    -0.283 NA
HETATM   12  H   UNL     1     -41.578 -52.387  14.167  1.00  0.00     0.128 HD
BRANCH  11  13
HETATM   13  C   UNL     1     -43.050 -52.332  12.772  1.00  0.00     0.091 C 
HETATM   14  C   UNL     1     -44.442 -51.995  13.325  1.00  0.00     0.054 C 
HETATM   15  C   UNL     1     -45.107 -53.376  13.409  1.00  0.00     0.123 C 
HETATM   16  C   UNL     1     -44.632 -54.127  14.647  1.00  0.00     0.034 C 
HETATM   17  O   UNL     1     -44.415 -54.123  12.380  1.00  0.00    -0.379 OA
HETATM   18  C   UNL     1     -43.158 -54.361  14.312  1.00  0.00     0.036 C 
HETATM   19  C   UNL     1     -43.071 -53.867  12.864  1.00  0.00     0.140 C 
ENDBRANCH  11  13
ENDBRANCH   3  11
TORSDOF 2
ENDMDL
MODEL 6
REMARK VINA RESULT:      -5.4      2.189      5.100
REMARK  2 active torsions:
REMARK  status: ('A' for Active; 'I' for Inactive)
REMARK    1  A    between atoms: C_3  and  N_4 
REMARK    2  A    between atoms: N_4  and  C_5 
ROOT
HETATM    1 CL   UNL     1     -44.526 -50.967  13.157  1.00  0.00    -0.076 Cl
HETATM    2  C   UNL     1     -45.177 -52.511  13.585  1.00  0.00     0.125 C 
HETATM    3  C   UNL     1     -44.568 -53.662  13.252  1.00  0.00     0.053 C 
HETATM    4  C   UNL     1     -45.381 -54.879  13.535  1.00  0.00     0.132 C 
HETATM    5  N   UNL     1     -46.498 -54.932  14.183  1.00  0.00    -0.307 N 
ATOM      6  HN  UNL     1     -46.987 -55.813  14.349  1.00  0.00     0.186 HD
HETATM    7  N   UNL     1     -46.983 -53.744  14.631  1.00  0.00    -0.265 N 
HETATM    8  C   UNL     1     -46.443 -52.509  14.364  1.00  0.00     0.283 C 
HETATM    9  O   UNL     1     -46.972 -51.482  14.785  1.00  0.00    -0.265 OA
HETATM   10  H   UNL     1     -47.842 -53.771  15.174  1.00  0.00     0.190 HD
ENDROOT
BRANCH   3  11
HETATM   11  N   UNL     1     -43.313 -53.831  12.642  1.00  0.00    -0.283 NA
HETATM   12  H   UNL     1     -43.402 -54.522  11.896  1.00  0.00     0.128 HD
BRANCH  11  13
HETATM   13  C   UNL     1     -42.172 -54.239  13.483  1.00  0.00     0.091 C 
HETATM   14  C   UNL     1     -42.059 -53.523  14.837  1.00  0.00     0.054 C 
HETATM   15  C   UNL     1     -40.579 -53.118  14.873  1.00  0.00     0.123 C 
HETATM   16  C   UNL     1     -40.341 -51.874  14.025  1.00  0.00     0.034 C 
HETATM   17  O   UNL     1     -39.956 -54.118  14.032  1.00  0.00    -0.379 OA
HETATM   18  C   UNL     1     -40.623 -52.408  12.619  1.00  0.00     0.036 C 
HETATM   19  C   UNL     1     -40.801 -53.909  12.870  1.00  0.00     0.140 C 
ENDBRANCH  11  13
ENDBRANCH   3  11
TORSDOF 2
ENDMDL
MODEL 7
REMARK VINA RESULT:      -5.2      2.970      6.087
REMARK  2 active torsions:
REMARK  status: ('A' for Active; 'I' for Inactive)
REMARK    1  A    between atoms: C_3  and  N_4 
REMARK    2  A    between atoms: N_4  and  C_5 
ROOT
HETATM    1 CL   UNL     1     -40.643 -54.284  15.316  1.00  0.00    -0.076 Cl
HETATM    2  C   UNL     1     -41.700 -53.853  14.016  1.00  0.00     0.125 C 
HETATM    3  C   UNL     1     -41.320 -53.023  13.030  1.00  0.00     0.053 C 
HETATM    4  C   UNL     1     -42.429 -52.620  12.119  1.00  0.00     0.132 C 
HETATM    5  N   UNL     1     -43.631 -53.097  12.101  1.00  0.00    -0.307 N 
ATOM      6  HN  UNL     1     -44.330 -52.777  11.430  1.00  0.00     0.186 HD
HETATM    7  N   UNL     1     -43.906 -54.050  13.030  1.00  0.00    -0.265 N 
HETATM    8  C   UNL     1     -43.056 -54.462  14.028  1.00  0.00     0.283 C 
HETATM    9  O   UNL     1     -43.405 -55.310  14.847  1.00  0.00    -0.265 OA
HETATM   10  H   UNL     1     -44.835 -54.463  13.007  1.00  0.00     0.190 HD
ENDROOT
BRANCH   3  11
HETATM   11  N   UNL     1     -40.045 -52.476  12.803  1.00  0.00    -0.283 NA
HETATM   12  H   UNL     1     -39.373 -52.950  13.408  1.00  0.00     0.128 HD
BRANCH  11  13
HETATM   13  C   UNL     1     -39.859 -51.025  12.993  1.00  0.00     0.091 C 
HETATM   14  C   UNL     1     -39.922 -50.178  11.714  1.00  0.00     0.054 C 
HETATM   15  C   UNL     1     -38.681 -49.283  11.850  1.00  0.00     0.123 C 
HETATM   16  C   UNL     1     -37.422 -50.049  11.461  1.00  0.00     0.034 C 
HETATM   17  O   UNL     1     -38.499 -49.211  13.284  1.00  0.00    -0.379 OA
HETATM   18  C   UNL     1     -37.344 -51.091  12.578  1.00  0.00     0.036 C 
HETATM   19  C   UNL     1     -38.466 -50.643  13.520  1.00  0.00     0.140 C 
ENDBRANCH  11  13
ENDBRANCH   3  11
TORSDOF 2
ENDMDL
MODEL 8
REMARK VINA RESULT:      -5.1      5.351      7.303
REMARK  2 active torsions:
REMARK  status: ('A' for Active; 'I' for Inactive)
REMARK    1  A    between atoms: C_3  and  N_4 
REMARK    2  A    between atoms: N_4  and  C_5 
ROOT
HETATM    1 CL   UNL     1     -37.591 -49.136  13.516  1.00  0.00    -0.076 Cl
HETATM    2  C   UNL     1     -38.869 -49.772  12.538  1.00  0.00     0.125 C 
HETATM    3  C   UNL     1     -39.540 -49.012  11.655  1.00  0.00     0.053 C 
HETATM    4  C   UNL     1     -40.727 -49.688  11.058  1.00  0.00     0.132 C 
HETATM    5  N   UNL     1     -41.062 -50.930  11.190  1.00  0.00    -0.307 N 
ATOM      6  HN  UNL     1     -41.886 -51.320  10.732  1.00  0.00     0.186 HD
HETATM    7  N   UNL     1     -40.249 -51.684  11.976  1.00  0.00    -0.265 N 
HETATM    8  C   UNL     1     -39.183 -51.214  12.705  1.00  0.00     0.283 C 
HETATM    9  O   UNL     1     -38.522 -51.968  13.417  1.00  0.00    -0.265 OA
HETATM   10  H   UNL     1     -40.475 -52.671  12.061  1.00  0.00     0.190 HD
ENDROOT
BRANCH   3  11
HETATM   11  N   UNL     1     -39.280 -47.681  11.285  1.00  0.00    -0.283 NA
HETATM   12  H   UNL     1     -38.418 -47.377  11.742  1.00  0.00     0.128 HD
BRANCH  11  13
HETATM   13  C   UNL     1     -40.308 -46.660  11.564  1.00  0.00     0.091 C 
HETATM   14  C   UNL     1     -40.096 -45.305  10.875  1.00  0.00     0.054 C 
HETATM   15  C   UNL     1     -40.311 -44.313  12.027  1.00  0.00     0.123 C 
HETATM   16  C   UNL     1     -39.068 -44.232  12.906  1.00  0.00     0.034 C 
HETATM   17  O   UNL     1     -41.196 -45.042  12.911  1.00  0.00    -0.379 OA
HETATM   18  C   UNL     1     -39.040 -45.631  13.522  1.00  0.00     0.036 C 
HETATM   19  C   UNL     1     -40.367 -46.227  13.037  1.00  0.00     0.140 C 
ENDBRANCH  11  13
ENDBRANCH   3  11
TORSDOF 2
ENDMDL
MODEL 9
REMARK VINA RESULT:      -5.1      2.212      5.332
REMARK  2 active torsions:
REMARK  status: ('A' for Active; 'I' for Inactive)
REMARK    1  A    between atoms: C_3  and  N_4 
REMARK    2  A    between atoms: N_4  and  C_5 
ROOT
HETATM    1 CL   UNL     1     -43.327 -54.823  15.452  1.00  0.00    -0.076 Cl
HETATM    2  C   UNL     1     -44.524 -54.126  14.417  1.00  0.00     0.125 C 
HETATM    3  C   UNL     1     -44.214 -53.582  13.227  1.00  0.00     0.053 C 
HETATM    4  C   UNL     1     -45.346 -52.860  12.579  1.00  0.00     0.132 C 
HETATM    5  N   UNL     1     -46.579 -52.844  12.966  1.00  0.00    -0.307 N 
ATOM      6  HN  UNL     1     -47.301 -52.335  12.454  1.00  0.00     0.186 HD
HETATM    7  N   UNL     1     -46.857 -53.546  14.097  1.00  0.00    -0.265 N 
HETATM    8  C   UNL     1     -45.930 -54.171  14.897  1.00  0.00     0.283 C 
HETATM    9  O   UNL     1     -46.271 -54.756  15.923  1.00  0.00    -0.265 OA
HETATM   10  H   UNL     1     -47.828 -53.575  14.395  1.00  0.00     0.190 HD
ENDROOT
BRANCH   3  11
HETATM   11  N   UNL     1     -42.968 -53.580  12.576  1.00  0.00    -0.283 NA
HETATM   12  H   UNL     1     -42.324 -54.174  13.101  1.00  0.00     0.128 HD
BRANCH  11  13
HETATM   13  C   UNL     1     -42.291 -52.287  12.357  1.00  0.00     0.091 C 
HETATM   14  C   UNL     1     -40.916 -52.368  11.680  1.00  0.00     0.054 C 
HETATM   15  C   UNL     1     -40.055 -51.464  12.574  1.00  0.00     0.123 C 
HETATM   16  C   UNL     1     -39.642 -52.200  13.844  1.00  0.00     0.034 C 
HETATM   17  O   UNL     1     -41.028 -50.543  13.123  1.00  0.00    -0.379 OA
HETATM   18  C   UNL     1     -40.989 -52.370  14.547  1.00  0.00     0.036 C 
HETATM   19  C   UNL     1     -41.928 -51.550  13.656  1.00  0.00     0.140 C 
ENDBRANCH  11  13
ENDBRANCH   3  11
TORSDOF 2
ENDMDL
