MODEL 1
REMARK VINA RESULT:      -6.6      0.000      0.000
REMARK  5 active torsions:
REMARK  status: ('A' for Active; 'I' for Inactive)
REMARK    1  A    between atoms: C_7  and  N_8 
REMARK       I    between atoms: N_8  and  C_9 
REMARK       I    between atoms: C_9  and  N_11 
REMARK    2  A    between atoms: N_11  and  C_12 
REMARK    3  A    between atoms: C_12  and  C_13 
REMARK    4  A    between atoms: C_13  and  C_14 
REMARK       I    between atoms: C_14  and  N_16 
REMARK    5  A    between atoms: N_16  and  C_17 
ROOT
HETATM    1  N   UNL     1     -40.683 -49.109  12.290  1.00  0.00    -0.288 N 
HETATM    2  C   UNL     1     -41.086 -48.219  11.323  1.00  0.00     0.322 C 
HETATM    3  O   UNL     1     -41.701 -48.495  10.300  1.00  0.00    -0.247 OA
HETATM    4  N   UNL     1     -40.715 -46.927  11.605  1.00  0.00    -0.342 N 
HETATM    5  H   UNL     1     -40.328 -48.787  13.171  1.00  0.00     0.172 HD
HETATM    6  H   UNL     1     -40.429 -46.669  12.540  1.00  0.00     0.164 HD
ENDROOT
BRANCH   4   7
HETATM    7  C   UNL     1     -41.070 -45.835  10.711  1.00  0.00     0.133 C 
BRANCH   7   8
HETATM    8  C   UNL     1     -42.417 -45.191  11.039  1.00  0.00     0.122 C 
BRANCH   8   9
HETATM    9  C   UNL     1     -43.425 -45.385   9.923  1.00  0.00     0.219 C 
HETATM   10  O   UNL     1     -43.734 -44.492   9.136  1.00  0.00    -0.274 OA
HETATM   11  N   UNL     1     -43.987 -46.647   9.896  1.00  0.00    -0.356 N 
HETATM   12  H   UNL     1     -43.570 -47.374  10.467  1.00  0.00     0.162 HD
BRANCH  11  13
HETATM   13  C   UNL     1     -44.923 -47.036   8.856  1.00  0.00     0.084 C 
HETATM   14  C   UNL     1     -46.182 -47.709   9.405  1.00  0.00     0.025 C 
HETATM   15  C   UNL     1     -46.588 -48.764   8.374  1.00  0.00     0.002 C 
HETATM   16  C   UNL     1     -45.567 -48.676   7.247  1.00  0.00     0.002 C 
HETATM   17  C   UNL     1     -44.334 -48.067   7.895  1.00  0.00     0.025 C 
ENDBRANCH  11  13
ENDBRANCH   8   9
ENDBRANCH   7   8
ENDBRANCH   4   7
BRANCH   1  18
HETATM   18  C   UNL     1     -40.889 -50.455  12.122  1.00  0.00     0.169 A 
HETATM   19  N   UNL     1     -40.820 -51.179  11.031  1.00  0.00    -0.279 N 
HETATM   20  N   UNL     1     -41.128 -52.502  11.262  1.00  0.00    -0.296 N 
ATOM     21  HN  UNL     1     -40.566 -50.805  10.117  1.00  0.00     0.189 HD
HETATM   22  C   UNL     1     -41.435 -52.725  12.521  1.00  0.00     0.066 A 
ATOM     23  HN  UNL     1     -41.119 -53.224  10.541  1.00  0.00     0.187 HD
HETATM   24  C   UNL     1     -41.878 -54.040  13.047  1.00  0.00     0.078 C 
HETATM   25  S   UNL     1     -41.301 -51.334  13.531  1.00  0.00    -0.038 SA
ENDBRANCH   1  18
TORSDOF 5
ENDMDL
MODEL 2
REMARK VINA RESULT:      -6.5      3.657      6.898
REMARK  5 active torsions:
REMARK  status: ('A' for Active; 'I' for Inactive)
REMARK    1  A    between atoms: C_7  and  N_8 
REMARK       I    between atoms: N_8  and  C_9 
REMARK       I    between atoms: C_9  and  N_11 
REMARK    2  A    between atoms: N_11  and  C_12 
REMARK    3  A    between atoms: C_12  and  C_13 
REMARK    4  A    between atoms: C_13  and  C_14 
REMARK       I    between atoms: C_14  and  N_16 
REMARK    5  A    between atoms: N_16  and  C_17 
ROOT
HETATM    1  N   UNL     1     -39.963 -51.015  12.400  1.00  0.00    -0.288 N 
HETATM    2  C   UNL     1     -40.714 -52.162  12.502  1.00  0.00     0.322 C 
HETATM    3  O   UNL     1     -41.774 -52.383  11.932  1.00  0.00    -0.247 OA
HETATM    4  N   UNL     1     -40.153 -53.087  13.349  1.00  0.00    -0.342 N 
HETATM    5  H   UNL     1     -39.031 -50.974  12.770  1.00  0.00     0.172 HD
HETATM    6  H   UNL     1     -39.184 -53.009  13.624  1.00  0.00     0.164 HD
ENDROOT
BRANCH   4   7
HETATM    7  C   UNL     1     -40.788 -54.378  13.572  1.00  0.00     0.133 C 
BRANCH   7   8
HETATM    8  C   UNL     1     -41.530 -54.471  14.905  1.00  0.00     0.122 C 
BRANCH   8   9
HETATM    9  C   UNL     1     -43.035 -54.438  14.720  1.00  0.00     0.219 C 
HETATM   10  O   UNL     1     -43.749 -55.428  14.863  1.00  0.00    -0.274 OA
HETATM   11  N   UNL     1     -43.521 -53.200  14.346  1.00  0.00    -0.356 N 
HETATM   12  H   UNL     1     -42.902 -52.400  14.405  1.00  0.00     0.162 HD
BRANCH  11  13
HETATM   13  C   UNL     1     -44.945 -52.963  14.189  1.00  0.00     0.084 C 
HETATM   14  C   UNL     1     -45.368 -52.806  12.727  1.00  0.00     0.025 C 
HETATM   15  C   UNL     1     -46.505 -51.782  12.717  1.00  0.00     0.002 C 
HETATM   16  C   UNL     1     -46.724 -51.372  14.169  1.00  0.00     0.002 C 
HETATM   17  C   UNL     1     -45.398 -51.664  14.852  1.00  0.00     0.025 C 
ENDBRANCH  11  13
ENDBRANCH   8   9
ENDBRANCH   7   8
ENDBRANCH   4   7
BRANCH   1  18
HETATM   18  C   UNL     1     -40.423 -49.948  11.670  1.00  0.00     0.169 A 
HETATM   19  N   UNL     1     -40.665 -49.862  10.384  1.00  0.00    -0.279 N 
HETATM   20  N   UNL     1     -41.089 -48.603  10.016  1.00  0.00    -0.296 N 
ATOM     21  HN  UNL     1     -40.552 -50.637   9.731  1.00  0.00     0.189 HD
HETATM   22  C   UNL     1     -41.135 -47.780  11.040  1.00  0.00     0.066 A 
ATOM     23  HN  UNL     1     -41.336 -48.341   9.062  1.00  0.00     0.187 HD
HETATM   24  C   UNL     1     -41.486 -46.341  10.934  1.00  0.00     0.078 C 
HETATM   25  S   UNL     1     -40.726 -48.511  12.547  1.00  0.00    -0.038 SA
ENDBRANCH   1  18
TORSDOF 5
ENDMDL
MODEL 3
REMARK VINA RESULT:      -6.4      2.541      6.762
REMARK  5 active torsions:
REMARK  status: ('A' for Active; 'I' for Inactive)
REMARK    1  A    between atoms: C_7  and  N_8 
REMARK       I    between atoms: N_8  and  C_9 
REMARK       I    between atoms: C_9  and  N_11 
REMARK    2  A    between atoms: N_11  and  C_12 
REMARK    3  A    between atoms: C_12  and  C_13 
REMARK    4  A    between atoms: C_13  and  C_14 
REMARK       I    between atoms: C_14  and  N_16 
REMARK    5  A    between atoms: N_16  and  C_17 
ROOT
HETATM    1  N   UNL     1     -41.584 -47.333   9.850  1.00  0.00    -0.288 N 
HETATM    2  C   UNL     1     -41.095 -48.160  10.834  1.00  0.00     0.322 C 
HETATM    3  O   UNL     1     -41.621 -49.189  11.240  1.00  0.00    -0.247 OA
HETATM    4  N   UNL     1     -39.908 -47.711  11.361  1.00  0.00    -0.342 N 
HETATM    5  H   UNL     1     -41.018 -46.601   9.464  1.00  0.00     0.172 HD
HETATM    6  H   UNL     1     -39.363 -47.013  10.874  1.00  0.00     0.164 HD
ENDROOT
BRANCH   4   7
HETATM    7  C   UNL     1     -39.219 -48.462  12.400  1.00  0.00     0.133 C 
BRANCH   7   8
HETATM    8  C   UNL     1     -38.166 -49.427  11.857  1.00  0.00     0.122 C 
BRANCH   8   9
HETATM    9  C   UNL     1     -38.345 -50.830  12.404  1.00  0.00     0.219 C 
HETATM   10  O   UNL     1     -37.411 -51.616  12.554  1.00  0.00    -0.274 OA
HETATM   11  N   UNL     1     -39.659 -51.152  12.686  1.00  0.00    -0.356 N 
HETATM   12  H   UNL     1     -40.348 -50.408  12.692  1.00  0.00     0.162 HD
BRANCH  11  13
HETATM   13  C   UNL     1     -40.014 -52.428  13.280  1.00  0.00     0.084 C 
HETATM   14  C   UNL     1     -40.966 -53.250  12.408  1.00  0.00     0.025 C 
HETATM   15  C   UNL     1     -41.884 -54.005  13.371  1.00  0.00     0.002 C 
HETATM   16  C   UNL     1     -41.444 -53.616  14.777  1.00  0.00     0.002 C 
HETATM   17  C   UNL     1     -40.760 -52.270  14.603  1.00  0.00     0.025 C 
ENDBRANCH  11  13
ENDBRANCH   8   9
ENDBRANCH   7   8
ENDBRANCH   4   7
BRANCH   1  18
HETATM   18  C   UNL     1     -42.808 -47.582   9.282  1.00  0.00     0.169 A 
HETATM   19  N   UNL     1     -43.094 -48.023   8.081  1.00  0.00    -0.279 N 
HETATM   20  N   UNL     1     -44.453 -48.113   7.868  1.00  0.00    -0.296 N 
ATOM     21  HN  UNL     1     -42.392 -48.271   7.384  1.00  0.00     0.189 HD
HETATM   22  C   UNL     1     -45.143 -47.719   8.916  1.00  0.00     0.066 A 
ATOM     23  HN  UNL     1     -44.873 -48.445   7.000  1.00  0.00     0.187 HD
HETATM   24  C   UNL     1     -46.625 -47.639   8.951  1.00  0.00     0.078 C 
HETATM   25  S   UNL     1     -44.172 -47.273  10.268  1.00  0.00    -0.038 SA
ENDBRANCH   1  18
TORSDOF 5
ENDMDL
MODEL 4
REMARK VINA RESULT:      -6.2      3.241      6.602
REMARK  5 active torsions:
REMARK  status: ('A' for Active; 'I' for Inactive)
REMARK    1  A    between atoms: C_7  and  N_8 
REMARK       I    between atoms: N_8  and  C_9 
REMARK       I    between atoms: C_9  and  N_11 
REMARK    2  A    between atoms: N_11  and  C_12 
REMARK    3  A    between atoms: C_12  and  C_13 
REMARK    4  A    between atoms: C_13  and  C_14 
REMARK       I    between atoms: C_14  and  N_16 
REMARK    5  A    between atoms: N_16  and  C_17 
ROOT
HETATM    1  N   UNL     1     -40.629 -49.584  10.731  1.00  0.00    -0.288 N 
HETATM    2  C   UNL     1     -40.963 -50.377  11.804  1.00  0.00     0.322 C 
HETATM    3  O   UNL     1     -41.929 -50.225  12.540  1.00  0.00    -0.247 OA
HETATM    4  N   UNL     1     -40.071 -51.404  12.000  1.00  0.00    -0.342 N 
HETATM    5  H   UNL     1     -39.917 -49.866  10.083  1.00  0.00     0.172 HD
HETATM    6  H   UNL     1     -39.426 -51.669  11.269  1.00  0.00     0.164 HD
ENDROOT
BRANCH   4   7
HETATM    7  C   UNL     1     -40.265 -52.367  13.075  1.00  0.00     0.133 C 
BRANCH   7   8
HETATM    8  C   UNL     1     -41.015 -53.624  12.638  1.00  0.00     0.122 C 
BRANCH   8   9
HETATM    9  C   UNL     1     -42.360 -53.750  13.327  1.00  0.00     0.219 C 
HETATM   10  O   UNL     1     -42.613 -54.631  14.147  1.00  0.00    -0.274 OA
HETATM   11  N   UNL     1     -43.282 -52.805  12.921  1.00  0.00    -0.356 N 
HETATM   12  H   UNL     1     -42.958 -52.019  12.369  1.00  0.00     0.162 HD
BRANCH  11  13
HETATM   13  C   UNL     1     -44.602 -52.729  13.522  1.00  0.00     0.084 C 
HETATM   14  C   UNL     1     -45.722 -52.583  12.490  1.00  0.00     0.025 C 
HETATM   15  C   UNL     1     -46.788 -51.697  13.136  1.00  0.00     0.002 C 
HETATM   16  C   UNL     1     -46.273 -51.355  14.529  1.00  0.00     0.002 C 
HETATM   17  C   UNL     1     -44.764 -51.510  14.426  1.00  0.00     0.025 C 
ENDBRANCH  11  13
ENDBRANCH   8   9
ENDBRANCH   7   8
ENDBRANCH   4   7
BRANCH   1  18
HETATM   18  C   UNL     1     -41.359 -48.457  10.449  1.00  0.00     0.169 A 
HETATM   19  N   UNL     1     -42.271 -48.265   9.527  1.00  0.00    -0.279 N 
HETATM   20  N   UNL     1     -42.759 -46.975   9.536  1.00  0.00    -0.296 N 
ATOM     21  HN  UNL     1     -42.584 -48.987   8.878  1.00  0.00     0.189 HD
HETATM   22  C   UNL     1     -42.182 -46.237  10.459  1.00  0.00     0.066 A 
ATOM     23  HN  UNL     1     -43.481 -46.635   8.903  1.00  0.00     0.187 HD
HETATM   24  C   UNL     1     -42.454 -44.791  10.654  1.00  0.00     0.078 C 
HETATM   25  S   UNL     1     -41.043 -47.092  11.431  1.00  0.00    -0.038 SA
ENDBRANCH   1  18
TORSDOF 5
ENDMDL
MODEL 5
REMARK VINA RESULT:      -6.0      2.824      4.446
REMARK  5 active torsions:
REMARK  status: ('A' for Active; 'I' for Inactive)
REMARK    1  A    between atoms: C_7  and  N_8 
REMARK       I    between atoms: N_8  and  C_9 
REMARK       I    between atoms: C_9  and  N_11 
REMARK    2  A    between atoms: N_11  and  C_12 
REMARK    3  A    between atoms: C_12  and  C_13 
REMARK    4  A    between atoms: C_13  and  C_14 
REMARK       I    between atoms: C_14  and  N_16 
REMARK    5  A    between atoms: N_16  and  C_17 
ROOT
HETATM    1  N   UNL     1     -42.891 -52.869  11.757  1.00  0.00    -0.288 N 
HETATM    2  C   UNL     1     -41.984 -52.005  12.325  1.00  0.00     0.322 C 
HETATM    3  O   UNL     1     -42.109 -51.433  13.400  1.00  0.00    -0.247 OA
HETATM    4  N   UNL     1     -40.870 -51.818  11.542  1.00  0.00    -0.342 N 
HETATM    5  H   UNL     1     -42.646 -53.420  10.955  1.00  0.00     0.172 HD
HETATM    6  H   UNL     1     -40.659 -52.459  10.790  1.00  0.00     0.164 HD
ENDROOT
BRANCH   4   7
HETATM    7  C   UNL     1     -39.784 -50.955  11.982  1.00  0.00     0.133 C 
BRANCH   7   8
HETATM    8  C   UNL     1     -39.656 -49.671  11.163  1.00  0.00     0.122 C 
BRANCH   8   9
HETATM    9  C   UNL     1     -40.849 -48.754  11.355  1.00  0.00     0.219 C 
HETATM   10  O   UNL     1     -41.227 -48.371  12.460  1.00  0.00    -0.274 OA
HETATM   11  N   UNL     1     -41.488 -48.420  10.177  1.00  0.00    -0.356 N 
HETATM   12  H   UNL     1     -41.028 -48.638   9.300  1.00  0.00     0.162 HD
BRANCH  11  13
HETATM   13  C   UNL     1     -42.608 -47.497  10.160  1.00  0.00     0.084 C 
HETATM   14  C   UNL     1     -43.466 -47.621   8.899  1.00  0.00     0.025 C 
HETATM   15  C   UNL     1     -43.961 -46.210   8.577  1.00  0.00     0.002 C 
HETATM   16  C   UNL     1     -43.391 -45.300   9.658  1.00  0.00     0.002 C 
HETATM   17  C   UNL     1     -42.164 -46.037  10.169  1.00  0.00     0.025 C 
ENDBRANCH  11  13
ENDBRANCH   8   9
ENDBRANCH   7   8
ENDBRANCH   4   7
BRANCH   1  18
HETATM   18  C   UNL     1     -44.102 -53.097  12.360  1.00  0.00     0.169 A 
HETATM   19  N   UNL     1     -45.260 -52.522  12.145  1.00  0.00    -0.279 N 
HETATM   20  N   UNL     1     -46.245 -53.003  12.981  1.00  0.00    -0.296 N 
ATOM     21  HN  UNL     1     -45.415 -51.801  11.441  1.00  0.00     0.189 HD
HETATM   22  C   UNL     1     -45.786 -53.916  13.809  1.00  0.00     0.066 A 
ATOM     23  HN  UNL     1     -47.215 -52.689  12.960  1.00  0.00     0.187 HD
HETATM   24  C   UNL     1     -46.601 -54.559  14.870  1.00  0.00     0.078 C 
HETATM   25  S   UNL     1     -44.122 -54.300  13.576  1.00  0.00    -0.038 SA
ENDBRANCH   1  18
TORSDOF 5
ENDMDL
MODEL 6
REMARK VINA RESULT:      -5.9      3.403      4.976
REMARK  5 active torsions:
REMARK  status: ('A' for Active; 'I' for Inactive)
REMARK    1  A    between atoms: C_7  and  N_8 
REMARK       I    between atoms: N_8  and  C_9 
REMARK       I    between atoms: C_9  and  N_11 
REMARK    2  A    between atoms: N_11  and  C_12 
REMARK    3  A    between atoms: C_12  and  C_13 
REMARK    4  A    between atoms: C_13  and  C_14 
REMARK       I    between atoms: C_14  and  N_16 
REMARK    5  A    between atoms: N_16  and  C_17 
ROOT
HETATM    1  N   UNL     1     -41.488 -51.884  13.697  1.00  0.00    -0.288 N 
HETATM    2  C   UNL     1     -40.271 -51.973  13.063  1.00  0.00     0.322 C 
HETATM    3  O   UNL     1     -40.003 -52.699  12.114  1.00  0.00    -0.247 OA
HETATM    4  N   UNL     1     -39.325 -51.144  13.615  1.00  0.00    -0.342 N 
HETATM    5  H   UNL     1     -41.672 -51.152  14.358  1.00  0.00     0.172 HD
HETATM    6  H   UNL     1     -39.600 -50.386  14.225  1.00  0.00     0.164 HD
ENDROOT
BRANCH   4   7
HETATM    7  C   UNL     1     -37.977 -51.078  13.068  1.00  0.00     0.133 C 
BRANCH   7   8
HETATM    8  C   UNL     1     -37.761 -49.900  12.120  1.00  0.00     0.122 C 
BRANCH   8   9
HETATM    9  C   UNL     1     -38.732 -48.767  12.391  1.00  0.00     0.219 C 
HETATM   10  O   UNL     1     -38.754 -48.143  13.451  1.00  0.00    -0.274 OA
HETATM   11  N   UNL     1     -39.609 -48.527  11.352  1.00  0.00    -0.356 N 
HETATM   12  H   UNL     1     -39.429 -48.966  10.457  1.00  0.00     0.162 HD
BRANCH  11  13
HETATM   13  C   UNL     1     -40.566 -47.436  11.407  1.00  0.00     0.084 C 
HETATM   14  C   UNL     1     -41.825 -47.702  10.580  1.00  0.00     0.025 C 
HETATM   15  C   UNL     1     -42.262 -46.349  10.015  1.00  0.00     0.002 C 
HETATM   16  C   UNL     1     -41.257 -45.326  10.531  1.00  0.00     0.002 C 
HETATM   17  C   UNL     1     -40.007 -46.137  10.831  1.00  0.00     0.025 C 
ENDBRANCH  11  13
ENDBRANCH   8   9
ENDBRANCH   7   8
ENDBRANCH   4   7
BRANCH   1  18
HETATM   18  C   UNL     1     -42.520 -52.711  13.334  1.00  0.00     0.169 A 
HETATM   19  N   UNL     1     -43.054 -52.908  12.153  1.00  0.00    -0.279 N 
HETATM   20  N   UNL     1     -44.104 -53.800  12.197  1.00  0.00    -0.296 N 
ATOM     21  HN  UNL     1     -42.730 -52.454  11.300  1.00  0.00     0.189 HD
HETATM   22  C   UNL     1     -44.333 -54.232  13.418  1.00  0.00     0.066 A 
ATOM     23  HN  UNL     1     -44.641 -54.091  11.380  1.00  0.00     0.187 HD
HETATM   24  C   UNL     1     -45.446 -55.144  13.781  1.00  0.00     0.078 C 
HETATM   25  S   UNL     1     -43.229 -53.625  14.595  1.00  0.00    -0.038 SA
ENDBRANCH   1  18
TORSDOF 5
ENDMDL
MODEL 7
REMARK VINA RESULT:      -5.7      2.937      6.861
REMARK  5 active torsions:
REMARK  status: ('A' for Active; 'I' for Inactive)
REMARK    1  A    between atoms: C_7  and  N_8 
REMARK       I    between atoms: N_8  and  C_9 
REMARK       I    between atoms: C_9  and  N_11 
REMARK    2  A    between atoms: N_11  and  C_12 
REMARK    3  A    between atoms: C_12  and  C_13 
REMARK    4  A    between atoms: C_13  and  C_14 
REMARK       I    between atoms: C_14  and  N_16 
REMARK    5  A    between atoms: N_16  and  C_17 
ROOT
HETATM    1  N   UNL     1     -40.265 -47.947  11.622  1.00  0.00    -0.288 N 
HETATM    2  C   UNL     1     -39.773 -49.226  11.738  1.00  0.00     0.322 C 
HETATM    3  O   UNL     1     -40.243 -50.229  11.217  1.00  0.00    -0.247 OA
HETATM    4  N   UNL     1     -38.658 -49.294  12.538  1.00  0.00    -0.342 N 
HETATM    5  H   UNL     1     -39.734 -47.160  11.946  1.00  0.00     0.172 HD
HETATM    6  H   UNL     1     -38.140 -48.457  12.766  1.00  0.00     0.164 HD
ENDROOT
BRANCH   4   7
HETATM    7  C   UNL     1     -37.977 -50.560  12.766  1.00  0.00     0.133 C 
BRANCH   7   8
HETATM    8  C   UNL     1     -38.435 -51.278  14.035  1.00  0.00     0.122 C 
BRANCH   8   9
HETATM    9  C   UNL     1     -39.270 -52.504  13.723  1.00  0.00     0.219 C 
HETATM   10  O   UNL     1     -38.795 -53.635  13.636  1.00  0.00    -0.274 OA
HETATM   11  N   UNL     1     -40.607 -52.227  13.513  1.00  0.00    -0.356 N 
HETATM   12  H   UNL     1     -40.954 -51.306  13.758  1.00  0.00     0.162 HD
BRANCH  11  13
HETATM   13  C   UNL     1     -41.571 -53.285  13.269  1.00  0.00     0.084 C 
HETATM   14  C   UNL     1     -42.752 -52.832  12.408  1.00  0.00     0.025 C 
HETATM   15  C   UNL     1     -43.973 -53.599  12.920  1.00  0.00     0.002 C 
HETATM   16  C   UNL     1     -43.477 -54.484  14.057  1.00  0.00     0.002 C 
HETATM   17  C   UNL     1     -42.217 -53.797  14.554  1.00  0.00     0.025 C 
ENDBRANCH  11  13
ENDBRANCH   8   9
ENDBRANCH   7   8
ENDBRANCH   4   7
BRANCH   1  18
HETATM   18  C   UNL     1     -41.429 -47.712  10.936  1.00  0.00     0.169 A 
HETATM   19  N   UNL     1     -42.370 -48.553  10.581  1.00  0.00    -0.279 N 
HETATM   20  N   UNL     1     -43.378 -47.937   9.868  1.00  0.00    -0.296 N 
ATOM     21  HN  UNL     1     -42.359 -49.547  10.806  1.00  0.00     0.189 HD
HETATM   22  C   UNL     1     -43.149 -46.654   9.700  1.00  0.00     0.066 A 
ATOM     23  HN  UNL     1     -44.203 -48.421   9.514  1.00  0.00     0.187 HD
HETATM   24  C   UNL     1     -44.024 -45.751   8.910  1.00  0.00     0.078 C 
HETATM   25  S   UNL     1     -41.709 -46.092  10.463  1.00  0.00    -0.038 SA
ENDBRANCH   1  18
TORSDOF 5
ENDMDL
MODEL 8
REMARK VINA RESULT:      -5.7      3.394      6.904
REMARK  5 active torsions:
REMARK  status: ('A' for Active; 'I' for Inactive)
REMARK    1  A    between atoms: C_7  and  N_8 
REMARK       I    between atoms: N_8  and  C_9 
REMARK       I    between atoms: C_9  and  N_11 
REMARK    2  A    between atoms: N_11  and  C_12 
REMARK    3  A    between atoms: C_12  and  C_13 
REMARK    4  A    between atoms: C_13  and  C_14 
REMARK       I    between atoms: C_14  and  N_16 
REMARK    5  A    between atoms: N_16  and  C_17 
ROOT
HETATM    1  N   UNL     1     -41.670 -47.332   9.951  1.00  0.00    -0.288 N 
HETATM    2  C   UNL     1     -41.322 -46.045  10.287  1.00  0.00     0.322 C 
HETATM    3  O   UNL     1     -42.010 -45.046  10.122  1.00  0.00    -0.247 OA
HETATM    4  N   UNL     1     -40.069 -45.964  10.845  1.00  0.00    -0.342 N 
HETATM    5  H   UNL     1     -41.122 -48.112  10.264  1.00  0.00     0.172 HD
HETATM    6  H   UNL     1     -39.610 -46.793  11.196  1.00  0.00     0.164 HD
ENDROOT
BRANCH   4   7
HETATM    7  C   UNL     1     -39.529 -44.686  11.288  1.00  0.00     0.133 C 
BRANCH   7   8
HETATM    8  C   UNL     1     -39.482 -44.539  12.808  1.00  0.00     0.122 C 
BRANCH   8   9
HETATM    9  C   UNL     1     -39.603 -45.877  13.511  1.00  0.00     0.219 C 
HETATM   10  O   UNL     1     -40.679 -46.447  13.685  1.00  0.00    -0.274 OA
HETATM   11  N   UNL     1     -38.399 -46.376  13.967  1.00  0.00    -0.356 N 
HETATM   12  H   UNL     1     -37.543 -45.936  13.649  1.00  0.00     0.162 HD
BRANCH  11  13
HETATM   13  C   UNL     1     -38.312 -47.677  14.605  1.00  0.00     0.084 C 
HETATM   14  C   UNL     1     -37.261 -47.729  15.717  1.00  0.00     0.025 C 
HETATM   15  C   UNL     1     -36.668 -49.139  15.680  1.00  0.00     0.002 C 
HETATM   16  C   UNL     1     -37.389 -49.877  14.558  1.00  0.00     0.002 C 
HETATM   17  C   UNL     1     -37.887 -48.777  13.635  1.00  0.00     0.025 C 
ENDBRANCH  11  13
ENDBRANCH   8   9
ENDBRANCH   7   8
ENDBRANCH   4   7
BRANCH   1  18
HETATM   18  C   UNL     1     -42.850 -47.583   9.298  1.00  0.00     0.169 A 
HETATM   19  N   UNL     1     -43.058 -47.877   8.038  1.00  0.00    -0.279 N 
HETATM   20  N   UNL     1     -44.398 -48.028   7.750  1.00  0.00    -0.296 N 
ATOM     21  HN  UNL     1     -42.313 -47.983   7.348  1.00  0.00     0.189 HD
HETATM   22  C   UNL     1     -45.154 -47.824   8.807  1.00  0.00     0.066 A 
ATOM     23  HN  UNL     1     -44.760 -48.268   6.828  1.00  0.00     0.187 HD
HETATM   24  C   UNL     1     -46.638 -47.847   8.782  1.00  0.00     0.078 C 
HETATM   25  S   UNL     1     -44.269 -47.499  10.250  1.00  0.00    -0.038 SA
ENDBRANCH   1  18
TORSDOF 5
ENDMDL
MODEL 9
REMARK VINA RESULT:      -5.5      3.634      6.174
REMARK  5 active torsions:
REMARK  status: ('A' for Active; 'I' for Inactive)
REMARK    1  A    between atoms: C_7  and  N_8 
REMARK       I    between atoms: N_8  and  C_9 
REMARK       I    between atoms: C_9  and  N_11 
REMARK    2  A    between atoms: N_11  and  C_12 
REMARK    3  A    between atoms: C_12  and  C_13 
REMARK    4  A    between atoms: C_13  and  C_14 
REMARK       I    between atoms: C_14  and  N_16 
REMARK    5  A    between atoms: N_16  and  C_17 
ROOT
HETATM    1  N   UNL     1     -41.954 -47.267   9.796  1.00  0.00    -0.288 N 
HETATM    2  C   UNL     1     -41.558 -45.987  10.103  1.00  0.00     0.322 C 
HETATM    3  O   UNL     1     -42.295 -45.024  10.273  1.00  0.00    -0.247 OA
HETATM    4  N   UNL     1     -40.193 -45.865  10.200  1.00  0.00    -0.342 N 
HETATM    5  H   UNL     1     -41.304 -48.030   9.831  1.00  0.00     0.172 HD
HETATM    6  H   UNL     1     -39.610 -46.685  10.298  1.00  0.00     0.164 HD
ENDROOT
BRANCH   4   7
HETATM    7  C   UNL     1     -39.578 -44.590  10.541  1.00  0.00     0.133 C 
BRANCH   7   8
HETATM    8  C   UNL     1     -39.291 -44.431  12.033  1.00  0.00     0.122 C 
BRANCH   8   9
HETATM    9  C   UNL     1     -40.049 -43.264  12.636  1.00  0.00     0.219 C 
HETATM   10  O   UNL     1     -39.812 -42.818  13.757  1.00  0.00    -0.274 OA
HETATM   11  N   UNL     1     -41.050 -42.772  11.821  1.00  0.00    -0.356 N 
HETATM   12  H   UNL     1     -41.081 -43.078  10.856  1.00  0.00     0.162 HD
BRANCH  11  13
HETATM   13  C   UNL     1     -41.836 -41.612  12.204  1.00  0.00     0.084 C 
HETATM   14  C   UNL     1     -43.226 -41.977  12.727  1.00  0.00     0.025 C 
HETATM   15  C   UNL     1     -44.163 -40.856  12.273  1.00  0.00     0.002 C 
HETATM   16  C   UNL     1     -43.299 -39.861  11.507  1.00  0.00     0.002 C 
HETATM   17  C   UNL     1     -42.110 -40.678  11.028  1.00  0.00     0.025 C 
ENDBRANCH  11  13
ENDBRANCH   8   9
ENDBRANCH   7   8
ENDBRANCH   4   7
BRANCH   1  18
HETATM   18  C   UNL     1     -43.278 -47.546   9.569  1.00  0.00     0.169 A 
HETATM   19  N   UNL     1     -44.280 -47.574  10.413  1.00  0.00    -0.279 N 
HETATM   20  N   UNL     1     -45.465 -47.933   9.806  1.00  0.00    -0.296 N 
ATOM     21  HN  UNL     1     -44.193 -47.356  11.406  1.00  0.00     0.189 HD
HETATM   22  C   UNL     1     -45.307 -48.178   8.524  1.00  0.00     0.066 A 
ATOM     23  HN  UNL     1     -46.358 -48.000  10.294  1.00  0.00     0.187 HD
HETATM   24  C   UNL     1     -46.392 -48.654   7.630  1.00  0.00     0.078 C 
HETATM   25  S   UNL     1     -43.701 -47.920   7.953  1.00  0.00    -0.038 SA
ENDBRANCH   1  18
TORSDOF 5
ENDMDL
