MODEL 1
REMARK VINA RESULT:      -6.6      0.000      0.000
REMARK  6 active torsions:
REMARK  status: ('A' for Active; 'I' for Inactive)
REMARK    1  A    between atoms: N_8  and  C_9 
REMARK    2  A    between atoms: C_9  and  C_10 
REMARK    3  A    between atoms: C_10  and  O_11 
REMARK    4  A    between atoms: C_10  and  C_12 
REMARK    5  A    between atoms: C_12  and  S_13 
REMARK    6  A    between atoms: S_13  and  C_14 
ROOT
HETATM    1  C   UNL     1     -41.715 -50.315  12.112  1.00  0.00     0.162 C 
ENDROOT
BRANCH   1   2
HETATM    2  N   UNL     1     -42.104 -51.682  12.405  1.00  0.00    -0.339 N 
HETATM    3  C   UNL     1     -41.344 -52.793  12.175  1.00  0.00     0.184 A 
HETATM    4  N   UNL     1     -41.947 -53.886  12.581  1.00  0.00    -0.350 N 
HETATM    5  C   UNL     1     -43.159 -53.468  13.071  1.00  0.00     0.060 A 
ATOM      6  HN  UNL     1     -41.591 -54.841  12.541  1.00  0.00     0.166 HD
HETATM    7  C   UNL     1     -44.201 -54.215  13.639  1.00  0.00     0.039 A 
HETATM    8  C   UNL     1     -43.296 -52.090  12.955  1.00  0.00     0.062 A 
HETATM    9  C   UNL     1     -45.367 -53.561  14.083  1.00  0.00    -0.054 A 
HETATM   10  C   UNL     1     -46.465 -54.383  14.703  1.00  0.00     0.049 C 
HETATM   11  C   UNL     1     -45.486 -52.161  13.949  1.00  0.00    -0.054 A 
HETATM   12  C   UNL     1     -44.445 -51.408  13.372  1.00  0.00     0.039 A 
HETATM   13  C   UNL     1     -46.719 -51.437  14.424  1.00  0.00     0.049 C 
ENDBRANCH   1   2
BRANCH   1  14
HETATM   14  C   UNL     1     -40.327 -50.180  11.456  1.00  0.00     0.146 C 
BRANCH  14  15
HETATM   15  O   UNL     1     -40.459 -49.832  10.070  1.00  0.00    -0.393 OA
HETATM   16  H   UNL     1     -39.617 -50.032   9.618  1.00  0.00     0.210 HD
ENDBRANCH  14  15
BRANCH  14  17
HETATM   17  C   UNL     1     -39.349 -49.220  12.155  1.00  0.00     0.115 C 
BRANCH  17  18
HETATM   18  S   UNL     1     -40.240 -47.894  13.035  1.00  0.00    -0.091 SA
BRANCH  18  19
HETATM   19  C   UNL     1     -40.042 -46.568  11.941  1.00  0.00     0.145 A 
HETATM   20  N   UNL     1     -40.115 -46.638  10.632  1.00  0.00    -0.345 N 
HETATM   21  C   UNL     1     -39.897 -45.360  10.191  1.00  0.00     0.107 A 
ATOM     22  HN  UNL     1     -40.296 -47.466  10.066  1.00  0.00     0.167 HD
HETATM   23  C   UNL     1     -39.691 -44.504  11.247  1.00  0.00     0.109 A 
HETATM   24  N   UNL     1     -39.789 -45.290  12.365  1.00  0.00    -0.341 N 
HETATM   25  C   UNL     1     -39.655 -44.821  13.723  1.00  0.00     0.158 C 
ENDBRANCH  18  19
ENDBRANCH  17  18
ENDBRANCH  14  17
ENDBRANCH   1  14
TORSDOF 6
ENDMDL
MODEL 2
REMARK VINA RESULT:      -6.4      1.924      2.201
REMARK  6 active torsions:
REMARK  status: ('A' for Active; 'I' for Inactive)
REMARK    1  A    between atoms: N_8  and  C_9 
REMARK    2  A    between atoms: C_9  and  C_10 
REMARK    3  A    between atoms: C_10  and  O_11 
REMARK    4  A    between atoms: C_10  and  C_12 
REMARK    5  A    between atoms: C_12  and  S_13 
REMARK    6  A    between atoms: S_13  and  C_14 
ROOT
HETATM    1  C   UNL     1     -41.252 -49.943  12.610  1.00  0.00     0.162 C 
ENDROOT
BRANCH   1   2
HETATM    2  N   UNL     1     -41.553 -51.362  12.625  1.00  0.00    -0.339 N 
HETATM    3  C   UNL     1     -40.685 -52.364  12.293  1.00  0.00     0.184 A 
HETATM    4  N   UNL     1     -41.232 -53.549  12.441  1.00  0.00    -0.350 N 
HETATM    5  C   UNL     1     -42.516 -53.303  12.862  1.00  0.00     0.060 A 
ATOM      6  HN  UNL     1     -40.797 -54.456  12.278  1.00  0.00     0.166 HD
HETATM    7  C   UNL     1     -43.541 -54.204  13.180  1.00  0.00     0.039 A 
HETATM    8  C   UNL     1     -42.754 -51.937  12.967  1.00  0.00     0.062 A 
HETATM    9  C   UNL     1     -44.794 -53.715  13.602  1.00  0.00    -0.054 A 
HETATM   10  C   UNL     1     -45.874 -54.703  13.953  1.00  0.00     0.049 C 
HETATM   11  C   UNL     1     -45.014 -52.324  13.694  1.00  0.00    -0.054 A 
HETATM   12  C   UNL     1     -43.989 -51.415  13.368  1.00  0.00     0.039 A 
HETATM   13  C   UNL     1     -46.342 -51.777  14.150  1.00  0.00     0.049 C 
ENDBRANCH   1   2
BRANCH   1  14
HETATM   14  C   UNL     1     -40.207 -49.530  11.556  1.00  0.00     0.146 C 
BRANCH  14  15
HETATM   15  O   UNL     1     -40.538 -50.087  10.276  1.00  0.00    -0.393 OA
HETATM   16  H   UNL     1     -40.085 -49.569   9.583  1.00  0.00     0.210 HD
ENDBRANCH  14  15
BRANCH  14  17
HETATM   17  C   UNL     1     -39.950 -48.018  11.427  1.00  0.00     0.115 C 
BRANCH  17  18
HETATM   18  S   UNL     1     -41.400 -47.053  11.967  1.00  0.00    -0.091 SA
BRANCH  18  19
HETATM   19  C   UNL     1     -42.341 -47.013  10.517  1.00  0.00     0.145 A 
HETATM   20  N   UNL     1     -42.648 -48.051   9.774  1.00  0.00    -0.345 N 
HETATM   21  C   UNL     1     -43.396 -47.547   8.743  1.00  0.00     0.107 A 
ATOM     22  HN  UNL     1     -42.385 -49.023   9.931  1.00  0.00     0.167 HD
HETATM   23  C   UNL     1     -43.546 -46.186   8.864  1.00  0.00     0.109 A 
HETATM   24  N   UNL     1     -42.867 -45.854  10.007  1.00  0.00    -0.341 N 
HETATM   25  C   UNL     1     -42.757 -44.522  10.550  1.00  0.00     0.158 C 
ENDBRANCH  18  19
ENDBRANCH  17  18
ENDBRANCH  14  17
ENDBRANCH   1  14
TORSDOF 6
ENDMDL
MODEL 3
REMARK VINA RESULT:      -6.0      2.280      3.231
REMARK  6 active torsions:
REMARK  status: ('A' for Active; 'I' for Inactive)
REMARK    1  A    between atoms: N_8  and  C_9 
REMARK    2  A    between atoms: C_9  and  C_10 
REMARK    3  A    between atoms: C_10  and  O_11 
REMARK    4  A    between atoms: C_10  and  C_12 
REMARK    5  A    between atoms: C_12  and  S_13 
REMARK    6  A    between atoms: S_13  and  C_14 
ROOT
HETATM    1  C   UNL     1     -41.930 -52.448  13.465  1.00  0.00     0.162 C 
ENDROOT
BRANCH   1   2
HETATM    2  N   UNL     1     -43.369 -52.630  13.450  1.00  0.00    -0.339 N 
HETATM    3  C   UNL     1     -44.068 -53.380  12.546  1.00  0.00     0.184 A 
HETATM    4  N   UNL     1     -45.353 -53.387  12.813  1.00  0.00    -0.350 N 
HETATM    5  C   UNL     1     -45.497 -52.589  13.921  1.00  0.00     0.060 A 
ATOM      6  HN  UNL     1     -46.088 -53.880  12.306  1.00  0.00     0.166 HD
HETATM    7  C   UNL     1     -46.653 -52.252  14.638  1.00  0.00     0.039 A 
HETATM    8  C   UNL     1     -44.269 -52.082  14.333  1.00  0.00     0.062 A 
HETATM    9  C   UNL     1     -46.555 -51.409  15.763  1.00  0.00    -0.054 A 
HETATM   10  C   UNL     1     -47.810 -51.074  16.525  1.00  0.00     0.049 C 
HETATM   11  C   UNL     1     -45.299 -50.900  16.157  1.00  0.00    -0.054 A 
HETATM   12  C   UNL     1     -44.136 -51.230  15.435  1.00  0.00     0.039 A 
HETATM   13  C   UNL     1     -45.168 -50.003  17.361  1.00  0.00     0.049 C 
ENDBRANCH   1   2
BRANCH   1  14
HETATM   14  C   UNL     1     -41.402 -51.494  12.375  1.00  0.00     0.146 C 
BRANCH  14  15
HETATM   15  O   UNL     1     -41.305 -52.175  11.116  1.00  0.00    -0.393 OA
HETATM   16  H   UNL     1     -40.698 -51.676  10.538  1.00  0.00     0.210 HD
ENDBRANCH  14  15
BRANCH  14  17
HETATM   17  C   UNL     1     -42.178 -50.176  12.209  1.00  0.00     0.115 C 
BRANCH  17  18
HETATM   18  S   UNL     1     -41.249 -48.987  11.185  1.00  0.00    -0.091 SA
BRANCH  18  19
HETATM   19  C   UNL     1     -39.620 -49.340  11.649  1.00  0.00     0.145 A 
HETATM   20  N   UNL     1     -38.773 -50.079  10.969  1.00  0.00    -0.345 N 
HETATM   21  C   UNL     1     -37.621 -50.080  11.710  1.00  0.00     0.107 A 
ATOM     22  HN  UNL     1     -38.938 -50.550  10.080  1.00  0.00     0.167 HD
HETATM   23  C   UNL     1     -37.772 -49.331  12.853  1.00  0.00     0.109 A 
HETATM   24  N   UNL     1     -39.057 -48.859  12.802  1.00  0.00    -0.341 N 
HETATM   25  C   UNL     1     -39.668 -48.006  13.792  1.00  0.00     0.158 C 
ENDBRANCH  18  19
ENDBRANCH  17  18
ENDBRANCH  14  17
ENDBRANCH   1  14
TORSDOF 6
ENDMDL
MODEL 4
REMARK VINA RESULT:      -6.0      1.465      2.021
REMARK  6 active torsions:
REMARK  status: ('A' for Active; 'I' for Inactive)
REMARK    1  A    between atoms: N_8  and  C_9 
REMARK    2  A    between atoms: C_9  and  C_10 
REMARK    3  A    between atoms: C_10  and  O_11 
REMARK    4  A    between atoms: C_10  and  C_12 
REMARK    5  A    between atoms: C_12  and  S_13 
REMARK    6  A    between atoms: S_13  and  C_14 
ROOT
HETATM    1  C   UNL     1     -41.765 -50.216  12.167  1.00  0.00     0.162 C 
ENDROOT
BRANCH   1   2
HETATM    2  N   UNL     1     -42.126 -51.599  12.418  1.00  0.00    -0.339 N 
HETATM    3  C   UNL     1     -41.347 -52.687  12.144  1.00  0.00     0.184 A 
HETATM    4  N   UNL     1     -41.926 -53.805  12.518  1.00  0.00    -0.350 N 
HETATM    5  C   UNL     1     -43.141 -53.426  13.034  1.00  0.00     0.060 A 
ATOM      6  HN  UNL     1     -41.553 -54.751  12.443  1.00  0.00     0.166 HD
HETATM    7  C   UNL     1     -44.163 -54.211  13.586  1.00  0.00     0.039 A 
HETATM    8  C   UNL     1     -43.304 -52.047  12.965  1.00  0.00     0.062 A 
HETATM    9  C   UNL     1     -45.336 -53.594  14.063  1.00  0.00    -0.054 A 
HETATM   10  C   UNL     1     -46.413 -54.458  14.665  1.00  0.00     0.049 C 
HETATM   11  C   UNL     1     -45.482 -52.193  13.976  1.00  0.00    -0.054 A 
HETATM   12  C   UNL     1     -44.462 -51.401  13.415  1.00  0.00     0.039 A 
HETATM   13  C   UNL     1     -46.724 -51.509  14.487  1.00  0.00     0.049 C 
ENDBRANCH   1   2
BRANCH   1  14
HETATM   14  C   UNL     1     -40.361 -50.029  11.561  1.00  0.00     0.146 C 
BRANCH  14  15
HETATM   15  O   UNL     1     -40.446 -49.877  10.136  1.00  0.00    -0.393 OA
HETATM   16  H   UNL     1     -40.276 -48.943   9.912  1.00  0.00     0.210 HD
ENDBRANCH  14  15
BRANCH  14  17
HETATM   17  C   UNL     1     -39.517 -48.895  12.167  1.00  0.00     0.115 C 
BRANCH  17  18
HETATM   18  S   UNL     1     -39.983 -47.277  11.466  1.00  0.00    -0.091 SA
BRANCH  18  19
HETATM   19  C   UNL     1     -41.108 -46.705  12.649  1.00  0.00     0.145 A 
HETATM   20  N   UNL     1     -40.805 -46.298  13.860  1.00  0.00    -0.345 N 
HETATM   21  C   UNL     1     -41.999 -45.943  14.430  1.00  0.00     0.107 A 
ATOM     22  HN  UNL     1     -39.879 -46.255  14.284  1.00  0.00     0.167 HD
HETATM   23  C   UNL     1     -43.039 -46.136  13.552  1.00  0.00     0.109 A 
HETATM   24  N   UNL     1     -42.455 -46.623  12.412  1.00  0.00    -0.341 N 
HETATM   25  C   UNL     1     -43.160 -46.966  11.200  1.00  0.00     0.158 C 
ENDBRANCH  18  19
ENDBRANCH  17  18
ENDBRANCH  14  17
ENDBRANCH   1  14
TORSDOF 6
ENDMDL
MODEL 5
REMARK VINA RESULT:      -6.0      2.158      2.908
REMARK  6 active torsions:
REMARK  status: ('A' for Active; 'I' for Inactive)
REMARK    1  A    between atoms: N_8  and  C_9 
REMARK    2  A    between atoms: C_9  and  C_10 
REMARK    3  A    between atoms: C_10  and  O_11 
REMARK    4  A    between atoms: C_10  and  C_12 
REMARK    5  A    between atoms: C_12  and  S_13 
REMARK    6  A    between atoms: S_13  and  C_14 
ROOT
HETATM    1  C   UNL     1     -41.971 -53.197  13.480  1.00  0.00     0.162 C 
ENDROOT
BRANCH   1   2
HETATM    2  N   UNL     1     -43.387 -52.924  13.324  1.00  0.00    -0.339 N 
HETATM    3  C   UNL     1     -44.116 -53.126  12.186  1.00  0.00     0.184 A 
HETATM    4  N   UNL     1     -45.382 -52.825  12.361  1.00  0.00    -0.350 N 
HETATM    5  C   UNL     1     -45.472 -52.386  13.659  1.00  0.00     0.060 A 
ATOM      6  HN  UNL     1     -46.136 -52.900  11.679  1.00  0.00     0.166 HD
HETATM    7  C   UNL     1     -46.591 -51.944  14.379  1.00  0.00     0.039 A 
HETATM    8  C   UNL     1     -44.231 -52.418  14.283  1.00  0.00     0.062 A 
HETATM    9  C   UNL     1     -46.443 -51.541  15.721  1.00  0.00    -0.054 A 
HETATM   10  C   UNL     1     -47.662 -51.086  16.477  1.00  0.00     0.049 C 
HETATM   11  C   UNL     1     -45.171 -51.575  16.331  1.00  0.00    -0.054 A 
HETATM   12  C   UNL     1     -44.043 -52.011  15.610  1.00  0.00     0.039 A 
HETATM   13  C   UNL     1     -44.988 -51.157  17.768  1.00  0.00     0.049 C 
ENDBRANCH   1   2
BRANCH   1  14
HETATM   14  C   UNL     1     -41.063 -52.379  12.542  1.00  0.00     0.146 C 
BRANCH  14  15
HETATM   15  O   UNL     1     -40.715 -53.150  11.383  1.00  0.00    -0.393 OA
HETATM   16  H   UNL     1     -39.975 -53.744  11.614  1.00  0.00     0.210 HD
ENDBRANCH  14  15
BRANCH  14  17
HETATM   17  C   UNL     1     -41.604 -51.001  12.121  1.00  0.00     0.115 C 
BRANCH  17  18
HETATM   18  S   UNL     1     -40.254 -49.895  11.591  1.00  0.00    -0.091 SA
BRANCH  18  19
HETATM   19  C   UNL     1     -41.143 -48.560  10.944  1.00  0.00     0.145 A 
HETATM   20  N   UNL     1     -42.175 -48.646  10.137  1.00  0.00    -0.345 N 
HETATM   21  C   UNL     1     -42.548 -47.352   9.890  1.00  0.00     0.107 A 
ATOM     22  HN  UNL     1     -42.606 -49.496   9.773  1.00  0.00     0.167 HD
HETATM   23  C   UNL     1     -41.733 -46.470  10.558  1.00  0.00     0.109 A 
HETATM   24  N   UNL     1     -40.836 -47.256  11.233  1.00  0.00    -0.341 N 
HETATM   25  C   UNL     1     -39.783 -46.766  12.089  1.00  0.00     0.158 C 
ENDBRANCH  18  19
ENDBRANCH  17  18
ENDBRANCH  14  17
ENDBRANCH   1  14
TORSDOF 6
ENDMDL
MODEL 6
REMARK VINA RESULT:      -6.0      2.186      3.293
REMARK  6 active torsions:
REMARK  status: ('A' for Active; 'I' for Inactive)
REMARK    1  A    between atoms: N_8  and  C_9 
REMARK    2  A    between atoms: C_9  and  C_10 
REMARK    3  A    between atoms: C_10  and  O_11 
REMARK    4  A    between atoms: C_10  and  C_12 
REMARK    5  A    between atoms: C_12  and  S_13 
REMARK    6  A    between atoms: S_13  and  C_14 
ROOT
HETATM    1  C   UNL     1     -41.803 -50.082  12.107  1.00  0.00     0.162 C 
ENDROOT
BRANCH   1   2
HETATM    2  N   UNL     1     -42.133 -51.470  12.371  1.00  0.00    -0.339 N 
HETATM    3  C   UNL     1     -41.333 -52.544  12.100  1.00  0.00     0.184 A 
HETATM    4  N   UNL     1     -41.886 -53.670  12.487  1.00  0.00    -0.350 N 
HETATM    5  C   UNL     1     -43.106 -53.313  13.008  1.00  0.00     0.060 A 
ATOM      6  HN  UNL     1     -41.494 -54.608  12.417  1.00  0.00     0.166 HD
HETATM    7  C   UNL     1     -44.107 -54.115  13.572  1.00  0.00     0.039 A 
HETATM    8  C   UNL     1     -43.298 -51.938  12.930  1.00  0.00     0.062 A 
HETATM    9  C   UNL     1     -45.290 -53.518  14.052  1.00  0.00    -0.054 A 
HETATM   10  C   UNL     1     -46.345 -54.399  14.668  1.00  0.00     0.049 C 
HETATM   11  C   UNL     1     -45.466 -52.121  13.955  1.00  0.00    -0.054 A 
HETATM   12  C   UNL     1     -44.466 -51.313  13.382  1.00  0.00     0.039 A 
HETATM   13  C   UNL     1     -46.719 -51.459  14.469  1.00  0.00     0.049 C 
ENDBRANCH   1   2
BRANCH   1  14
HETATM   14  C   UNL     1     -40.392 -49.867  11.526  1.00  0.00     0.146 C 
BRANCH  14  15
HETATM   15  O   UNL     1     -40.429 -49.901  10.092  1.00  0.00    -0.393 OA
HETATM   16  H   UNL     1     -40.316 -48.991   9.756  1.00  0.00     0.210 HD
ENDBRANCH  14  15
BRANCH  14  17
HETATM   17  C   UNL     1     -39.655 -48.606  12.009  1.00  0.00     0.115 C 
BRANCH  17  18
HETATM   18  S   UNL     1     -40.028 -48.253  13.759  1.00  0.00    -0.091 SA
BRANCH  18  19
HETATM   19  C   UNL     1     -38.806 -49.181  14.561  1.00  0.00     0.145 A 
HETATM   20  N   UNL     1     -37.526 -48.892  14.597  1.00  0.00    -0.345 N 
HETATM   21  C   UNL     1     -36.952 -49.893  15.334  1.00  0.00     0.107 A 
ATOM     22  HN  UNL     1     -37.060 -48.093  14.168  1.00  0.00     0.167 HD
HETATM   23  C   UNL     1     -37.897 -50.800  15.751  1.00  0.00     0.109 A 
HETATM   24  N   UNL     1     -39.084 -50.331  15.252  1.00  0.00    -0.341 N 
HETATM   25  C   UNL     1     -40.371 -50.955  15.446  1.00  0.00     0.158 C 
ENDBRANCH  18  19
ENDBRANCH  17  18
ENDBRANCH  14  17
ENDBRANCH   1  14
TORSDOF 6
ENDMDL
MODEL 7
REMARK VINA RESULT:      -6.0      4.485      6.608
REMARK  6 active torsions:
REMARK  status: ('A' for Active; 'I' for Inactive)
REMARK    1  A    between atoms: N_8  and  C_9 
REMARK    2  A    between atoms: C_9  and  C_10 
REMARK    3  A    between atoms: C_10  and  O_11 
REMARK    4  A    between atoms: C_10  and  C_12 
REMARK    5  A    between atoms: C_12  and  S_13 
REMARK    6  A    between atoms: S_13  and  C_14 
ROOT
HETATM    1  C   UNL     1     -42.647 -51.906  12.999  1.00  0.00     0.162 C 
ENDROOT
BRANCH   1   2
HETATM    2  N   UNL     1     -44.039 -52.232  13.246  1.00  0.00    -0.339 N 
HETATM    3  C   UNL     1     -44.812 -53.059  12.481  1.00  0.00     0.184 A 
HETATM    4  N   UNL     1     -46.020 -53.192  12.977  1.00  0.00    -0.350 N 
HETATM    5  C   UNL     1     -46.039 -52.398  14.097  1.00  0.00     0.060 A 
ATOM      6  HN  UNL     1     -46.781 -53.762  12.610  1.00  0.00     0.166 HD
HETATM    7  C   UNL     1     -47.073 -52.169  15.015  1.00  0.00     0.039 A 
HETATM    8  C   UNL     1     -44.815 -51.765  14.281  1.00  0.00     0.062 A 
HETATM    9  C   UNL     1     -46.859 -51.305  16.107  1.00  0.00    -0.054 A 
HETATM   10  C   UNL     1     -47.980 -51.088  17.087  1.00  0.00     0.049 C 
HETATM   11  C   UNL     1     -45.609 -50.669  16.269  1.00  0.00    -0.054 A 
HETATM   12  C   UNL     1     -44.570 -50.890  15.345  1.00  0.00     0.039 A 
HETATM   13  C   UNL     1     -45.352 -49.747  17.434  1.00  0.00     0.049 C 
ENDBRANCH   1   2
BRANCH   1  14
HETATM   14  C   UNL     1     -41.862 -53.009  12.263  1.00  0.00     0.146 C 
BRANCH  14  15
HETATM   15  O   UNL     1     -41.250 -52.481  11.076  1.00  0.00    -0.393 OA
HETATM   16  H   UNL     1     -40.896 -51.594  11.276  1.00  0.00     0.210 HD
ENDBRANCH  14  15
BRANCH  14  17
HETATM   17  C   UNL     1     -40.821 -53.765  13.106  1.00  0.00     0.115 C 
BRANCH  17  18
HETATM   18  S   UNL     1     -40.784 -53.145  14.821  1.00  0.00    -0.091 SA
BRANCH  18  19
HETATM   19  C   UNL     1     -40.854 -54.623  15.718  1.00  0.00     0.145 A 
HETATM   20  N   UNL     1     -39.827 -55.245  16.249  1.00  0.00    -0.345 N 
HETATM   21  C   UNL     1     -40.352 -56.356  16.854  1.00  0.00     0.107 A 
ATOM     22  HN  UNL     1     -38.848 -54.961  16.219  1.00  0.00     0.167 HD
HETATM   23  C   UNL     1     -41.716 -56.406  16.688  1.00  0.00     0.109 A 
HETATM   24  N   UNL     1     -42.027 -55.288  15.960  1.00  0.00    -0.341 N 
HETATM   25  C   UNL     1     -43.357 -54.908  15.550  1.00  0.00     0.158 C 
ENDBRANCH  18  19
ENDBRANCH  17  18
ENDBRANCH  14  17
ENDBRANCH   1  14
TORSDOF 6
ENDMDL
MODEL 8
REMARK VINA RESULT:      -5.8      2.794      4.097
REMARK  6 active torsions:
REMARK  status: ('A' for Active; 'I' for Inactive)
REMARK    1  A    between atoms: N_8  and  C_9 
REMARK    2  A    between atoms: C_9  and  C_10 
REMARK    3  A    between atoms: C_10  and  O_11 
REMARK    4  A    between atoms: C_10  and  C_12 
REMARK    5  A    between atoms: C_12  and  S_13 
REMARK    6  A    between atoms: S_13  and  C_14 
ROOT
HETATM    1  C   UNL     1     -42.840 -54.129  14.148  1.00  0.00     0.162 C 
ENDROOT
BRANCH   1   2
HETATM    2  N   UNL     1     -44.282 -54.046  14.294  1.00  0.00    -0.339 N 
HETATM    3  C   UNL     1     -45.188 -54.918  13.760  1.00  0.00     0.184 A 
HETATM    4  N   UNL     1     -46.418 -54.606  14.097  1.00  0.00    -0.350 N 
HETATM    5  C   UNL     1     -46.306 -53.470  14.861  1.00  0.00     0.060 A 
ATOM      6  HN  UNL     1     -47.273 -55.101  13.846  1.00  0.00     0.166 HD
HETATM    7  C   UNL     1     -47.303 -52.711  15.488  1.00  0.00     0.039 A 
HETATM    8  C   UNL     1     -44.976 -53.082  14.985  1.00  0.00     0.062 A 
HETATM    9  C   UNL     1     -46.946 -51.571  16.235  1.00  0.00    -0.054 A 
HETATM   10  C   UNL     1     -48.034 -50.781  16.912  1.00  0.00     0.049 C 
HETATM   11  C   UNL     1     -45.591 -51.192  16.341  1.00  0.00    -0.054 A 
HETATM   12  C   UNL     1     -44.586 -51.947  15.705  1.00  0.00     0.039 A 
HETATM   13  C   UNL     1     -45.183 -49.982  17.141  1.00  0.00     0.049 C 
ENDBRANCH   1   2
BRANCH   1  14
HETATM   14  C   UNL     1     -42.336 -53.886  12.712  1.00  0.00     0.146 C 
BRANCH  14  15
HETATM   15  O   UNL     1     -43.104 -52.852  12.079  1.00  0.00    -0.393 OA
HETATM   16  H   UNL     1     -43.407 -53.177  11.210  1.00  0.00     0.210 HD
ENDBRANCH  14  15
BRANCH  14  17
HETATM   17  C   UNL     1     -40.832 -53.592  12.573  1.00  0.00     0.115 C 
BRANCH  17  18
HETATM   18  S   UNL     1     -40.312 -52.259  13.705  1.00  0.00    -0.091 SA
BRANCH  18  19
HETATM   19  C   UNL     1     -40.228 -50.910  12.625  1.00  0.00     0.145 A 
HETATM   20  N   UNL     1     -40.707 -50.876  11.403  1.00  0.00    -0.345 N 
HETATM   21  C   UNL     1     -40.413 -49.623  10.935  1.00  0.00     0.107 A 
ATOM     22  HN  UNL     1     -41.194 -51.623  10.908  1.00  0.00     0.167 HD
HETATM   23  C   UNL     1     -39.749 -48.887  11.887  1.00  0.00     0.109 A 
HETATM   24  N   UNL     1     -39.638 -49.722  12.968  1.00  0.00    -0.341 N 
HETATM   25  C   UNL     1     -39.017 -49.376  14.224  1.00  0.00     0.158 C 
ENDBRANCH  18  19
ENDBRANCH  17  18
ENDBRANCH  14  17
ENDBRANCH   1  14
TORSDOF 6
ENDMDL
MODEL 9
REMARK VINA RESULT:      -5.8      1.961      2.713
REMARK  6 active torsions:
REMARK  status: ('A' for Active; 'I' for Inactive)
REMARK    1  A    between atoms: N_8  and  C_9 
REMARK    2  A    between atoms: C_9  and  C_10 
REMARK    3  A    between atoms: C_10  and  O_11 
REMARK    4  A    between atoms: C_10  and  C_12 
REMARK    5  A    between atoms: C_12  and  S_13 
REMARK    6  A    between atoms: S_13  and  C_14 
ROOT
HETATM    1  C   UNL     1     -40.775 -50.400  13.713  1.00  0.00     0.162 C 
ENDROOT
BRANCH   1   2
HETATM    2  N   UNL     1     -42.153 -50.741  13.416  1.00  0.00    -0.339 N 
HETATM    3  C   UNL     1     -43.054 -49.935  12.778  1.00  0.00     0.184 A 
HETATM    4  N   UNL     1     -44.211 -50.532  12.617  1.00  0.00    -0.350 N 
HETATM    5  C   UNL     1     -44.063 -51.769  13.197  1.00  0.00     0.060 A 
ATOM      6  HN  UNL     1     -45.043 -50.159  12.160  1.00  0.00     0.166 HD
HETATM    7  C   UNL     1     -44.980 -52.822  13.306  1.00  0.00     0.039 A 
HETATM    8  C   UNL     1     -42.786 -51.921  13.725  1.00  0.00     0.062 A 
HETATM    9  C   UNL     1     -44.598 -54.017  13.948  1.00  0.00    -0.054 A 
HETATM   10  C   UNL     1     -45.597 -55.140  14.039  1.00  0.00     0.049 C 
HETATM   11  C   UNL     1     -43.298 -54.146  14.484  1.00  0.00    -0.054 A 
HETATM   12  C   UNL     1     -42.375 -53.087  14.382  1.00  0.00     0.039 A 
HETATM   13  C   UNL     1     -42.862 -55.417  15.166  1.00  0.00     0.049 C 
ENDBRANCH   1   2
BRANCH   1  14
HETATM   14  C   UNL     1     -39.779 -50.759  12.593  1.00  0.00     0.146 C 
BRANCH  14  15
HETATM   15  O   UNL     1     -39.935 -52.132  12.205  1.00  0.00    -0.393 OA
HETATM   16  H   UNL     1     -39.086 -52.451  11.842  1.00  0.00     0.210 HD
ENDBRANCH  14  15
BRANCH  14  17
HETATM   17  C   UNL     1     -39.812 -49.850  11.352  1.00  0.00     0.115 C 
BRANCH  17  18
HETATM   18  S   UNL     1     -39.978 -48.096  11.823  1.00  0.00    -0.091 SA
BRANCH  18  19
HETATM   19  C   UNL     1     -41.323 -47.608  10.851  1.00  0.00     0.145 A 
HETATM   20  N   UNL     1     -41.796 -48.262   9.816  1.00  0.00    -0.345 N 
HETATM   21  C   UNL     1     -42.849 -47.511   9.366  1.00  0.00     0.107 A 
ATOM     22  HN  UNL     1     -41.453 -49.141   9.430  1.00  0.00     0.167 HD
HETATM   23  C   UNL     1     -43.017 -46.387  10.140  1.00  0.00     0.109 A 
HETATM   24  N   UNL     1     -42.034 -46.462  11.092  1.00  0.00    -0.341 N 
HETATM   25  C   UNL     1     -41.823 -45.497  12.144  1.00  0.00     0.158 C 
ENDBRANCH  18  19
ENDBRANCH  17  18
ENDBRANCH  14  17
ENDBRANCH   1  14
TORSDOF 6
ENDMDL
