MODEL 1
REMARK VINA RESULT:      -6.0      0.000      0.000
REMARK  4 active torsions:
REMARK  status: ('A' for Active; 'I' for Inactive)
REMARK    1  A    between atoms: C_2  and  N_3 
REMARK    2  A    between atoms: C_2  and  C_15 
REMARK       I    between atoms: N_3  and  C_4 
REMARK    3  A    between atoms: C_4  and  C_6 
REMARK    4  A    between atoms: C_6  and  N_7 
ROOT
HETATM    1  N   UNL     1     -41.172 -49.763  11.249  1.00  0.00    -0.353 N 
HETATM    2  C   UNL     1     -42.091 -48.731  11.203  1.00  0.00     0.237 C 
HETATM    3  O   UNL     1     -42.831 -48.467  12.149  1.00  0.00    -0.272 OA
HETATM    4  H   UNL     1     -40.469 -49.865  10.525  1.00  0.00     0.163 HD
ENDROOT
BRANCH   2   5
HETATM    5  C   UNL     1     -42.082 -47.913   9.905  1.00  0.00     0.255 C 
BRANCH   5   6
HETATM    6  N   UNL     1     -43.377 -47.274   9.703  1.00  0.00    -0.246 N 
HETATM    7  N   UNL     1     -44.481 -48.130   9.559  1.00  0.00    -0.261 N 
HETATM    8  C   UNL     1     -45.710 -47.684   9.162  1.00  0.00     0.260 A 
HETATM    9  H   UNL     1     -44.371 -49.123   9.715  1.00  0.00     0.190 HD
HETATM   10  O   UNL     1     -46.676 -48.429   9.037  1.00  0.00    -0.267 OA
HETATM   11  C   UNL     1     -45.833 -46.241   8.902  1.00  0.00     0.081 A 
HETATM   12  C   UNL     1     -44.792 -45.419   9.058  1.00  0.00     0.081 A 
HETATM   13  C   UNL     1     -43.466 -45.918   9.473  1.00  0.00     0.262 A 
HETATM   14  O   UNL     1     -42.526 -45.136   9.578  1.00  0.00    -0.267 OA
ENDBRANCH   5   6
ENDBRANCH   2   5
BRANCH   1  15
HETATM   15  C   UNL     1     -41.039 -50.619  12.433  1.00  0.00     0.109 C 
HETATM   16  C   UNL     1     -39.653 -50.424  13.051  1.00  0.00     0.035 C 
BRANCH  15  17
HETATM   17  C   UNL     1     -41.337 -52.093  12.078  1.00  0.00     0.143 C 
HETATM   18  C   UNL     1     -42.716 -52.576  12.520  1.00  0.00     0.036 C 
HETATM   19  C   UNL     1     -42.478 -53.928  13.153  1.00  0.00     0.029 C 
HETATM   20  C   UNL     1     -41.025 -54.236  12.874  1.00  0.00     0.168 C 
HETATM   21  O   UNL     1     -40.376 -52.974  12.686  1.00  0.00    -0.384 OA
ENDBRANCH  15  17
ENDBRANCH   1  15
TORSDOF 4
ENDMDL
MODEL 2
REMARK VINA RESULT:      -5.9      2.537      6.841
REMARK  4 active torsions:
REMARK  status: ('A' for Active; 'I' for Inactive)
REMARK    1  A    between atoms: C_2  and  N_3 
REMARK    2  A    between atoms: C_2  and  C_15 
REMARK       I    between atoms: N_3  and  C_4 
REMARK    3  A    between atoms: C_4  and  C_6 
REMARK    4  A    between atoms: C_6  and  N_7 
ROOT
HETATM    1  N   UNL     1     -41.193 -49.446  11.000  1.00  0.00    -0.353 N 
HETATM    2  C   UNL     1     -41.476 -50.353  12.004  1.00  0.00     0.237 C 
HETATM    3  O   UNL     1     -42.140 -50.050  12.996  1.00  0.00    -0.272 OA
HETATM    4  H   UNL     1     -40.783 -49.754  10.125  1.00  0.00     0.163 HD
ENDROOT
BRANCH   2   5
HETATM    5  C   UNL     1     -40.945 -51.772  11.767  1.00  0.00     0.255 C 
BRANCH   5   6
HETATM    6  N   UNL     1     -41.844 -52.754  12.360  1.00  0.00    -0.246 N 
HETATM    7  N   UNL     1     -43.192 -52.683  11.971  1.00  0.00    -0.261 N 
HETATM    8  C   UNL     1     -44.175 -53.398  12.594  1.00  0.00     0.260 A 
HETATM    9  H   UNL     1     -43.468 -52.055  11.227  1.00  0.00     0.190 HD
HETATM   10  O   UNL     1     -45.352 -53.339  12.256  1.00  0.00    -0.267 OA
HETATM   11  C   UNL     1     -43.752 -54.272  13.699  1.00  0.00     0.081 A 
HETATM   12  C   UNL     1     -42.469 -54.360  14.059  1.00  0.00     0.081 A 
HETATM   13  C   UNL     1     -41.419 -53.570  13.385  1.00  0.00     0.262 A 
HETATM   14  O   UNL     1     -40.255 -53.657  13.764  1.00  0.00    -0.267 OA
ENDBRANCH   5   6
ENDBRANCH   2   5
BRANCH   1  15
HETATM   15  C   UNL     1     -41.656 -48.056  11.068  1.00  0.00     0.109 C 
HETATM   16  C   UNL     1     -42.595 -47.774   9.892  1.00  0.00     0.035 C 
BRANCH  15  17
HETATM   17  C   UNL     1     -40.459 -47.083  11.128  1.00  0.00     0.143 C 
HETATM   18  C   UNL     1     -40.056 -46.674  12.543  1.00  0.00     0.036 C 
HETATM   19  C   UNL     1     -39.853 -45.177  12.480  1.00  0.00     0.029 C 
HETATM   20  C   UNL     1     -39.957 -44.834  11.011  1.00  0.00     0.168 C 
HETATM   21  O   UNL     1     -40.744 -45.868  10.412  1.00  0.00    -0.384 OA
ENDBRANCH  15  17
ENDBRANCH   1  15
TORSDOF 4
ENDMDL
MODEL 3
REMARK VINA RESULT:      -5.8      1.970      6.760
REMARK  4 active torsions:
REMARK  status: ('A' for Active; 'I' for Inactive)
REMARK    1  A    between atoms: C_2  and  N_3 
REMARK    2  A    between atoms: C_2  and  C_15 
REMARK       I    between atoms: N_3  and  C_4 
REMARK    3  A    between atoms: C_4  and  C_6 
REMARK    4  A    between atoms: C_6  and  N_7 
ROOT
HETATM    1  N   UNL     1     -41.644 -49.485  11.058  1.00  0.00    -0.353 N 
HETATM    2  C   UNL     1     -40.986 -50.271  11.985  1.00  0.00     0.237 C 
HETATM    3  O   UNL     1     -40.744 -49.880  13.126  1.00  0.00    -0.272 OA
HETATM    4  H   UNL     1     -41.970 -49.878  10.182  1.00  0.00     0.163 HD
ENDROOT
BRANCH   2   5
HETATM    5  C   UNL     1     -40.626 -51.682  11.500  1.00  0.00     0.255 C 
BRANCH   5   6
HETATM    6  N   UNL     1     -41.484 -52.671  12.140  1.00  0.00    -0.246 N 
HETATM    7  N   UNL     1     -42.852 -52.607  11.829  1.00  0.00    -0.261 N 
HETATM    8  C   UNL     1     -43.794 -53.330  12.505  1.00  0.00     0.260 A 
HETATM    9  H   UNL     1     -43.174 -51.978  11.105  1.00  0.00     0.190 HD
HETATM   10  O   UNL     1     -44.989 -53.276  12.235  1.00  0.00    -0.267 OA
HETATM   11  C   UNL     1     -43.303 -54.204  13.582  1.00  0.00     0.081 A 
HETATM   12  C   UNL     1     -42.001 -54.286  13.867  1.00  0.00     0.081 A 
HETATM   13  C   UNL     1     -40.996 -53.487  13.137  1.00  0.00     0.262 A 
HETATM   14  O   UNL     1     -39.812 -53.568  13.448  1.00  0.00    -0.267 OA
ENDBRANCH   5   6
ENDBRANCH   2   5
BRANCH   1  15
HETATM   15  C   UNL     1     -42.079 -48.122  11.380  1.00  0.00     0.109 C 
HETATM   16  C   UNL     1     -43.397 -48.177  12.157  1.00  0.00     0.035 C 
BRANCH  15  17
HETATM   17  C   UNL     1     -42.171 -47.261  10.101  1.00  0.00     0.143 C 
HETATM   18  C   UNL     1     -42.833 -45.900  10.309  1.00  0.00     0.036 C 
HETATM   19  C   UNL     1     -43.797 -45.748   9.154  1.00  0.00     0.029 C 
HETATM   20  C   UNL     1     -43.504 -46.922   8.249  1.00  0.00     0.168 C 
HETATM   21  O   UNL     1     -42.925 -47.935   9.078  1.00  0.00    -0.384 OA
ENDBRANCH  15  17
ENDBRANCH   1  15
TORSDOF 4
ENDMDL
MODEL 4
REMARK VINA RESULT:      -5.8      5.315      8.179
REMARK  4 active torsions:
REMARK  status: ('A' for Active; 'I' for Inactive)
REMARK    1  A    between atoms: C_2  and  N_3 
REMARK    2  A    between atoms: C_2  and  C_15 
REMARK       I    between atoms: N_3  and  C_4 
REMARK    3  A    between atoms: C_4  and  C_6 
REMARK    4  A    between atoms: C_6  and  N_7 
ROOT
HETATM    1  N   UNL     1     -44.754 -52.490  13.241  1.00  0.00    -0.353 N 
HETATM    2  C   UNL     1     -43.908 -53.478  12.773  1.00  0.00     0.237 C 
HETATM    3  O   UNL     1     -44.328 -54.525  12.282  1.00  0.00    -0.272 OA
HETATM    4  H   UNL     1     -44.394 -51.577  13.496  1.00  0.00     0.163 HD
ENDROOT
BRANCH   2   5
HETATM    5  C   UNL     1     -42.412 -53.149  12.868  1.00  0.00     0.255 C 
BRANCH   5   6
HETATM    6  N   UNL     1     -41.770 -54.002  13.861  1.00  0.00    -0.246 N 
HETATM    7  N   UNL     1     -42.620 -54.663  14.762  1.00  0.00    -0.261 N 
HETATM    8  C   UNL     1     -42.154 -55.324  15.862  1.00  0.00     0.260 A 
HETATM    9  H   UNL     1     -43.623 -54.627  14.626  1.00  0.00     0.190 HD
HETATM   10  O   UNL     1     -42.894 -55.903  16.650  1.00  0.00    -0.267 OA
HETATM   11  C   UNL     1     -40.696 -55.326  16.059  1.00  0.00     0.081 A 
HETATM   12  C   UNL     1     -39.881 -54.718  15.194  1.00  0.00     0.081 A 
HETATM   13  C   UNL     1     -40.401 -53.995  14.016  1.00  0.00     0.262 A 
HETATM   14  O   UNL     1     -39.622 -53.424  13.259  1.00  0.00    -0.267 OA
ENDBRANCH   5   6
ENDBRANCH   2   5
BRANCH   1  15
HETATM   15  C   UNL     1     -46.212 -52.643  13.193  1.00  0.00     0.109 C 
HETATM   16  C   UNL     1     -46.813 -51.535  12.325  1.00  0.00     0.035 C 
BRANCH  15  17
HETATM   17  C   UNL     1     -46.805 -52.678  14.619  1.00  0.00     0.143 C 
HETATM   18  C   UNL     1     -47.005 -51.301  15.248  1.00  0.00     0.036 C 
HETATM   19  C   UNL     1     -46.472 -51.428  16.657  1.00  0.00     0.029 C 
HETATM   20  C   UNL     1     -46.175 -52.899  16.827  1.00  0.00     0.168 C 
HETATM   21  O   UNL     1     -45.957 -53.421  15.513  1.00  0.00    -0.384 OA
ENDBRANCH  15  17
ENDBRANCH   1  15
TORSDOF 4
ENDMDL
MODEL 5
REMARK VINA RESULT:      -5.7      2.608      3.668
REMARK  4 active torsions:
REMARK  status: ('A' for Active; 'I' for Inactive)
REMARK    1  A    between atoms: C_2  and  N_3 
REMARK    2  A    between atoms: C_2  and  C_15 
REMARK       I    between atoms: N_3  and  C_4 
REMARK    3  A    between atoms: C_4  and  C_6 
REMARK    4  A    between atoms: C_6  and  N_7 
ROOT
HETATM    1  N   UNL     1     -42.400 -51.140  12.042  1.00  0.00    -0.353 N 
HETATM    2  C   UNL     1     -41.334 -50.313  12.345  1.00  0.00     0.237 C 
HETATM    3  O   UNL     1     -40.935 -50.150  13.497  1.00  0.00    -0.272 OA
HETATM    4  H   UNL     1     -42.612 -51.381  11.080  1.00  0.00     0.163 HD
ENDROOT
BRANCH   2   5
HETATM    5  C   UNL     1     -40.660 -49.654  11.134  1.00  0.00     0.255 C 
BRANCH   5   6
HETATM    6  N   UNL     1     -41.290 -48.373  10.841  1.00  0.00    -0.246 N 
HETATM    7  N   UNL     1     -42.421 -48.408  10.008  1.00  0.00    -0.261 N 
HETATM    8  C   UNL     1     -42.985 -47.278   9.487  1.00  0.00     0.260 A 
HETATM    9  H   UNL     1     -42.823 -49.298   9.744  1.00  0.00     0.190 HD
HETATM   10  O   UNL     1     -43.973 -47.306   8.760  1.00  0.00    -0.267 OA
HETATM   11  C   UNL     1     -42.355 -46.000   9.853  1.00  0.00     0.081 A 
HETATM   12  C   UNL     1     -41.294 -45.959  10.662  1.00  0.00     0.081 A 
HETATM   13  C   UNL     1     -40.686 -47.190  11.206  1.00  0.00     0.262 A 
HETATM   14  O   UNL     1     -39.693 -47.113  11.923  1.00  0.00    -0.267 OA
ENDBRANCH   5   6
ENDBRANCH   2   5
BRANCH   1  15
HETATM   15  C   UNL     1     -43.130 -51.864  13.088  1.00  0.00     0.109 C 
HETATM   16  C   UNL     1     -43.388 -53.301  12.629  1.00  0.00     0.035 C 
BRANCH  15  17
HETATM   17  C   UNL     1     -44.425 -51.113  13.469  1.00  0.00     0.143 C 
HETATM   18  C   UNL     1     -44.631 -50.945  14.973  1.00  0.00     0.036 C 
HETATM   19  C   UNL     1     -46.079 -51.306  15.217  1.00  0.00     0.029 C 
HETATM   20  C   UNL     1     -46.674 -51.473  13.838  1.00  0.00     0.168 C 
HETATM   21  O   UNL     1     -45.586 -51.798  12.967  1.00  0.00    -0.384 OA
ENDBRANCH  15  17
ENDBRANCH   1  15
TORSDOF 4
ENDMDL
MODEL 6
REMARK VINA RESULT:      -5.6      3.197      6.346
REMARK  4 active torsions:
REMARK  status: ('A' for Active; 'I' for Inactive)
REMARK    1  A    between atoms: C_2  and  N_3 
REMARK    2  A    between atoms: C_2  and  C_15 
REMARK       I    between atoms: N_3  and  C_4 
REMARK    3  A    between atoms: C_4  and  C_6 
REMARK    4  A    between atoms: C_6  and  N_7 
ROOT
HETATM    1  N   UNL     1     -41.113 -50.330  11.551  1.00  0.00    -0.353 N 
HETATM    2  C   UNL     1     -41.676 -51.121  12.535  1.00  0.00     0.237 C 
HETATM    3  O   UNL     1     -42.245 -50.644  13.517  1.00  0.00    -0.272 OA
HETATM    4  H   UNL     1     -40.790 -50.738  10.680  1.00  0.00     0.163 HD
ENDROOT
BRANCH   2   5
HETATM    5  C   UNL     1     -41.581 -52.632  12.287  1.00  0.00     0.255 C 
BRANCH   5   6
HETATM    6  N   UNL     1     -42.819 -53.288  12.688  1.00  0.00    -0.246 N 
HETATM    7  N   UNL     1     -44.002 -52.798  12.112  1.00  0.00    -0.261 N 
HETATM    8  C   UNL     1     -45.242 -53.175  12.545  1.00  0.00     0.260 A 
HETATM    9  H   UNL     1     -43.953 -52.109  11.372  1.00  0.00     0.190 HD
HETATM   10  O   UNL     1     -46.277 -52.748  12.044  1.00  0.00    -0.267 OA
HETATM   11  C   UNL     1     -45.285 -54.145  13.650  1.00  0.00     0.081 A 
HETATM   12  C   UNL     1     -44.164 -54.632  14.187  1.00  0.00     0.081 A 
HETATM   13  C   UNL     1     -42.830 -54.204  13.718  1.00  0.00     0.262 A 
HETATM   14  O   UNL     1     -41.823 -54.652  14.256  1.00  0.00    -0.267 OA
ENDBRANCH   5   6
ENDBRANCH   2   5
BRANCH   1  15
HETATM   15  C   UNL     1     -41.148 -48.866  11.629  1.00  0.00     0.109 C 
HETATM   16  C   UNL     1     -41.677 -48.297  10.311  1.00  0.00     0.035 C 
BRANCH  15  17
HETATM   17  C   UNL     1     -39.761 -48.307  12.012  1.00  0.00     0.143 C 
HETATM   18  C   UNL     1     -38.600 -49.253  11.714  1.00  0.00     0.036 C 
HETATM   19  C   UNL     1     -37.733 -49.219  12.952  1.00  0.00     0.029 C 
HETATM   20  C   UNL     1     -38.325 -48.124  13.809  1.00  0.00     0.168 C 
HETATM   21  O   UNL     1     -39.696 -48.004  13.418  1.00  0.00    -0.384 OA
ENDBRANCH  15  17
ENDBRANCH   1  15
TORSDOF 4
ENDMDL
MODEL 7
REMARK VINA RESULT:      -5.6      5.020      6.966
REMARK  4 active torsions:
REMARK  status: ('A' for Active; 'I' for Inactive)
REMARK    1  A    between atoms: C_2  and  N_3 
REMARK    2  A    between atoms: C_2  and  C_15 
REMARK       I    between atoms: N_3  and  C_4 
REMARK    3  A    between atoms: C_4  and  C_6 
REMARK    4  A    between atoms: C_6  and  N_7 
ROOT
HETATM    1  N   UNL     1     -40.305 -51.838  13.494  1.00  0.00    -0.353 N 
HETATM    2  C   UNL     1     -40.958 -52.830  12.786  1.00  0.00     0.237 C 
HETATM    3  O   UNL     1     -40.413 -53.893  12.490  1.00  0.00    -0.272 OA
HETATM    4  H   UNL     1     -40.816 -51.042  13.861  1.00  0.00     0.163 HD
ENDROOT
BRANCH   2   5
HETATM    5  C   UNL     1     -42.422 -52.526  12.442  1.00  0.00     0.255 C 
BRANCH   5   6
HETATM    6  N   UNL     1     -43.311 -53.385  13.214  1.00  0.00    -0.246 N 
HETATM    7  N   UNL     1     -42.711 -54.174  14.209  1.00  0.00    -0.261 N 
HETATM    8  C   UNL     1     -43.382 -55.166  14.865  1.00  0.00     0.260 A 
HETATM    9  H   UNL     1     -41.733 -54.040  14.435  1.00  0.00     0.190 HD
HETATM   10  O   UNL     1     -42.860 -55.856  15.735  1.00  0.00    -0.267 OA
HETATM   11  C   UNL     1     -44.790 -55.367  14.488  1.00  0.00     0.081 A 
HETATM   12  C   UNL     1     -45.372 -54.606  13.558  1.00  0.00     0.081 A 
HETATM   13  C   UNL     1     -44.629 -53.546  12.848  1.00  0.00     0.262 A 
HETATM   14  O   UNL     1     -45.192 -52.886  11.979  1.00  0.00    -0.267 OA
ENDBRANCH   5   6
ENDBRANCH   2   5
BRANCH   1  15
HETATM   15  C   UNL     1     -38.911 -51.991  13.921  1.00  0.00     0.109 C 
HETATM   16  C   UNL     1     -38.845 -52.011  15.450  1.00  0.00     0.035 C 
BRANCH  15  17
HETATM   17  C   UNL     1     -38.024 -50.892  13.295  1.00  0.00     0.143 C 
HETATM   18  C   UNL     1     -38.720 -49.543  13.134  1.00  0.00     0.036 C 
HETATM   19  C   UNL     1     -38.366 -49.078  11.740  1.00  0.00     0.029 C 
HETATM   20  C   UNL     1     -37.343 -50.076  11.247  1.00  0.00     0.168 C 
HETATM   21  O   UNL     1     -37.567 -51.280  11.987  1.00  0.00    -0.384 OA
ENDBRANCH  15  17
ENDBRANCH   1  15
TORSDOF 4
ENDMDL
MODEL 8
REMARK VINA RESULT:      -5.5      5.306      6.714
REMARK  4 active torsions:
REMARK  status: ('A' for Active; 'I' for Inactive)
REMARK    1  A    between atoms: C_2  and  N_3 
REMARK    2  A    between atoms: C_2  and  C_15 
REMARK       I    between atoms: N_3  and  C_4 
REMARK    3  A    between atoms: C_4  and  C_6 
REMARK    4  A    between atoms: C_6  and  N_7 
ROOT
HETATM    1  N   UNL     1     -42.209 -53.928  15.582  1.00  0.00    -0.353 N 
HETATM    2  C   UNL     1     -43.352 -54.698  15.703  1.00  0.00     0.237 C 
HETATM    3  O   UNL     1     -43.427 -55.838  15.246  1.00  0.00    -0.272 OA
HETATM    4  H   UNL     1     -42.113 -53.060  16.097  1.00  0.00     0.163 HD
ENDROOT
BRANCH   2   5
HETATM    5  C   UNL     1     -44.495 -54.043  16.488  1.00  0.00     0.255 C 
BRANCH   5   6
HETATM    6  N   UNL     1     -45.354 -53.283  15.589  1.00  0.00    -0.246 N 
HETATM    7  N   UNL     1     -45.215 -53.547  14.217  1.00  0.00    -0.261 N 
HETATM    8  C   UNL     1     -45.800 -52.772  13.256  1.00  0.00     0.260 A 
HETATM    9  H   UNL     1     -44.631 -54.314  13.910  1.00  0.00     0.190 HD
HETATM   10  O   UNL     1     -45.680 -53.001  12.057  1.00  0.00    -0.267 OA
HETATM   11  C   UNL     1     -46.609 -51.638  13.729  1.00  0.00     0.081 A 
HETATM   12  C   UNL     1     -46.764 -51.395  15.032  1.00  0.00     0.081 A 
HETATM   13  C   UNL     1     -46.113 -52.233  16.060  1.00  0.00     0.262 A 
HETATM   14  O   UNL     1     -46.256 -51.960  17.247  1.00  0.00    -0.267 OA
ENDBRANCH   5   6
ENDBRANCH   2   5
BRANCH   1  15
HETATM   15  C   UNL     1     -41.020 -54.425  14.883  1.00  0.00     0.109 C 
HETATM   16  C   UNL     1     -39.779 -54.170  15.743  1.00  0.00     0.035 C 
BRANCH  15  17
HETATM   17  C   UNL     1     -40.913 -53.802  13.475  1.00  0.00     0.143 C 
HETATM   18  C   UNL     1     -39.981 -52.595  13.393  1.00  0.00     0.036 C 
HETATM   19  C   UNL     1     -40.739 -51.563  12.588  1.00  0.00     0.029 C 
HETATM   20  C   UNL     1     -41.968 -52.287  12.090  1.00  0.00     0.168 C 
HETATM   21  O   UNL     1     -42.201 -53.362  13.006  1.00  0.00    -0.384 OA
ENDBRANCH  15  17
ENDBRANCH   1  15
TORSDOF 4
ENDMDL
MODEL 9
REMARK VINA RESULT:      -5.5      5.241      6.718
REMARK  4 active torsions:
REMARK  status: ('A' for Active; 'I' for Inactive)
REMARK    1  A    between atoms: C_2  and  N_3 
REMARK    2  A    between atoms: C_2  and  C_15 
REMARK       I    between atoms: N_3  and  C_4 
REMARK    3  A    between atoms: C_4  and  C_6 
REMARK    4  A    between atoms: C_6  and  N_7 
ROOT
HETATM    1  N   UNL     1     -42.730 -54.094  14.268  1.00  0.00    -0.353 N 
HETATM    2  C   UNL     1     -43.573 -55.114  14.669  1.00  0.00     0.237 C 
HETATM    3  O   UNL     1     -43.211 -56.001  15.442  1.00  0.00    -0.272 OA
HETATM    4  H   UNL     1     -43.090 -53.294  13.760  1.00  0.00     0.163 HD
ENDROOT
BRANCH   2   5
HETATM    5  C   UNL     1     -45.002 -55.029  14.117  1.00  0.00     0.255 C 
BRANCH   5   6
HETATM    6  N   UNL     1     -45.539 -53.689  14.312  1.00  0.00    -0.246 N 
HETATM    7  N   UNL     1     -46.065 -53.404  15.583  1.00  0.00    -0.261 N 
HETATM    8  C   UNL     1     -46.780 -52.270  15.845  1.00  0.00     0.260 A 
HETATM    9  H   UNL     1     -45.950 -54.071  16.335  1.00  0.00     0.190 HD
HETATM   10  O   UNL     1     -47.240 -52.018  16.954  1.00  0.00    -0.267 OA
HETATM   11  C   UNL     1     -46.968 -51.337  14.723  1.00  0.00     0.081 A 
HETATM   12  C   UNL     1     -46.452 -51.592  13.518  1.00  0.00     0.081 A 
HETATM   13  C   UNL     1     -45.693 -52.829  13.246  1.00  0.00     0.262 A 
HETATM   14  O   UNL     1     -45.259 -53.041  12.118  1.00  0.00    -0.267 OA
ENDBRANCH   5   6
ENDBRANCH   2   5
BRANCH   1  15
HETATM   15  C   UNL     1     -41.341 -54.020  14.733  1.00  0.00     0.109 C 
HETATM   16  C   UNL     1     -41.284 -53.243  16.050  1.00  0.00     0.035 C 
BRANCH  15  17
HETATM   17  C   UNL     1     -40.430 -53.419  13.640  1.00  0.00     0.143 C 
HETATM   18  C   UNL     1     -39.086 -52.910  14.156  1.00  0.00     0.036 C 
HETATM   19  C   UNL     1     -38.897 -51.559  13.503  1.00  0.00     0.029 C 
HETATM   20  C   UNL     1     -40.031 -51.447  12.511  1.00  0.00     0.168 C 
HETATM   21  O   UNL     1     -41.070 -52.308  12.988  1.00  0.00    -0.384 OA
ENDBRANCH  15  17
ENDBRANCH   1  15
TORSDOF 4
ENDMDL
