MODEL 1
REMARK VINA RESULT:      -7.2      0.000      0.000
REMARK  5 active torsions:
REMARK  status: ('A' for Active; 'I' for Inactive)
REMARK    1  A    between atoms: C_2  and  C_5 
REMARK    2  A    between atoms: C_9  and  N_10 
REMARK       I    between atoms: N_10  and  C_11 
REMARK       I    between atoms: C_11  and  N_13 
REMARK    3  A    between atoms: N_13  and  C_14 
REMARK    4  A    between atoms: C_14  and  C_15 
REMARK       I    between atoms: C_15  and  N_17 
REMARK    5  A    between atoms: N_17  and  C_18 
ROOT
HETATM    1  N   UNL     1     -40.940 -50.841  11.218  1.00  0.00    -0.306 N 
HETATM    2  C   UNL     1     -41.621 -51.459  12.241  1.00  0.00     0.321 C 
HETATM    3  O   UNL     1     -42.151 -50.899  13.192  1.00  0.00    -0.247 OA
HETATM    4  N   UNL     1     -41.690 -52.822  12.100  1.00  0.00    -0.334 N 
HETATM    5  H   UNL     1     -40.609 -51.427  10.464  1.00  0.00     0.171 HD
HETATM    6  H   UNL     1     -41.001 -53.318  11.550  1.00  0.00     0.164 HD
ENDROOT
BRANCH   1   7
HETATM    7  C   UNL     1     -40.727 -49.443  11.114  1.00  0.00     0.067 A 
HETATM    8  C   UNL     1     -41.558 -48.563  10.457  1.00  0.00     0.120 A 
HETATM    9  N   UNL     1     -41.353 -47.231  10.383  1.00  0.00    -0.353 N 
HETATM   10  C   UNL     1     -40.264 -46.735  10.994  1.00  0.00     0.088 A 
ATOM     11  HN  UNL     1     -42.000 -46.623   9.881  1.00  0.00     0.166 HD
HETATM   12  N   UNL     1     -39.369 -47.505  11.651  1.00  0.00    -0.353 N 
HETATM   13  C   UNL     1     -39.626 -48.837  11.692  1.00  0.00     0.120 A 
ATOM     14  HN  UNL     1     -38.542 -47.104  12.094  1.00  0.00     0.166 HD
BRANCH  10  15
HETATM   15  C   UNL     1     -40.074 -45.219  10.970  1.00  0.00     0.007 C 
HETATM   16  C   UNL     1     -39.324 -44.736  12.234  1.00  0.00     0.022 C 
HETATM   17  C   UNL     1     -41.436 -44.507  10.922  1.00  0.00     0.022 C 
HETATM   18  C   UNL     1     -39.242 -44.825   9.739  1.00  0.00     0.022 C 
ENDBRANCH  10  15
ENDBRANCH   1   7
BRANCH   4  19
HETATM   19  C   UNL     1     -42.353 -53.578  13.148  1.00  0.00     0.227 C 
BRANCH  19  20
HETATM   20  C   UNL     1     -43.866 -53.653  12.973  1.00  0.00     0.235 C 
HETATM   21  O   UNL     1     -44.406 -54.395  12.156  1.00  0.00    -0.272 OA
HETATM   22  N   UNL     1     -44.551 -52.825  13.842  1.00  0.00    -0.355 N 
HETATM   23  H   UNL     1     -44.025 -52.408  14.600  1.00  0.00     0.162 HD
BRANCH  22  24
HETATM   24  C   UNL     1     -46.008 -52.803  13.932  1.00  0.00     0.084 C 
HETATM   25  C   UNL     1     -46.503 -51.426  14.393  1.00  0.00     0.025 C 
HETATM   26  C   UNL     1     -46.165 -51.132  15.856  1.00  0.00     0.002 C 
HETATM   27  C   UNL     1     -46.626 -52.249  16.790  1.00  0.00     0.000 C 
HETATM   28  C   UNL     1     -46.150 -53.625  16.332  1.00  0.00     0.002 C 
HETATM   29  C   UNL     1     -46.524 -53.898  14.874  1.00  0.00     0.025 C 
ENDBRANCH  22  24
ENDBRANCH  19  20
ENDBRANCH   4  19
TORSDOF 5
ENDMDL
MODEL 2
REMARK VINA RESULT:      -6.7      1.494      2.175
REMARK  5 active torsions:
REMARK  status: ('A' for Active; 'I' for Inactive)
REMARK    1  A    between atoms: C_2  and  C_5 
REMARK    2  A    between atoms: C_9  and  N_10 
REMARK       I    between atoms: N_10  and  C_11 
REMARK       I    between atoms: C_11  and  N_13 
REMARK    3  A    between atoms: N_13  and  C_14 
REMARK    4  A    between atoms: C_14  and  C_15 
REMARK       I    between atoms: C_15  and  N_17 
REMARK    5  A    between atoms: N_17  and  C_18 
ROOT
HETATM    1  N   UNL     1     -40.984 -50.840  11.138  1.00  0.00    -0.306 N 
HETATM    2  C   UNL     1     -40.724 -51.707  12.174  1.00  0.00     0.321 C 
HETATM    3  O   UNL     1     -40.295 -51.398  13.278  1.00  0.00    -0.247 OA
HETATM    4  N   UNL     1     -41.021 -53.013  11.875  1.00  0.00    -0.334 N 
HETATM    5  H   UNL     1     -41.397 -51.231  10.303  1.00  0.00     0.171 HD
HETATM    6  H   UNL     1     -41.037 -53.330  10.915  1.00  0.00     0.164 HD
ENDROOT
BRANCH   1   7
HETATM    7  C   UNL     1     -40.774 -49.439  11.181  1.00  0.00     0.067 A 
HETATM    8  C   UNL     1     -39.572 -48.827  11.463  1.00  0.00     0.120 A 
HETATM    9  N   UNL     1     -39.382 -47.491  11.481  1.00  0.00    -0.353 N 
HETATM   10  C   UNL     1     -40.438 -46.709  11.202  1.00  0.00     0.088 A 
ATOM     11  HN  UNL     1     -38.470 -47.090  11.698  1.00  0.00     0.166 HD
HETATM   12  N   UNL     1     -41.669 -47.197  10.931  1.00  0.00    -0.353 N 
HETATM   13  C   UNL     1     -41.801 -48.548  10.928  1.00  0.00     0.120 A 
ATOM     14  HN  UNL     1     -42.458 -46.581  10.737  1.00  0.00     0.166 HD
BRANCH  10  15
HETATM   15  C   UNL     1     -40.203 -45.201  11.152  1.00  0.00     0.007 C 
HETATM   16  C   UNL     1     -39.413 -44.723  12.394  1.00  0.00     0.022 C 
HETATM   17  C   UNL     1     -41.544 -44.449  11.122  1.00  0.00     0.022 C 
HETATM   18  C   UNL     1     -39.386 -44.849   9.899  1.00  0.00     0.022 C 
ENDBRANCH  10  15
ENDBRANCH   1   7
BRANCH   4  19
HETATM   19  C   UNL     1     -40.745 -54.017  12.887  1.00  0.00     0.227 C 
BRANCH  19  20
HETATM   20  C   UNL     1     -41.888 -54.204  13.879  1.00  0.00     0.235 C 
HETATM   21  O   UNL     1     -41.749 -54.778  14.956  1.00  0.00    -0.272 OA
HETATM   22  N   UNL     1     -43.073 -53.637  13.449  1.00  0.00    -0.355 N 
HETATM   23  H   UNL     1     -43.032 -53.022  12.646  1.00  0.00     0.162 HD
BRANCH  22  24
HETATM   24  C   UNL     1     -44.277 -53.597  14.274  1.00  0.00     0.084 C 
HETATM   25  C   UNL     1     -45.527 -53.854  13.422  1.00  0.00     0.025 C 
HETATM   26  C   UNL     1     -45.847 -52.699  12.472  1.00  0.00     0.002 C 
HETATM   27  C   UNL     1     -45.913 -51.356  13.196  1.00  0.00     0.000 C 
HETATM   28  C   UNL     1     -44.679 -51.098  14.058  1.00  0.00     0.002 C 
HETATM   29  C   UNL     1     -44.401 -52.259  15.013  1.00  0.00     0.025 C 
ENDBRANCH  22  24
ENDBRANCH  19  20
ENDBRANCH   4  19
TORSDOF 5
ENDMDL
MODEL 3
REMARK VINA RESULT:      -6.7      1.826      2.615
REMARK  5 active torsions:
REMARK  status: ('A' for Active; 'I' for Inactive)
REMARK    1  A    between atoms: C_2  and  C_5 
REMARK    2  A    between atoms: C_9  and  N_10 
REMARK       I    between atoms: N_10  and  C_11 
REMARK       I    between atoms: C_11  and  N_13 
REMARK    3  A    between atoms: N_13  and  C_14 
REMARK    4  A    between atoms: C_14  and  C_15 
REMARK       I    between atoms: C_15  and  N_17 
REMARK    5  A    between atoms: N_17  and  C_18 
ROOT
HETATM    1  N   UNL     1     -42.148 -49.084  11.087  1.00  0.00    -0.306 N 
HETATM    2  C   UNL     1     -41.543 -49.963  11.955  1.00  0.00     0.321 C 
HETATM    3  O   UNL     1     -40.972 -49.665  12.997  1.00  0.00    -0.247 OA
HETATM    4  N   UNL     1     -41.652 -51.273  11.564  1.00  0.00    -0.334 N 
HETATM    5  H   UNL     1     -42.637 -49.481  10.297  1.00  0.00     0.171 HD
HETATM    6  H   UNL     1     -41.795 -51.509  10.591  1.00  0.00     0.164 HD
ENDROOT
BRANCH   1   7
HETATM    7  C   UNL     1     -42.189 -47.677  11.255  1.00  0.00     0.067 A 
HETATM    8  C   UNL     1     -43.051 -47.006  12.094  1.00  0.00     0.120 A 
HETATM    9  N   UNL     1     -43.066 -45.666  12.258  1.00  0.00    -0.353 N 
HETATM   10  C   UNL     1     -42.178 -44.944  11.556  1.00  0.00     0.088 A 
ATOM     11  HN  UNL     1     -43.727 -45.219  12.893  1.00  0.00     0.166 HD
HETATM   12  N   UNL     1     -41.299 -45.492  10.688  1.00  0.00    -0.353 N 
HETATM   13  C   UNL     1     -41.330 -46.843  10.562  1.00  0.00     0.120 A 
ATOM     14  HN  UNL     1     -40.645 -44.919  10.155  1.00  0.00     0.166 HD
BRANCH  10  15
HETATM   15  C   UNL     1     -42.149 -43.436  11.798  1.00  0.00     0.007 C 
HETATM   16  C   UNL     1     -40.765 -42.844  11.438  1.00  0.00     0.022 C 
HETATM   17  C   UNL     1     -42.430 -43.124  13.278  1.00  0.00     0.022 C 
HETATM   18  C   UNL     1     -43.207 -42.752  10.917  1.00  0.00     0.022 C 
ENDBRANCH  10  15
ENDBRANCH   1   7
BRANCH   4  19
HETATM   19  C   UNL     1     -41.011 -52.281  12.390  1.00  0.00     0.227 C 
BRANCH  19  20
HETATM   20  C   UNL     1     -42.000 -53.225  13.066  1.00  0.00     0.235 C 
HETATM   21  O   UNL     1     -41.722 -54.388  13.351  1.00  0.00    -0.272 OA
HETATM   22  N   UNL     1     -43.214 -52.626  13.342  1.00  0.00    -0.355 N 
HETATM   23  H   UNL     1     -43.270 -51.619  13.246  1.00  0.00     0.162 HD
BRANCH  22  24
HETATM   24  C   UNL     1     -44.280 -53.300  14.078  1.00  0.00     0.084 C 
HETATM   25  C   UNL     1     -45.491 -53.553  13.169  1.00  0.00     0.025 C 
HETATM   26  C   UNL     1     -46.231 -52.268  12.792  1.00  0.00     0.002 C 
HETATM   27  C   UNL     1     -46.598 -51.433  14.017  1.00  0.00     0.000 C 
HETATM   28  C   UNL     1     -45.403 -51.188  14.934  1.00  0.00     0.002 C 
HETATM   29  C   UNL     1     -44.700 -52.492  15.312  1.00  0.00     0.025 C 
ENDBRANCH  22  24
ENDBRANCH  19  20
ENDBRANCH   4  19
TORSDOF 5
ENDMDL
MODEL 4
REMARK VINA RESULT:      -6.6      2.476      3.439
REMARK  5 active torsions:
REMARK  status: ('A' for Active; 'I' for Inactive)
REMARK    1  A    between atoms: C_2  and  C_5 
REMARK    2  A    between atoms: C_9  and  N_10 
REMARK       I    between atoms: N_10  and  C_11 
REMARK       I    between atoms: C_11  and  N_13 
REMARK    3  A    between atoms: N_13  and  C_14 
REMARK    4  A    between atoms: C_14  and  C_15 
REMARK       I    between atoms: C_15  and  N_17 
REMARK    5  A    between atoms: N_17  and  C_18 
ROOT
HETATM    1  N   UNL     1     -40.988 -50.343  12.934  1.00  0.00    -0.306 N 
HETATM    2  C   UNL     1     -40.879 -51.712  12.850  1.00  0.00     0.321 C 
HETATM    3  O   UNL     1     -41.314 -52.413  11.945  1.00  0.00    -0.247 OA
HETATM    4  N   UNL     1     -40.187 -52.266  13.897  1.00  0.00    -0.334 N 
HETATM    5  H   UNL     1     -40.523 -49.891  13.709  1.00  0.00     0.171 HD
HETATM    6  H   UNL     1     -40.128 -51.787  14.786  1.00  0.00     0.164 HD
ENDROOT
BRANCH   1   7
HETATM    7  C   UNL     1     -41.647 -49.522  11.985  1.00  0.00     0.067 A 
HETATM    8  C   UNL     1     -41.093 -49.079  10.804  1.00  0.00     0.120 A 
HETATM    9  N   UNL     1     -41.739 -48.312   9.899  1.00  0.00    -0.353 N 
HETATM   10  C   UNL     1     -43.007 -47.964  10.172  1.00  0.00     0.088 A 
ATOM     11  HN  UNL     1     -41.280 -48.010   9.040  1.00  0.00     0.166 HD
HETATM   12  N   UNL     1     -43.645 -48.323  11.307  1.00  0.00    -0.353 N 
HETATM   13  C   UNL     1     -42.946 -49.092  12.181  1.00  0.00     0.120 A 
ATOM     14  HN  UNL     1     -44.604 -48.032  11.498  1.00  0.00     0.166 HD
BRANCH  10  15
HETATM   15  C   UNL     1     -43.758 -47.158   9.114  1.00  0.00     0.007 C 
HETATM   16  C   UNL     1     -45.287 -47.259   9.324  1.00  0.00     0.022 C 
HETATM   17  C   UNL     1     -43.434 -47.687   7.706  1.00  0.00     0.022 C 
HETATM   18  C   UNL     1     -43.357 -45.677   9.213  1.00  0.00     0.022 C 
ENDBRANCH  10  15
ENDBRANCH   1   7
BRANCH   4  19
HETATM   19  C   UNL     1     -40.049 -53.711  13.927  1.00  0.00     0.227 C 
BRANCH  19  20
HETATM   20  C   UNL     1     -41.100 -54.400  14.791  1.00  0.00     0.235 C 
HETATM   21  O   UNL     1     -40.823 -54.992  15.832  1.00  0.00    -0.272 OA
HETATM   22  N   UNL     1     -42.382 -54.260  14.295  1.00  0.00    -0.355 N 
HETATM   23  H   UNL     1     -42.522 -53.592  13.546  1.00  0.00     0.162 HD
BRANCH  22  24
HETATM   24  C   UNL     1     -43.563 -54.743  15.005  1.00  0.00     0.084 C 
HETATM   25  C   UNL     1     -44.692 -55.071  14.018  1.00  0.00     0.025 C 
HETATM   26  C   UNL     1     -45.294 -53.823  13.368  1.00  0.00     0.002 C 
HETATM   27  C   UNL     1     -45.719 -52.782  14.402  1.00  0.00     0.000 C 
HETATM   28  C   UNL     1     -44.607 -52.460  15.396  1.00  0.00     0.002 C 
HETATM   29  C   UNL     1     -44.043 -53.725  16.045  1.00  0.00     0.025 C 
ENDBRANCH  22  24
ENDBRANCH  19  20
ENDBRANCH   4  19
TORSDOF 5
ENDMDL
MODEL 5
REMARK VINA RESULT:      -5.9      3.511      7.908
REMARK  5 active torsions:
REMARK  status: ('A' for Active; 'I' for Inactive)
REMARK    1  A    between atoms: C_2  and  C_5 
REMARK    2  A    between atoms: C_9  and  N_10 
REMARK       I    between atoms: N_10  and  C_11 
REMARK       I    between atoms: C_11  and  N_13 
REMARK    3  A    between atoms: N_13  and  C_14 
REMARK    4  A    between atoms: C_14  and  C_15 
REMARK       I    between atoms: C_15  and  N_17 
REMARK    5  A    between atoms: N_17  and  C_18 
ROOT
HETATM    1  N   UNL     1     -40.989 -49.308  10.731  1.00  0.00    -0.306 N 
HETATM    2  C   UNL     1     -42.117 -48.523  10.678  1.00  0.00     0.321 C 
HETATM    3  O   UNL     1     -43.033 -48.526  11.490  1.00  0.00    -0.247 OA
HETATM    4  N   UNL     1     -42.133 -47.669   9.605  1.00  0.00    -0.334 N 
HETATM    5  H   UNL     1     -40.284 -49.151  10.024  1.00  0.00     0.171 HD
HETATM    6  H   UNL     1     -41.597 -47.879   8.773  1.00  0.00     0.164 HD
ENDROOT
BRANCH   1   7
HETATM    7  C   UNL     1     -40.717 -50.270  11.737  1.00  0.00     0.067 A 
HETATM    8  C   UNL     1     -41.406 -51.451  11.909  1.00  0.00     0.120 A 
HETATM    9  N   UNL     1     -41.122 -52.367  12.859  1.00  0.00    -0.353 N 
HETATM   10  C   UNL     1     -40.098 -52.107  13.688  1.00  0.00     0.088 A 
ATOM     11  HN  UNL     1     -41.666 -53.226  12.943  1.00  0.00     0.166 HD
HETATM   12  N   UNL     1     -39.366 -50.973  13.626  1.00  0.00    -0.353 N 
HETATM   13  C   UNL     1     -39.696 -50.087  12.652  1.00  0.00     0.120 A 
ATOM     14  HN  UNL     1     -38.602 -50.792  14.278  1.00  0.00     0.166 HD
BRANCH  10  15
HETATM   15  C   UNL     1     -39.735 -53.178  14.715  1.00  0.00     0.007 C 
HETATM   16  C   UNL     1     -41.005 -53.765  15.375  1.00  0.00     0.022 C 
HETATM   17  C   UNL     1     -38.853 -52.581  15.825  1.00  0.00     0.022 C 
HETATM   18  C   UNL     1     -38.983 -54.323  14.018  1.00  0.00     0.022 C 
ENDBRANCH  10  15
ENDBRANCH   1   7
BRANCH   4  19
HETATM   19  C   UNL     1     -43.300 -46.822   9.431  1.00  0.00     0.227 C 
BRANCH  19  20
HETATM   20  C   UNL     1     -43.094 -45.399   9.937  1.00  0.00     0.235 C 
HETATM   21  O   UNL     1     -43.583 -44.417   9.384  1.00  0.00    -0.272 OA
HETATM   22  N   UNL     1     -42.329 -45.341  11.087  1.00  0.00    -0.355 N 
HETATM   23  H   UNL     1     -42.143 -46.213  11.568  1.00  0.00     0.162 HD
BRANCH  22  24
HETATM   24  C   UNL     1     -42.085 -44.099  11.814  1.00  0.00     0.084 C 
HETATM   25  C   UNL     1     -40.789 -43.433  11.329  1.00  0.00     0.025 C 
HETATM   26  C   UNL     1     -39.534 -44.206  11.741  1.00  0.00     0.002 C 
HETATM   27  C   UNL     1     -39.503 -44.500  13.238  1.00  0.00     0.000 C 
HETATM   28  C   UNL     1     -40.792 -45.149  13.733  1.00  0.00     0.002 C 
HETATM   29  C   UNL     1     -42.026 -44.341  13.327  1.00  0.00     0.025 C 
ENDBRANCH  22  24
ENDBRANCH  19  20
ENDBRANCH   4  19
TORSDOF 5
ENDMDL
MODEL 6
REMARK VINA RESULT:      -5.9      3.133      3.979
REMARK  5 active torsions:
REMARK  status: ('A' for Active; 'I' for Inactive)
REMARK    1  A    between atoms: C_2  and  C_5 
REMARK    2  A    between atoms: C_9  and  N_10 
REMARK       I    between atoms: N_10  and  C_11 
REMARK       I    between atoms: C_11  and  N_13 
REMARK    3  A    between atoms: N_13  and  C_14 
REMARK    4  A    between atoms: C_14  and  C_15 
REMARK       I    between atoms: C_15  and  N_17 
REMARK    5  A    between atoms: N_17  and  C_18 
ROOT
HETATM    1  N   UNL     1     -40.521 -50.909  11.060  1.00  0.00    -0.306 N 
HETATM    2  C   UNL     1     -40.912 -51.723  12.097  1.00  0.00     0.321 C 
HETATM    3  O   UNL     1     -41.275 -51.350  13.206  1.00  0.00    -0.247 OA
HETATM    4  N   UNL     1     -40.892 -53.057  11.777  1.00  0.00    -0.334 N 
HETATM    5  H   UNL     1     -40.309 -51.355  10.179  1.00  0.00     0.171 HD
HETATM    6  H   UNL     1     -40.295 -53.398  11.035  1.00  0.00     0.164 HD
ENDROOT
BRANCH   1   7
HETATM    7  C   UNL     1     -40.457 -49.494  11.120  1.00  0.00     0.067 A 
HETATM    8  C   UNL     1     -39.525 -48.774  11.836  1.00  0.00     0.120 A 
HETATM    9  N   UNL     1     -39.464 -47.425  11.868  1.00  0.00    -0.353 N 
HETATM   10  C   UNL     1     -40.373 -46.745  11.150  1.00  0.00     0.088 A 
ATOM     11  HN  UNL     1     -38.754 -46.942  12.417  1.00  0.00     0.166 HD
HETATM   12  N   UNL     1     -41.343 -47.344  10.426  1.00  0.00    -0.353 N 
HETATM   13  C   UNL     1     -41.358 -48.702  10.432  1.00  0.00     0.120 A 
ATOM     14  HN  UNL     1     -42.031 -46.803   9.901  1.00  0.00     0.166 HD
BRANCH  10  15
HETATM   15  C   UNL     1     -40.255 -45.222  11.130  1.00  0.00     0.007 C 
HETATM   16  C   UNL     1     -39.544 -44.705  12.403  1.00  0.00     0.022 C 
HETATM   17  C   UNL     1     -41.650 -44.577  11.069  1.00  0.00     0.022 C 
HETATM   18  C   UNL     1     -39.431 -44.786   9.908  1.00  0.00     0.022 C 
ENDBRANCH  10  15
ENDBRANCH   1   7
BRANCH   4  19
HETATM   19  C   UNL     1     -41.248 -54.008  12.815  1.00  0.00     0.227 C 
BRANCH  19  20
HETATM   20  C   UNL     1     -40.145 -54.217  13.846  1.00  0.00     0.235 C 
HETATM   21  O   UNL     1     -39.067 -54.740  13.572  1.00  0.00    -0.272 OA
HETATM   22  N   UNL     1     -40.477 -53.733  15.097  1.00  0.00    -0.355 N 
HETATM   23  H   UNL     1     -41.301 -53.148  15.167  1.00  0.00     0.162 HD
BRANCH  22  24
HETATM   24  C   UNL     1     -39.541 -53.726  16.217  1.00  0.00     0.084 C 
HETATM   25  C   UNL     1     -40.279 -53.959  17.543  1.00  0.00     0.025 C 
HETATM   26  C   UNL     1     -41.155 -52.773  17.951  1.00  0.00     0.002 C 
HETATM   27  C   UNL     1     -40.382 -51.457  17.950  1.00  0.00     0.000 C 
HETATM   28  C   UNL     1     -39.632 -51.222  16.641  1.00  0.00     0.002 C 
HETATM   29  C   UNL     1     -38.748 -52.414  16.273  1.00  0.00     0.025 C 
ENDBRANCH  22  24
ENDBRANCH  19  20
ENDBRANCH   4  19
TORSDOF 5
ENDMDL
MODEL 7
REMARK VINA RESULT:      -5.8      3.196      8.120
REMARK  5 active torsions:
REMARK  status: ('A' for Active; 'I' for Inactive)
REMARK    1  A    between atoms: C_2  and  C_5 
REMARK    2  A    between atoms: C_9  and  N_10 
REMARK       I    between atoms: N_10  and  C_11 
REMARK       I    between atoms: C_11  and  N_13 
REMARK    3  A    between atoms: N_13  and  C_14 
REMARK    4  A    between atoms: C_14  and  C_15 
REMARK       I    between atoms: C_15  and  N_17 
REMARK    5  A    between atoms: N_17  and  C_18 
ROOT
HETATM    1  N   UNL     1     -40.950 -47.852  10.404  1.00  0.00    -0.306 N 
HETATM    2  C   UNL     1     -40.299 -46.767  10.943  1.00  0.00     0.321 C 
HETATM    3  O   UNL     1     -39.809 -46.708  12.064  1.00  0.00    -0.247 OA
HETATM    4  N   UNL     1     -40.208 -45.704  10.081  1.00  0.00    -0.334 N 
HETATM    5  H   UNL     1     -41.247 -47.779   9.440  1.00  0.00     0.171 HD
HETATM    6  H   UNL     1     -40.872 -45.598   9.325  1.00  0.00     0.164 HD
ENDROOT
BRANCH   1   7
HETATM    7  C   UNL     1     -41.176 -49.079  11.075  1.00  0.00     0.067 A 
HETATM    8  C   UNL     1     -40.286 -50.131  11.123  1.00  0.00     0.120 A 
HETATM    9  N   UNL     1     -40.507 -51.287  11.783  1.00  0.00    -0.353 N 
HETATM   10  C   UNL     1     -41.672 -51.416  12.438  1.00  0.00     0.088 A 
ATOM     11  HN  UNL     1     -39.814 -52.035  11.785  1.00  0.00     0.166 HD
HETATM   12  N   UNL     1     -42.627 -50.460  12.445  1.00  0.00    -0.353 N 
HETATM   13  C   UNL     1     -42.352 -49.319  11.763  1.00  0.00     0.120 A 
ATOM     14  HN  UNL     1     -43.511 -50.590  12.938  1.00  0.00     0.166 HD
BRANCH  10  15
HETATM   15  C   UNL     1     -41.888 -52.696  13.244  1.00  0.00     0.007 C 
HETATM   16  C   UNL     1     -43.260 -53.331  12.917  1.00  0.00     0.022 C 
HETATM   17  C   UNL     1     -41.849 -52.394  14.752  1.00  0.00     0.022 C 
HETATM   18  C   UNL     1     -40.792 -53.715  12.893  1.00  0.00     0.022 C 
ENDBRANCH  10  15
ENDBRANCH   1   7
BRANCH   4  19
HETATM   19  C   UNL     1     -39.575 -44.491  10.566  1.00  0.00     0.227 C 
BRANCH  19  20
HETATM   20  C   UNL     1     -40.546 -43.536  11.251  1.00  0.00     0.235 C 
HETATM   21  O   UNL     1     -41.290 -42.782  10.628  1.00  0.00    -0.272 OA
HETATM   22  N   UNL     1     -40.516 -43.633  12.629  1.00  0.00    -0.355 N 
HETATM   23  H   UNL     1     -40.016 -44.417  13.031  1.00  0.00     0.162 HD
BRANCH  22  24
HETATM   24  C   UNL     1     -41.429 -42.893  13.495  1.00  0.00     0.084 C 
HETATM   25  C   UNL     1     -40.798 -42.656  14.873  1.00  0.00     0.025 C 
HETATM   26  C   UNL     1     -40.668 -43.939  15.697  1.00  0.00     0.002 C 
HETATM   27  C   UNL     1     -41.989 -44.698  15.795  1.00  0.00     0.000 C 
HETATM   28  C   UNL     1     -42.632 -44.926  14.430  1.00  0.00     0.002 C 
HETATM   29  C   UNL     1     -42.770 -43.623  13.642  1.00  0.00     0.025 C 
ENDBRANCH  22  24
ENDBRANCH  19  20
ENDBRANCH   4  19
TORSDOF 5
ENDMDL
MODEL 8
REMARK VINA RESULT:      -5.8      3.529      5.122
REMARK  5 active torsions:
REMARK  status: ('A' for Active; 'I' for Inactive)
REMARK    1  A    between atoms: C_2  and  C_5 
REMARK    2  A    between atoms: C_9  and  N_10 
REMARK       I    between atoms: N_10  and  C_11 
REMARK       I    between atoms: C_11  and  N_13 
REMARK    3  A    between atoms: N_13  and  C_14 
REMARK    4  A    between atoms: C_14  and  C_15 
REMARK       I    between atoms: C_15  and  N_17 
REMARK    5  A    between atoms: N_17  and  C_18 
ROOT
HETATM    1  N   UNL     1     -40.545 -48.005  13.447  1.00  0.00    -0.306 N 
HETATM    2  C   UNL     1     -39.611 -49.014  13.475  1.00  0.00     0.321 C 
HETATM    3  O   UNL     1     -39.383 -49.806  12.570  1.00  0.00    -0.247 OA
HETATM    4  N   UNL     1     -38.894 -49.057  14.644  1.00  0.00    -0.334 N 
HETATM    5  H   UNL     1     -40.579 -47.385  14.245  1.00  0.00     0.171 HD
HETATM    6  H   UNL     1     -39.277 -48.669  15.496  1.00  0.00     0.164 HD
ENDROOT
BRANCH   1   7
HETATM    7  C   UNL     1     -41.414 -47.733  12.360  1.00  0.00     0.067 A 
HETATM    8  C   UNL     1     -41.039 -47.714  11.034  1.00  0.00     0.120 A 
HETATM    9  N   UNL     1     -41.882 -47.473  10.007  1.00  0.00    -0.353 N 
HETATM   10  C   UNL     1     -43.171 -47.239  10.303  1.00  0.00     0.088 A 
ATOM     11  HN  UNL     1     -41.552 -47.470   9.042  1.00  0.00     0.166 HD
HETATM   12  N   UNL     1     -43.647 -47.213  11.567  1.00  0.00    -0.353 N 
HETATM   13  C   UNL     1     -42.755 -47.461  12.560  1.00  0.00     0.120 A 
ATOM     14  HN  UNL     1     -44.629 -47.018  11.766  1.00  0.00     0.166 HD
BRANCH  10  15
HETATM   15  C   UNL     1     -44.135 -47.039   9.135  1.00  0.00     0.007 C 
HETATM   16  C   UNL     1     -45.520 -47.656   9.449  1.00  0.00     0.022 C 
HETATM   17  C   UNL     1     -43.589 -47.715   7.866  1.00  0.00     0.022 C 
HETATM   18  C   UNL     1     -44.327 -45.536   8.878  1.00  0.00     0.022 C 
ENDBRANCH  10  15
ENDBRANCH   1   7
BRANCH   4  19
HETATM   19  C   UNL     1     -37.908 -50.112  14.794  1.00  0.00     0.227 C 
BRANCH  19  20
HETATM   20  C   UNL     1     -38.443 -51.337  15.529  1.00  0.00     0.235 C 
HETATM   21  O   UNL     1     -38.209 -51.557  16.715  1.00  0.00    -0.272 OA
HETATM   22  N   UNL     1     -39.231 -52.143  14.730  1.00  0.00    -0.355 N 
HETATM   23  H   UNL     1     -39.520 -51.771  13.833  1.00  0.00     0.162 HD
BRANCH  22  24
HETATM   24  C   UNL     1     -39.937 -53.315  15.240  1.00  0.00     0.084 C 
HETATM   25  C   UNL     1     -39.925 -54.448  14.205  1.00  0.00     0.025 C 
HETATM   26  C   UNL     1     -40.800 -54.149  12.986  1.00  0.00     0.002 C 
HETATM   27  C   UNL     1     -42.219 -53.747  13.378  1.00  0.00     0.000 C 
HETATM   28  C   UNL     1     -42.242 -52.629  14.418  1.00  0.00     0.002 C 
HETATM   29  C   UNL     1     -41.378 -52.968  15.633  1.00  0.00     0.025 C 
ENDBRANCH  22  24
ENDBRANCH  19  20
ENDBRANCH   4  19
TORSDOF 5
ENDMDL
MODEL 9
REMARK VINA RESULT:      -5.6      2.727      3.985
REMARK  5 active torsions:
REMARK  status: ('A' for Active; 'I' for Inactive)
REMARK    1  A    between atoms: C_2  and  C_5 
REMARK    2  A    between atoms: C_9  and  N_10 
REMARK       I    between atoms: N_10  and  C_11 
REMARK       I    between atoms: C_11  and  N_13 
REMARK    3  A    between atoms: N_13  and  C_14 
REMARK    4  A    between atoms: C_14  and  C_15 
REMARK       I    between atoms: C_15  and  N_17 
REMARK    5  A    between atoms: N_17  and  C_18 
ROOT
HETATM    1  N   UNL     1     -43.054 -52.729  12.249  1.00  0.00    -0.306 N 
HETATM    2  C   UNL     1     -44.169 -52.385  12.977  1.00  0.00     0.321 C 
HETATM    3  O   UNL     1     -44.256 -51.446  13.758  1.00  0.00    -0.247 OA
HETATM    4  N   UNL     1     -45.247 -53.198  12.734  1.00  0.00    -0.334 N 
HETATM    5  H   UNL     1     -43.148 -53.492  11.594  1.00  0.00     0.171 HD
HETATM    6  H   UNL     1     -45.114 -54.139  12.387  1.00  0.00     0.164 HD
ENDROOT
BRANCH   1   7
HETATM    7  C   UNL     1     -41.809 -52.053  12.305  1.00  0.00     0.067 A 
HETATM    8  C   UNL     1     -41.540 -50.840  11.709  1.00  0.00     0.120 A 
HETATM    9  N   UNL     1     -40.354 -50.199  11.787  1.00  0.00    -0.353 N 
HETATM   10  C   UNL     1     -39.376 -50.785  12.496  1.00  0.00     0.088 A 
ATOM     11  HN  UNL     1     -40.208 -49.302  11.324  1.00  0.00     0.166 HD
HETATM   12  N   UNL     1     -39.519 -51.982  13.106  1.00  0.00    -0.353 N 
HETATM   13  C   UNL     1     -40.732 -52.582  12.993  1.00  0.00     0.120 A 
ATOM     14  HN  UNL     1     -38.755 -52.413  13.626  1.00  0.00     0.166 HD
BRANCH  10  15
HETATM   15  C   UNL     1     -38.060 -50.023  12.642  1.00  0.00     0.007 C 
HETATM   16  C   UNL     1     -37.094 -50.765  13.596  1.00  0.00     0.022 C 
HETATM   17  C   UNL     1     -38.314 -48.620  13.218  1.00  0.00     0.022 C 
HETATM   18  C   UNL     1     -37.380 -49.902  11.269  1.00  0.00     0.022 C 
ENDBRANCH  10  15
ENDBRANCH   1   7
BRANCH   4  19
HETATM   19  C   UNL     1     -46.466 -52.947  13.482  1.00  0.00     0.227 C 
BRANCH  19  20
HETATM   20  C   UNL     1     -46.356 -53.318  14.957  1.00  0.00     0.235 C 
HETATM   21  O   UNL     1     -46.165 -54.469  15.342  1.00  0.00    -0.272 OA
HETATM   22  N   UNL     1     -46.465 -52.226  15.797  1.00  0.00    -0.355 N 
HETATM   23  H   UNL     1     -46.422 -51.306  15.375  1.00  0.00     0.162 HD
BRANCH  22  24
HETATM   24  C   UNL     1     -46.287 -52.319  17.243  1.00  0.00     0.084 C 
HETATM   25  C   UNL     1     -47.576 -51.922  17.975  1.00  0.00     0.025 C 
HETATM   26  C   UNL     1     -47.886 -50.428  17.864  1.00  0.00     0.002 C 
HETATM   27  C   UNL     1     -46.701 -49.560  18.279  1.00  0.00     0.000 C 
HETATM   28  C   UNL     1     -45.411 -49.956  17.567  1.00  0.00     0.002 C 
HETATM   29  C   UNL     1     -45.116 -51.449  17.716  1.00  0.00     0.025 C 
ENDBRANCH  22  24
ENDBRANCH  19  20
ENDBRANCH   4  19
TORSDOF 5
ENDMDL
