MODEL 1
REMARK VINA RESULT:      -5.9      0.000      0.000
REMARK  4 active torsions:
REMARK  status: ('A' for Active; 'I' for Inactive)
REMARK    1  A    between atoms: S_2  and  C_5 
REMARK    2  A    between atoms: C_8  and  N_9 
REMARK       I    between atoms: N_9  and  C_10 
REMARK       I    between atoms: C_10  and  N_12 
REMARK    3  A    between atoms: N_12  and  C_13 
REMARK    4  A    between atoms: C_13  and  C_14 
ROOT
HETATM    1  C   UNL     1     -40.625 -46.442  10.917  1.00  0.00     0.128 A 
HETATM    2  C   UNL     1     -39.671 -47.064  11.700  1.00  0.00     0.044 A 
HETATM    3  C   UNL     1     -39.713 -48.453  11.777  1.00  0.00     0.034 A 
HETATM    4  C   UNL     1     -40.674 -49.173  11.062  1.00  0.00     0.051 A 
HETATM    5  C   UNL     1     -41.619 -48.432  10.347  1.00  0.00     0.118 A 
HETATM    6  N   UNL     1     -41.622 -47.076  10.247  1.00  0.00    -0.355 N 
ATOM      7  HN  UNL     1     -42.324 -46.571   9.706  1.00  0.00     0.166 HD
ENDROOT
BRANCH   4   8
HETATM    8  N   UNL     1     -40.705 -50.588  11.020  1.00  0.00    -0.308 N 
HETATM    9  C   UNL     1     -41.131 -51.387  12.062  1.00  0.00     0.320 C 
HETATM   10  O   UNL     1     -41.531 -50.982  13.148  1.00  0.00    -0.247 OA
HETATM   11  N   UNL     1     -41.016 -52.726  11.790  1.00  0.00    -0.342 N 
HETATM   12  H   UNL     1     -41.029 -53.029  10.829  1.00  0.00     0.164 HD
HETATM   13  H   UNL     1     -40.145 -51.048  10.316  1.00  0.00     0.170 HD
BRANCH  11  14
HETATM   14  C   UNL     1     -41.421 -53.686  12.798  1.00  0.00     0.129 C 
BRANCH  14  15
HETATM   15  C   UNL     1     -40.222 -54.331  13.425  1.00  0.00     0.003 A 
HETATM   16  C   UNL     1     -40.170 -54.501  14.924  1.00  0.00     0.007 A 
HETATM   17  C   UNL     1     -39.254 -53.521  14.251  1.00  0.00     0.007 A 
ENDBRANCH  14  15
ENDBRANCH  11  14
ENDBRANCH   4   8
BRANCH   1  18
HETATM   18  S   UNL     1     -40.541 -44.678  10.710  1.00  0.00     0.187 S 
HETATM   19  C   UNL     1     -39.808 -44.058  12.197  1.00  0.00     0.168 C 
HETATM   20  O   UNL     1     -41.906 -44.190  10.653  1.00  0.00    -0.222 OA
HETATM   21  O   UNL     1     -39.613 -44.422   9.620  1.00  0.00    -0.222 OA
ENDBRANCH   1  18
TORSDOF 4
ENDMDL
MODEL 2
REMARK VINA RESULT:      -5.8      1.478      2.158
REMARK  4 active torsions:
REMARK  status: ('A' for Active; 'I' for Inactive)
REMARK    1  A    between atoms: S_2  and  C_5 
REMARK    2  A    between atoms: C_8  and  N_9 
REMARK       I    between atoms: N_9  and  C_10 
REMARK       I    between atoms: C_10  and  N_12 
REMARK    3  A    between atoms: N_12  and  C_13 
REMARK    4  A    between atoms: C_13  and  C_14 
ROOT
HETATM    1  C   UNL     1     -40.418 -46.662  10.946  1.00  0.00     0.128 A 
HETATM    2  C   UNL     1     -39.553 -47.370  11.760  1.00  0.00     0.044 A 
HETATM    3  C   UNL     1     -39.783 -48.734  11.906  1.00  0.00     0.034 A 
HETATM    4  C   UNL     1     -40.838 -49.351  11.227  1.00  0.00     0.051 A 
HETATM    5  C   UNL     1     -41.678 -48.524  10.476  1.00  0.00     0.118 A 
HETATM    6  N   UNL     1     -41.497 -47.188  10.308  1.00  0.00    -0.355 N 
ATOM      7  HN  UNL     1     -42.126 -46.618   9.742  1.00  0.00     0.166 HD
ENDROOT
BRANCH   4   8
HETATM    8  N   UNL     1     -41.061 -50.749  11.256  1.00  0.00    -0.308 N 
HETATM    9  C   UNL     1     -41.799 -51.398  12.225  1.00  0.00     0.320 C 
HETATM   10  O   UNL     1     -42.348 -50.857  13.179  1.00  0.00    -0.247 OA
HETATM   11  N   UNL     1     -41.824 -52.759  12.056  1.00  0.00    -0.342 N 
HETATM   12  H   UNL     1     -41.686 -53.135  11.131  1.00  0.00     0.164 HD
HETATM   13  H   UNL     1     -40.442 -51.334  10.712  1.00  0.00     0.170 HD
BRANCH  11  14
HETATM   14  C   UNL     1     -42.558 -53.572  13.005  1.00  0.00     0.129 C 
BRANCH  14  15
HETATM   15  C   UNL     1     -43.952 -53.826  12.514  1.00  0.00     0.003 A 
HETATM   16  C   UNL     1     -45.111 -53.120  13.176  1.00  0.00     0.007 A 
HETATM   17  C   UNL     1     -44.936 -54.600  13.355  1.00  0.00     0.007 A 
ENDBRANCH  14  15
ENDBRANCH  11  14
ENDBRANCH   4   8
BRANCH   1  18
HETATM   18  S   UNL     1     -40.096 -44.940  10.651  1.00  0.00     0.187 S 
HETATM   19  C   UNL     1     -39.422 -44.315  12.165  1.00  0.00     0.168 C 
HETATM   20  O   UNL     1     -41.378 -44.296  10.441  1.00  0.00    -0.222 OA
HETATM   21  O   UNL     1     -39.053 -44.868   9.641  1.00  0.00    -0.222 OA
ENDBRANCH   1  18
TORSDOF 4
ENDMDL
MODEL 3
REMARK VINA RESULT:      -5.6      1.680      2.054
REMARK  4 active torsions:
REMARK  status: ('A' for Active; 'I' for Inactive)
REMARK    1  A    between atoms: S_2  and  C_5 
REMARK    2  A    between atoms: C_8  and  N_9 
REMARK       I    between atoms: N_9  and  C_10 
REMARK       I    between atoms: C_10  and  N_12 
REMARK    3  A    between atoms: N_12  and  C_13 
REMARK    4  A    between atoms: C_13  and  C_14 
ROOT
HETATM    1  C   UNL     1     -42.033 -45.225  11.074  1.00  0.00     0.128 A 
HETATM    2  C   UNL     1     -40.718 -45.649  11.125  1.00  0.00     0.044 A 
HETATM    3  C   UNL     1     -40.485 -47.020  11.065  1.00  0.00     0.034 A 
HETATM    4  C   UNL     1     -41.551 -47.915  10.935  1.00  0.00     0.051 A 
HETATM    5  C   UNL     1     -42.839 -47.373  10.949  1.00  0.00     0.118 A 
HETATM    6  N   UNL     1     -43.117 -46.043  11.010  1.00  0.00    -0.355 N 
ATOM      7  HN  UNL     1     -44.071 -45.685  11.007  1.00  0.00     0.166 HD
ENDROOT
BRANCH   4   8
HETATM    8  N   UNL     1     -41.371 -49.309  10.768  1.00  0.00    -0.308 N 
HETATM    9  C   UNL     1     -41.181 -50.197  11.808  1.00  0.00     0.320 C 
HETATM   10  O   UNL     1     -41.139 -49.898  12.997  1.00  0.00    -0.247 OA
HETATM   11  N   UNL     1     -40.981 -51.485  11.381  1.00  0.00    -0.342 N 
HETATM   12  H   UNL     1     -41.354 -51.763  10.487  1.00  0.00     0.164 HD
HETATM   13  H   UNL     1     -41.098 -49.641   9.854  1.00  0.00     0.170 HD
BRANCH  11  14
HETATM   14  C   UNL     1     -40.761 -52.526  12.366  1.00  0.00     0.129 C 
BRANCH  14  15
HETATM   15  C   UNL     1     -42.062 -53.154  12.768  1.00  0.00     0.003 A 
HETATM   16  C   UNL     1     -42.579 -52.953  14.172  1.00  0.00     0.007 A 
HETATM   17  C   UNL     1     -42.094 -54.306  13.740  1.00  0.00     0.007 A 
ENDBRANCH  14  15
ENDBRANCH  11  14
ENDBRANCH   4   8
BRANCH   1  18
HETATM   18  S   UNL     1     -42.367 -43.480  11.042  1.00  0.00     0.187 S 
HETATM   19  C   UNL     1     -42.841 -43.055  12.694  1.00  0.00     0.168 C 
HETATM   20  O   UNL     1     -43.521 -43.282  10.187  1.00  0.00    -0.222 OA
HETATM   21  O   UNL     1     -41.107 -42.811  10.758  1.00  0.00    -0.222 OA
ENDBRANCH   1  18
TORSDOF 4
ENDMDL
MODEL 4
REMARK VINA RESULT:      -5.6      3.681      7.916
REMARK  4 active torsions:
REMARK  status: ('A' for Active; 'I' for Inactive)
REMARK    1  A    between atoms: S_2  and  C_5 
REMARK    2  A    between atoms: C_8  and  N_9 
REMARK       I    between atoms: N_9  and  C_10 
REMARK       I    between atoms: C_10  and  N_12 
REMARK    3  A    between atoms: N_12  and  C_13 
REMARK    4  A    between atoms: C_13  and  C_14 
ROOT
HETATM    1  C   UNL     1     -39.778 -53.476  14.350  1.00  0.00     0.128 A 
HETATM    2  C   UNL     1     -40.875 -53.748  13.554  1.00  0.00     0.044 A 
HETATM    3  C   UNL     1     -41.180 -52.833  12.551  1.00  0.00     0.034 A 
HETATM    4  C   UNL     1     -40.381 -51.703  12.356  1.00  0.00     0.051 A 
HETATM    5  C   UNL     1     -39.330 -51.507  13.256  1.00  0.00     0.118 A 
HETATM    6  N   UNL     1     -38.997 -52.368  14.254  1.00  0.00    -0.355 N 
ATOM      7  HN  UNL     1     -38.215 -52.195  14.886  1.00  0.00     0.166 HD
ENDROOT
BRANCH   4   8
HETATM    8  N   UNL     1     -40.580 -50.792  11.290  1.00  0.00    -0.308 N 
HETATM    9  C   UNL     1     -41.242 -49.587  11.414  1.00  0.00     0.320 C 
HETATM   10  O   UNL     1     -41.740 -49.153  12.447  1.00  0.00    -0.247 OA
HETATM   11  N   UNL     1     -41.345 -48.910  10.225  1.00  0.00    -0.342 N 
HETATM   12  H   UNL     1     -40.663 -49.088   9.505  1.00  0.00     0.164 HD
HETATM   13  H   UNL     1     -40.482 -51.143  10.348  1.00  0.00     0.170 HD
BRANCH  11  14
HETATM   14  C   UNL     1     -42.022 -47.628  10.202  1.00  0.00     0.129 C 
BRANCH  14  15
HETATM   15  C   UNL     1     -43.138 -47.639   9.200  1.00  0.00     0.003 A 
HETATM   16  C   UNL     1     -43.805 -46.340   8.820  1.00  0.00     0.007 A 
HETATM   17  C   UNL     1     -44.558 -47.359   9.624  1.00  0.00     0.007 A 
ENDBRANCH  14  15
ENDBRANCH  11  14
ENDBRANCH   4   8
BRANCH   1  18
HETATM   18  S   UNL     1     -39.294 -54.671  15.573  1.00  0.00     0.187 S 
HETATM   19  C   UNL     1     -40.803 -55.361  16.189  1.00  0.00     0.168 C 
HETATM   20  O   UNL     1     -38.668 -53.941  16.659  1.00  0.00    -0.222 OA
HETATM   21  O   UNL     1     -38.577 -55.727  14.877  1.00  0.00    -0.222 OA
ENDBRANCH   1  18
TORSDOF 4
ENDMDL
MODEL 5
REMARK VINA RESULT:      -5.3      4.072      6.473
REMARK  4 active torsions:
REMARK  status: ('A' for Active; 'I' for Inactive)
REMARK    1  A    between atoms: S_2  and  C_5 
REMARK    2  A    between atoms: C_8  and  N_9 
REMARK       I    between atoms: N_9  and  C_10 
REMARK       I    between atoms: C_10  and  N_12 
REMARK    3  A    between atoms: N_12  and  C_13 
REMARK    4  A    between atoms: C_13  and  C_14 
ROOT
HETATM    1  C   UNL     1     -38.249 -48.260  13.910  1.00  0.00     0.128 A 
HETATM    2  C   UNL     1     -38.306 -49.133  12.840  1.00  0.00     0.044 A 
HETATM    3  C   UNL     1     -39.133 -48.788  11.776  1.00  0.00     0.034 A 
HETATM    4  C   UNL     1     -39.850 -47.589  11.796  1.00  0.00     0.051 A 
HETATM    5  C   UNL     1     -39.755 -46.814  12.955  1.00  0.00     0.118 A 
HETATM    6  N   UNL     1     -38.966 -47.111  14.021  1.00  0.00    -0.355 N 
ATOM      7  HN  UNL     1     -38.915 -46.514  14.846  1.00  0.00     0.166 HD
ENDROOT
BRANCH   4   8
HETATM    8  N   UNL     1     -40.627 -47.136  10.703  1.00  0.00    -0.308 N 
HETATM    9  C   UNL     1     -41.816 -47.712  10.304  1.00  0.00     0.320 C 
HETATM   10  O   UNL     1     -42.348 -48.682  10.835  1.00  0.00    -0.247 OA
HETATM   11  N   UNL     1     -42.350 -47.120   9.188  1.00  0.00    -0.342 N 
HETATM   12  H   UNL     1     -42.113 -46.161   8.988  1.00  0.00     0.164 HD
HETATM   13  H   UNL     1     -40.175 -46.547  10.018  1.00  0.00     0.170 HD
BRANCH  11  14
HETATM   14  C   UNL     1     -43.597 -47.626   8.651  1.00  0.00     0.129 C 
BRANCH  14  15
HETATM   15  C   UNL     1     -44.758 -47.137   9.464  1.00  0.00     0.003 A 
HETATM   16  C   UNL     1     -46.115 -47.771   9.275  1.00  0.00     0.007 A 
HETATM   17  C   UNL     1     -45.879 -46.361   8.818  1.00  0.00     0.007 A 
ENDBRANCH  14  15
ENDBRANCH  11  14
ENDBRANCH   4   8
BRANCH   1  18
HETATM   18  S   UNL     1     -37.126 -48.614  15.242  1.00  0.00     0.187 S 
HETATM   19  C   UNL     1     -38.051 -48.352  16.728  1.00  0.00     0.168 C 
HETATM   20  O   UNL     1     -36.077 -47.613  15.192  1.00  0.00    -0.222 OA
HETATM   21  O   UNL     1     -36.807 -50.030  15.164  1.00  0.00    -0.222 OA
ENDBRANCH   1  18
TORSDOF 4
ENDMDL
MODEL 6
REMARK VINA RESULT:      -5.2      3.307      3.775
REMARK  4 active torsions:
REMARK  status: ('A' for Active; 'I' for Inactive)
REMARK    1  A    between atoms: S_2  and  C_5 
REMARK    2  A    between atoms: C_8  and  N_9 
REMARK       I    between atoms: N_9  and  C_10 
REMARK       I    between atoms: C_10  and  N_12 
REMARK    3  A    between atoms: N_12  and  C_13 
REMARK    4  A    between atoms: C_13  and  C_14 
ROOT
HETATM    1  C   UNL     1     -41.194 -45.620  11.512  1.00  0.00     0.128 A 
HETATM    2  C   UNL     1     -40.426 -46.764  11.408  1.00  0.00     0.044 A 
HETATM    3  C   UNL     1     -41.072 -47.986  11.569  1.00  0.00     0.034 A 
HETATM    4  C   UNL     1     -42.449 -48.034  11.804  1.00  0.00     0.051 A 
HETATM    5  C   UNL     1     -43.110 -46.810  11.944  1.00  0.00     0.118 A 
HETATM    6  N   UNL     1     -42.523 -45.593  11.799  1.00  0.00    -0.355 N 
ATOM      7  HN  UNL     1     -43.042 -44.721  11.899  1.00  0.00     0.166 HD
ENDROOT
BRANCH   4   8
HETATM    8  N   UNL     1     -43.178 -49.245  11.877  1.00  0.00    -0.308 N 
HETATM    9  C   UNL     1     -43.593 -49.832  13.055  1.00  0.00     0.320 C 
HETATM   10  O   UNL     1     -43.385 -49.389  14.180  1.00  0.00    -0.247 OA
HETATM   11  N   UNL     1     -44.238 -51.027  12.859  1.00  0.00    -0.342 N 
HETATM   12  H   UNL     1     -44.694 -51.192  11.976  1.00  0.00     0.164 HD
HETATM   13  H   UNL     1     -43.163 -49.850  11.068  1.00  0.00     0.170 HD
BRANCH  11  14
HETATM   14  C   UNL     1     -44.725 -51.760  14.011  1.00  0.00     0.129 C 
BRANCH  14  15
HETATM   15  C   UNL     1     -46.220 -51.674  14.096  1.00  0.00     0.003 A 
HETATM   16  C   UNL     1     -46.869 -51.352  15.420  1.00  0.00     0.007 A 
HETATM   17  C   UNL     1     -47.012 -52.726  14.832  1.00  0.00     0.007 A 
ENDBRANCH  14  15
ENDBRANCH  11  14
ENDBRANCH   4   8
BRANCH   1  18
HETATM   18  S   UNL     1     -40.427 -44.046  11.209  1.00  0.00     0.187 S 
HETATM   19  C   UNL     1     -41.739 -42.858  11.263  1.00  0.00     0.168 C 
HETATM   20  O   UNL     1     -39.915 -44.076   9.852  1.00  0.00    -0.222 OA
HETATM   21  O   UNL     1     -39.544 -43.779  12.332  1.00  0.00    -0.222 OA
ENDBRANCH   1  18
TORSDOF 4
ENDMDL
MODEL 7
REMARK VINA RESULT:      -5.1      3.824      7.992
REMARK  4 active torsions:
REMARK  status: ('A' for Active; 'I' for Inactive)
REMARK    1  A    between atoms: S_2  and  C_5 
REMARK    2  A    between atoms: C_8  and  N_9 
REMARK       I    between atoms: N_9  and  C_10 
REMARK       I    between atoms: C_10  and  N_12 
REMARK    3  A    between atoms: N_12  and  C_13 
REMARK    4  A    between atoms: C_13  and  C_14 
ROOT
HETATM    1  C   UNL     1     -43.718 -53.251  13.621  1.00  0.00     0.128 A 
HETATM    2  C   UNL     1     -44.138 -51.968  13.917  1.00  0.00     0.044 A 
HETATM    3  C   UNL     1     -43.490 -50.918  13.273  1.00  0.00     0.034 A 
HETATM    4  C   UNL     1     -42.474 -51.173  12.348  1.00  0.00     0.051 A 
HETATM    5  C   UNL     1     -42.100 -52.508  12.170  1.00  0.00     0.118 A 
HETATM    6  N   UNL     1     -42.698 -53.566  12.779  1.00  0.00    -0.355 N 
ATOM      7  HN  UNL     1     -42.403 -54.528  12.616  1.00  0.00     0.166 HD
ENDROOT
BRANCH   4   8
HETATM    8  N   UNL     1     -41.849 -50.155  11.588  1.00  0.00    -0.308 N 
HETATM    9  C   UNL     1     -41.051 -49.165  12.125  1.00  0.00     0.320 C 
HETATM   10  O   UNL     1     -40.785 -49.036  13.315  1.00  0.00    -0.247 OA
HETATM   11  N   UNL     1     -40.605 -48.270  11.186  1.00  0.00    -0.342 N 
HETATM   12  H   UNL     1     -40.533 -48.570  10.226  1.00  0.00     0.164 HD
HETATM   13  H   UNL     1     -42.209 -49.973  10.662  1.00  0.00     0.170 HD
BRANCH  11  14
HETATM   14  C   UNL     1     -39.760 -47.171  11.608  1.00  0.00     0.129 C 
BRANCH  14  15
HETATM   15  C   UNL     1     -39.998 -45.964  10.751  1.00  0.00     0.003 A 
HETATM   16  C   UNL     1     -39.651 -44.595  11.286  1.00  0.00     0.007 A 
HETATM   17  C   UNL     1     -41.089 -44.980  11.091  1.00  0.00     0.007 A 
ENDBRANCH  14  15
ENDBRANCH  11  14
ENDBRANCH   4   8
BRANCH   1  18
HETATM   18  S   UNL     1     -44.589 -54.622  14.342  1.00  0.00     0.187 S 
HETATM   19  C   UNL     1     -45.578 -53.930  15.638  1.00  0.00     0.168 C 
HETATM   20  O   UNL     1     -43.596 -55.482  14.957  1.00  0.00    -0.222 OA
HETATM   21  O   UNL     1     -45.491 -55.136  13.325  1.00  0.00    -0.222 OA
ENDBRANCH   1  18
TORSDOF 4
ENDMDL
MODEL 8
REMARK VINA RESULT:      -4.9      4.569      7.616
REMARK  4 active torsions:
REMARK  status: ('A' for Active; 'I' for Inactive)
REMARK    1  A    between atoms: S_2  and  C_5 
REMARK    2  A    between atoms: C_8  and  N_9 
REMARK       I    between atoms: N_9  and  C_10 
REMARK       I    between atoms: C_10  and  N_12 
REMARK    3  A    between atoms: N_12  and  C_13 
REMARK    4  A    between atoms: C_13  and  C_14 
ROOT
HETATM    1  C   UNL     1     -44.788 -52.682  14.887  1.00  0.00     0.128 A 
HETATM    2  C   UNL     1     -45.148 -51.489  14.289  1.00  0.00     0.044 A 
HETATM    3  C   UNL     1     -44.149 -50.538  14.105  1.00  0.00     0.034 A 
HETATM    4  C   UNL     1     -42.834 -50.808  14.493  1.00  0.00     0.051 A 
HETATM    5  C   UNL     1     -42.600 -52.027  15.136  1.00  0.00     0.118 A 
HETATM    6  N   UNL     1     -43.543 -52.984  15.342  1.00  0.00    -0.355 N 
ATOM      7  HN  UNL     1     -43.332 -53.868  15.807  1.00  0.00     0.166 HD
ENDROOT
BRANCH   4   8
HETATM    8  N   UNL     1     -41.758 -49.923  14.241  1.00  0.00    -0.308 N 
HETATM    9  C   UNL     1     -41.087 -49.840  13.037  1.00  0.00     0.320 C 
HETATM   10  O   UNL     1     -41.329 -50.515  12.042  1.00  0.00    -0.247 OA
HETATM   11  N   UNL     1     -40.052 -48.940  13.063  1.00  0.00    -0.342 N 
HETATM   12  H   UNL     1     -40.088 -48.179  13.723  1.00  0.00     0.164 HD
HETATM   13  H   UNL     1     -41.278 -49.529  15.038  1.00  0.00     0.170 HD
BRANCH  11  14
HETATM   14  C   UNL     1     -39.254 -48.752  11.868  1.00  0.00     0.129 C 
BRANCH  14  15
HETATM   15  C   UNL     1     -37.861 -49.265  12.078  1.00  0.00     0.003 A 
HETATM   16  C   UNL     1     -37.200 -50.081  10.993  1.00  0.00     0.007 A 
HETATM   17  C   UNL     1     -37.604 -50.737  12.281  1.00  0.00     0.007 A 
ENDBRANCH  14  15
ENDBRANCH  11  14
ENDBRANCH   4   8
BRANCH   1  18
HETATM   18  S   UNL     1     -46.011 -53.962  15.045  1.00  0.00     0.187 S 
HETATM   19  C   UNL     1     -45.576 -55.188  13.845  1.00  0.00     0.168 C 
HETATM   20  O   UNL     1     -47.283 -53.388  14.648  1.00  0.00    -0.222 OA
HETATM   21  O   UNL     1     -45.841 -54.553  16.362  1.00  0.00    -0.222 OA
ENDBRANCH   1  18
TORSDOF 4
ENDMDL
MODEL 9
REMARK VINA RESULT:      -4.9      4.901      7.112
REMARK  4 active torsions:
REMARK  status: ('A' for Active; 'I' for Inactive)
REMARK    1  A    between atoms: S_2  and  C_5 
REMARK    2  A    between atoms: C_8  and  N_9 
REMARK       I    between atoms: N_9  and  C_10 
REMARK       I    between atoms: C_10  and  N_12 
REMARK    3  A    between atoms: N_12  and  C_13 
REMARK    4  A    between atoms: C_13  and  C_14 
ROOT
HETATM    1  C   UNL     1     -43.574 -53.340  13.185  1.00  0.00     0.128 A 
HETATM    2  C   UNL     1     -42.758 -53.961  14.112  1.00  0.00     0.044 A 
HETATM    3  C   UNL     1     -41.415 -53.596  14.128  1.00  0.00     0.034 A 
HETATM    4  C   UNL     1     -40.936 -52.621  13.248  1.00  0.00     0.051 A 
HETATM    5  C   UNL     1     -41.843 -52.104  12.320  1.00  0.00     0.118 A 
HETATM    6  N   UNL     1     -43.161 -52.432  12.263  1.00  0.00    -0.355 N 
ATOM      7  HN  UNL     1     -43.796 -52.024  11.576  1.00  0.00     0.166 HD
ENDROOT
BRANCH   4   8
HETATM    8  N   UNL     1     -39.605 -52.138  13.284  1.00  0.00    -0.308 N 
HETATM    9  C   UNL     1     -39.199 -51.036  14.010  1.00  0.00     0.320 C 
HETATM   10  O   UNL     1     -39.928 -50.338  14.707  1.00  0.00    -0.247 OA
HETATM   11  N   UNL     1     -37.870 -50.743  13.838  1.00  0.00    -0.342 N 
HETATM   12  H   UNL     1     -37.242 -51.484  13.572  1.00  0.00     0.164 HD
HETATM   13  H   UNL     1     -38.979 -52.432  12.548  1.00  0.00     0.170 HD
BRANCH  11  14
HETATM   14  C   UNL     1     -37.305 -49.605  14.536  1.00  0.00     0.129 C 
BRANCH  14  15
HETATM   15  C   UNL     1     -36.542 -50.055  15.746  1.00  0.00     0.003 A 
HETATM   16  C   UNL     1     -37.011 -49.632  17.118  1.00  0.00     0.007 A 
HETATM   17  C   UNL     1     -35.735 -49.073  16.558  1.00  0.00     0.007 A 
ENDBRANCH  14  15
ENDBRANCH  11  14
ENDBRANCH   4   8
BRANCH   1  18
HETATM   18  S   UNL     1     -45.315 -53.701  13.203  1.00  0.00     0.187 S 
HETATM   19  C   UNL     1     -45.938 -52.971  14.690  1.00  0.00     0.168 C 
HETATM   20  O   UNL     1     -45.451 -55.140  13.328  1.00  0.00    -0.222 OA
HETATM   21  O   UNL     1     -45.908 -52.993  12.081  1.00  0.00    -0.222 OA
ENDBRANCH   1  18
TORSDOF 4
ENDMDL
