MODEL 1
REMARK VINA RESULT:      -5.5      0.000      0.000
REMARK  5 active torsions:
REMARK  status: ('A' for Active; 'I' for Inactive)
REMARK    1  A    between atoms: S_2  and  N_5 
REMARK    2  A    between atoms: C_9  and  C_10 
REMARK       I    between atoms: C_10  and  N_12 
REMARK    3  A    between atoms: N_12  and  C_13 
REMARK    4  A    between atoms: C_13  and  C_14 
REMARK    5  A    between atoms: C_14  and  C_15 
ROOT
HETATM    1  C   UNL     1     -40.054 -49.368  11.902  1.00  0.00     0.236 C 
HETATM    2  O   UNL     1     -39.838 -48.388  12.612  1.00  0.00    -0.272 OA
HETATM    3  N   UNL     1     -41.216 -49.519  11.172  1.00  0.00    -0.359 N 
HETATM    4  H   UNL     1     -41.442 -50.439  10.805  1.00  0.00     0.162 HD
ENDROOT
BRANCH   1   5
HETATM    5  C   UNL     1     -39.054 -50.522  11.751  1.00  0.00     0.166 C 
HETATM    6  N   UNL     1     -39.241 -51.618  12.739  1.00  0.00    -0.198 NA
HETATM    7  C   UNL     1     -38.476 -51.271  13.963  1.00  0.00     0.108 C 
HETATM    8  C   UNL     1     -37.519 -50.153  13.559  1.00  0.00     0.018 C 
HETATM    9  C   UNL     1     -37.630 -50.057  12.047  1.00  0.00     0.031 C 
BRANCH   6  10
HETATM   10  S   UNL     1     -40.799 -52.226  12.913  1.00  0.00     0.208 S 
HETATM   11  C   UNL     1     -40.486 -53.795  13.700  1.00  0.00     0.180 C 
HETATM   12  O   UNL     1     -41.300 -52.467  11.577  1.00  0.00    -0.212 OA
HETATM   13  O   UNL     1     -41.528 -51.387  13.837  1.00  0.00    -0.212 OA
ENDBRANCH   6  10
ENDBRANCH   1   5
BRANCH   3  14
HETATM   14  C   UNL     1     -42.295 -48.551  11.286  1.00  0.00     0.128 C 
BRANCH  14  15
HETATM   15  C   UNL     1     -42.330 -47.580  10.106  1.00  0.00     0.076 C 
BRANCH  15  16
HETATM   16  C   UNL     1     -41.660 -46.277  10.442  1.00  0.00     0.010 A 
HETATM   17  C   UNL     1     -42.407 -45.199  10.909  1.00  0.00     0.025 A 
HETATM   18  C   UNL     1     -41.746 -44.013  11.222  1.00  0.00     0.003 A 
HETATM   19  C   UNL     1     -40.371 -43.933  11.049  1.00  0.00     0.017 A 
HETATM   20  C   UNL     1     -39.708 -45.048  10.567  1.00  0.00     0.088 A 
HETATM   21  N   UNL     1     -40.318 -46.211  10.254  1.00  0.00    -0.369 N 
ATOM     22  HN  UNL     1     -39.792 -47.006   9.892  1.00  0.00     0.165 HD
ENDBRANCH  15  16
ENDBRANCH  14  15
ENDBRANCH   3  14
TORSDOF 5
ENDMDL
MODEL 2
REMARK VINA RESULT:      -5.4      2.955      4.452
REMARK  5 active torsions:
REMARK  status: ('A' for Active; 'I' for Inactive)
REMARK    1  A    between atoms: S_2  and  N_5 
REMARK    2  A    between atoms: C_9  and  C_10 
REMARK       I    between atoms: C_10  and  N_12 
REMARK    3  A    between atoms: N_12  and  C_13 
REMARK    4  A    between atoms: C_13  and  C_14 
REMARK    5  A    between atoms: C_14  and  C_15 
ROOT
HETATM    1  C   UNL     1     -41.913 -51.997  13.150  1.00  0.00     0.236 C 
HETATM    2  O   UNL     1     -41.604 -51.518  14.239  1.00  0.00    -0.272 OA
HETATM    3  N   UNL     1     -42.298 -51.220  12.076  1.00  0.00    -0.359 N 
HETATM    4  H   UNL     1     -42.767 -51.670  11.294  1.00  0.00     0.162 HD
ENDROOT
BRANCH   1   5
HETATM    5  C   UNL     1     -41.899 -53.505  12.870  1.00  0.00     0.166 C 
HETATM    6  N   UNL     1     -42.949 -54.266  13.599  1.00  0.00    -0.198 NA
HETATM    7  C   UNL     1     -42.412 -54.628  14.935  1.00  0.00     0.108 C 
HETATM    8  C   UNL     1     -40.903 -54.419  14.854  1.00  0.00     0.018 C 
HETATM    9  C   UNL     1     -40.615 -54.148  13.387  1.00  0.00     0.031 C 
BRANCH   6  10
HETATM   10  S   UNL     1     -44.521 -53.677  13.500  1.00  0.00     0.208 S 
HETATM   11  C   UNL     1     -45.476 -55.147  13.824  1.00  0.00     0.180 C 
HETATM   12  O   UNL     1     -44.728 -53.283  12.122  1.00  0.00    -0.212 OA
HETATM   13  O   UNL     1     -44.738 -52.741  14.579  1.00  0.00    -0.212 OA
ENDBRANCH   6  10
ENDBRANCH   1   5
BRANCH   3  14
HETATM   14  C   UNL     1     -42.448 -49.780  12.217  1.00  0.00     0.128 C 
BRANCH  14  15
HETATM   15  C   UNL     1     -41.471 -49.007  11.331  1.00  0.00     0.076 C 
BRANCH  15  16
HETATM   16  C   UNL     1     -40.050 -49.179  11.792  1.00  0.00     0.010 A 
HETATM   17  C   UNL     1     -39.635 -48.651  13.012  1.00  0.00     0.025 A 
HETATM   18  C   UNL     1     -38.313 -48.845  13.409  1.00  0.00     0.003 A 
HETATM   19  C   UNL     1     -37.448 -49.544  12.579  1.00  0.00     0.017 A 
HETATM   20  C   UNL     1     -37.940 -50.023  11.378  1.00  0.00     0.088 A 
HETATM   21  N   UNL     1     -39.214 -49.852  10.964  1.00  0.00    -0.369 N 
ATOM     22  HN  UNL     1     -39.533 -50.215  10.065  1.00  0.00     0.165 HD
ENDBRANCH  15  16
ENDBRANCH  14  15
ENDBRANCH   3  14
TORSDOF 5
ENDMDL
MODEL 3
REMARK VINA RESULT:      -5.4      3.146      7.373
REMARK  5 active torsions:
REMARK  status: ('A' for Active; 'I' for Inactive)
REMARK    1  A    between atoms: S_2  and  N_5 
REMARK    2  A    between atoms: C_9  and  C_10 
REMARK       I    between atoms: C_10  and  N_12 
REMARK    3  A    between atoms: N_12  and  C_13 
REMARK    4  A    between atoms: C_13  and  C_14 
REMARK    5  A    between atoms: C_14  and  C_15 
ROOT
HETATM    1  C   UNL     1     -42.727 -48.195  10.677  1.00  0.00     0.236 C 
HETATM    2  O   UNL     1     -43.610 -47.898  11.480  1.00  0.00    -0.272 OA
HETATM    3  N   UNL     1     -41.833 -49.222  10.899  1.00  0.00    -0.359 N 
HETATM    4  H   UNL     1     -40.992 -49.265  10.330  1.00  0.00     0.162 HD
ENDROOT
BRANCH   1   5
HETATM    5  C   UNL     1     -42.532 -47.458   9.347  1.00  0.00     0.166 C 
HETATM    6  N   UNL     1     -42.303 -45.995   9.493  1.00  0.00    -0.198 NA
HETATM    7  C   UNL     1     -43.625 -45.323   9.535  1.00  0.00     0.108 C 
HETATM    8  C   UNL     1     -44.635 -46.346   9.023  1.00  0.00     0.018 C 
HETATM    9  C   UNL     1     -43.802 -47.504   8.501  1.00  0.00     0.031 C 
BRANCH   6  10
HETATM   10  S   UNL     1     -41.125 -45.517  10.593  1.00  0.00     0.208 S 
HETATM   11  C   UNL     1     -42.119 -44.913  11.944  1.00  0.00     0.180 C 
HETATM   12  O   UNL     1     -40.427 -44.400   9.993  1.00  0.00    -0.212 OA
HETATM   13  O   UNL     1     -40.403 -46.686  11.042  1.00  0.00    -0.212 OA
ENDBRANCH   6  10
ENDBRANCH   1   5
BRANCH   3  14
HETATM   14  C   UNL     1     -41.837 -49.952  12.157  1.00  0.00     0.128 C 
BRANCH  14  15
HETATM   15  C   UNL     1     -41.175 -51.324  12.033  1.00  0.00     0.076 C 
BRANCH  15  16
HETATM   16  C   UNL     1     -42.056 -52.415  12.576  1.00  0.00     0.010 A 
HETATM   17  C   UNL     1     -41.612 -53.228  13.616  1.00  0.00     0.025 A 
HETATM   18  C   UNL     1     -42.464 -54.219  14.100  1.00  0.00     0.003 A 
HETATM   19  C   UNL     1     -43.719 -54.376  13.530  1.00  0.00     0.017 A 
HETATM   20  C   UNL     1     -44.075 -53.533  12.492  1.00  0.00     0.088 A 
HETATM   21  N   UNL     1     -43.274 -52.564  11.999  1.00  0.00    -0.369 N 
ATOM     22  HN  UNL     1     -43.572 -51.970  11.226  1.00  0.00     0.165 HD
ENDBRANCH  15  16
ENDBRANCH  14  15
ENDBRANCH   3  14
TORSDOF 5
ENDMDL
MODEL 4
REMARK VINA RESULT:      -5.3      2.936      3.826
REMARK  5 active torsions:
REMARK  status: ('A' for Active; 'I' for Inactive)
REMARK    1  A    between atoms: S_2  and  N_5 
REMARK    2  A    between atoms: C_9  and  C_10 
REMARK       I    between atoms: C_10  and  N_12 
REMARK    3  A    between atoms: N_12  and  C_13 
REMARK    4  A    between atoms: C_13  and  C_14 
REMARK    5  A    between atoms: C_14  and  C_15 
ROOT
HETATM    1  C   UNL     1     -42.167 -51.733  13.094  1.00  0.00     0.236 C 
HETATM    2  O   UNL     1     -41.799 -51.354  14.205  1.00  0.00    -0.272 OA
HETATM    3  N   UNL     1     -42.666 -50.869  12.140  1.00  0.00    -0.359 N 
HETATM    4  H   UNL     1     -43.171 -51.260  11.349  1.00  0.00     0.162 HD
ENDROOT
BRANCH   1   5
HETATM    5  C   UNL     1     -42.104 -53.200  12.653  1.00  0.00     0.166 C 
HETATM    6  N   UNL     1     -43.042 -54.093  13.384  1.00  0.00    -0.198 NA
HETATM    7  C   UNL     1     -42.366 -54.558  14.620  1.00  0.00     0.108 C 
HETATM    8  C   UNL     1     -40.883 -54.253  14.431  1.00  0.00     0.018 C 
HETATM    9  C   UNL     1     -40.747 -53.816  12.982  1.00  0.00     0.031 C 
BRANCH   6  10
HETATM   10  S   UNL     1     -44.644 -53.591  13.487  1.00  0.00     0.208 S 
HETATM   11  C   UNL     1     -45.483 -55.131  13.808  1.00  0.00     0.180 C 
HETATM   12  O   UNL     1     -45.016 -53.125  12.167  1.00  0.00    -0.212 OA
HETATM   13  O   UNL     1     -44.793 -52.737  14.642  1.00  0.00    -0.212 OA
ENDBRANCH   6  10
ENDBRANCH   1   5
BRANCH   3  14
HETATM   14  C   UNL     1     -42.871 -49.462  12.446  1.00  0.00     0.128 C 
BRANCH  14  15
HETATM   15  C   UNL     1     -41.828 -48.566  11.780  1.00  0.00     0.076 C 
BRANCH  15  16
HETATM   16  C   UNL     1     -42.443 -47.693  10.720  1.00  0.00     0.010 A 
HETATM   17  C   UNL     1     -42.608 -46.328  10.940  1.00  0.00     0.025 A 
HETATM   18  C   UNL     1     -43.169 -45.552   9.927  1.00  0.00     0.003 A 
HETATM   19  C   UNL     1     -43.557 -46.158   8.741  1.00  0.00     0.017 A 
HETATM   20  C   UNL     1     -43.369 -47.523   8.612  1.00  0.00     0.088 A 
HETATM   21  N   UNL     1     -42.829 -48.302   9.572  1.00  0.00    -0.369 N 
ATOM     22  HN  UNL     1     -42.716 -49.308   9.439  1.00  0.00     0.165 HD
ENDBRANCH  15  16
ENDBRANCH  14  15
ENDBRANCH   3  14
TORSDOF 5
ENDMDL
MODEL 5
REMARK VINA RESULT:      -5.3      2.732      6.353
REMARK  5 active torsions:
REMARK  status: ('A' for Active; 'I' for Inactive)
REMARK    1  A    between atoms: S_2  and  N_5 
REMARK    2  A    between atoms: C_9  and  C_10 
REMARK       I    between atoms: C_10  and  N_12 
REMARK    3  A    between atoms: N_12  and  C_13 
REMARK    4  A    between atoms: C_13  and  C_14 
REMARK    5  A    between atoms: C_14  and  C_15 
ROOT
HETATM    1  C   UNL     1     -39.197 -51.604  13.974  1.00  0.00     0.236 C 
HETATM    2  O   UNL     1     -38.205 -52.008  13.370  1.00  0.00    -0.272 OA
HETATM    3  N   UNL     1     -40.164 -52.455  14.471  1.00  0.00    -0.359 N 
HETATM    4  H   UNL     1     -41.063 -52.063  14.740  1.00  0.00     0.162 HD
ENDROOT
BRANCH   1   5
HETATM    5  C   UNL     1     -39.460 -50.117  14.241  1.00  0.00     0.166 C 
HETATM    6  N   UNL     1     -40.141 -49.413  13.122  1.00  0.00    -0.198 NA
HETATM    7  C   UNL     1     -39.101 -48.938  12.175  1.00  0.00     0.108 C 
HETATM    8  C   UNL     1     -37.776 -49.020  12.928  1.00  0.00     0.018 C 
HETATM    9  C   UNL     1     -38.152 -49.341  14.365  1.00  0.00     0.031 C 
BRANCH   6  10
HETATM   10  S   UNL     1     -41.523 -50.138  12.496  1.00  0.00     0.208 S 
HETATM   11  C   UNL     1     -42.272 -48.782  11.613  1.00  0.00     0.180 C 
HETATM   12  O   UNL     1     -42.360 -50.476  13.627  1.00  0.00    -0.212 OA
HETATM   13  O   UNL     1     -41.129 -51.147  11.539  1.00  0.00    -0.212 OA
ENDBRANCH   6  10
ENDBRANCH   1   5
BRANCH   3  14
HETATM   14  C   UNL     1     -40.098 -53.885  14.216  1.00  0.00     0.128 C 
BRANCH  14  15
HETATM   15  C   UNL     1     -40.914 -54.293  12.989  1.00  0.00     0.076 C 
BRANCH  15  16
HETATM   16  C   UNL     1     -42.389 -54.121  13.224  1.00  0.00     0.010 A 
HETATM   17  C   UNL     1     -42.999 -54.698  14.334  1.00  0.00     0.025 A 
HETATM   18  C   UNL     1     -44.366 -54.504  14.522  1.00  0.00     0.003 A 
HETATM   19  C   UNL     1     -45.081 -53.755  13.598  1.00  0.00     0.017 A 
HETATM   20  C   UNL     1     -44.398 -53.228  12.516  1.00  0.00     0.088 A 
HETATM   21  N   UNL     1     -43.076 -53.398  12.304  1.00  0.00    -0.369 N 
ATOM     22  HN  UNL     1     -42.613 -53.000  11.487  1.00  0.00     0.165 HD
ENDBRANCH  15  16
ENDBRANCH  14  15
ENDBRANCH   3  14
TORSDOF 5
ENDMDL
MODEL 6
REMARK VINA RESULT:      -5.2      3.907      7.203
REMARK  5 active torsions:
REMARK  status: ('A' for Active; 'I' for Inactive)
REMARK    1  A    between atoms: S_2  and  N_5 
REMARK    2  A    between atoms: C_9  and  C_10 
REMARK       I    between atoms: C_10  and  N_12 
REMARK    3  A    between atoms: N_12  and  C_13 
REMARK    4  A    between atoms: C_13  and  C_14 
REMARK    5  A    between atoms: C_14  and  C_15 
ROOT
HETATM    1  C   UNL     1     -43.024 -48.002  11.003  1.00  0.00     0.236 C 
HETATM    2  O   UNL     1     -43.805 -47.405  11.743  1.00  0.00    -0.272 OA
HETATM    3  N   UNL     1     -42.356 -49.146  11.392  1.00  0.00    -0.359 N 
HETATM    4  H   UNL     1     -41.557 -49.451  10.842  1.00  0.00     0.162 HD
ENDROOT
BRANCH   1   5
HETATM    5  C   UNL     1     -42.716 -47.541   9.574  1.00  0.00     0.166 C 
HETATM    6  N   UNL     1     -42.330 -46.108   9.470  1.00  0.00    -0.198 NA
HETATM    7  C   UNL     1     -43.571 -45.305   9.337  1.00  0.00     0.108 C 
HETATM    8  C   UNL     1     -44.675 -46.292   8.969  1.00  0.00     0.018 C 
HETATM    9  C   UNL     1     -43.963 -47.606   8.695  1.00  0.00     0.031 C 
BRANCH   6  10
HETATM   10  S   UNL     1     -41.134 -45.566  10.520  1.00  0.00     0.208 S 
HETATM   11  C   UNL     1     -42.080 -44.581  11.666  1.00  0.00     0.180 C 
HETATM   12  O   UNL     1     -40.276 -44.689   9.751  1.00  0.00    -0.212 OA
HETATM   13  O   UNL     1     -40.587 -46.699  11.231  1.00  0.00    -0.212 OA
ENDBRANCH   6  10
ENDBRANCH   1   5
BRANCH   3  14
HETATM   14  C   UNL     1     -42.476 -49.652  12.751  1.00  0.00     0.128 C 
BRANCH  14  15
HETATM   15  C   UNL     1     -43.038 -51.072  12.792  1.00  0.00     0.076 C 
BRANCH  15  16
HETATM   16  C   UNL     1     -44.280 -51.152  13.637  1.00  0.00     0.010 A 
HETATM   17  C   UNL     1     -45.512 -51.435  13.055  1.00  0.00     0.025 A 
HETATM   18  C   UNL     1     -46.636 -51.514  13.876  1.00  0.00     0.003 A 
HETATM   19  C   UNL     1     -46.500 -51.298  15.239  1.00  0.00     0.017 A 
HETATM   20  C   UNL     1     -45.240 -51.009  15.733  1.00  0.00     0.088 A 
HETATM   21  N   UNL     1     -44.132 -50.925  14.966  1.00  0.00    -0.369 N 
ATOM     22  HN  UNL     1     -43.223 -50.701  15.369  1.00  0.00     0.165 HD
ENDBRANCH  15  16
ENDBRANCH  14  15
ENDBRANCH   3  14
TORSDOF 5
ENDMDL
MODEL 7
REMARK VINA RESULT:      -5.2      2.992      5.187
REMARK  5 active torsions:
REMARK  status: ('A' for Active; 'I' for Inactive)
REMARK    1  A    between atoms: S_2  and  N_5 
REMARK    2  A    between atoms: C_9  and  C_10 
REMARK       I    between atoms: C_10  and  N_12 
REMARK    3  A    between atoms: N_12  and  C_13 
REMARK    4  A    between atoms: C_13  and  C_14 
REMARK    5  A    between atoms: C_14  and  C_15 
ROOT
HETATM    1  C   UNL     1     -40.792 -49.691  12.451  1.00  0.00     0.236 C 
HETATM    2  O   UNL     1     -40.536 -48.711  13.149  1.00  0.00    -0.272 OA
HETATM    3  N   UNL     1     -42.084 -50.082  12.161  1.00  0.00    -0.359 N 
HETATM    4  H   UNL     1     -42.236 -51.017  11.792  1.00  0.00     0.162 HD
ENDROOT
BRANCH   1   5
HETATM    5  C   UNL     1     -39.705 -50.575  11.830  1.00  0.00     0.166 C 
HETATM    6  N   UNL     1     -39.202 -51.642  12.736  1.00  0.00    -0.198 NA
HETATM    7  C   UNL     1     -38.104 -51.072  13.556  1.00  0.00     0.108 C 
HETATM    8  C   UNL     1     -37.692 -49.775  12.865  1.00  0.00     0.018 C 
HETATM    9  C   UNL     1     -38.440 -49.771  11.542  1.00  0.00     0.031 C 
BRANCH   6  10
HETATM   10  S   UNL     1     -40.356 -52.599  13.496  1.00  0.00     0.208 S 
HETATM   11  C   UNL     1     -39.382 -54.005  14.001  1.00  0.00     0.180 C 
HETATM   12  O   UNL     1     -41.285 -53.022  12.469  1.00  0.00    -0.212 OA
HETATM   13  O   UNL     1     -40.823 -51.915  14.681  1.00  0.00    -0.212 OA
ENDBRANCH   6  10
ENDBRANCH   1   5
BRANCH   3  14
HETATM   14  C   UNL     1     -43.220 -49.394  12.755  1.00  0.00     0.128 C 
BRANCH  14  15
HETATM   15  C   UNL     1     -43.661 -50.035  14.070  1.00  0.00     0.076 C 
BRANCH  15  16
HETATM   16  C   UNL     1     -44.376 -51.338  13.839  1.00  0.00     0.010 A 
HETATM   17  C   UNL     1     -45.598 -51.363  13.172  1.00  0.00     0.025 A 
HETATM   18  C   UNL     1     -46.222 -52.592  12.967  1.00  0.00     0.003 A 
HETATM   19  C   UNL     1     -45.619 -53.749  13.439  1.00  0.00     0.017 A 
HETATM   20  C   UNL     1     -44.410 -53.632  14.103  1.00  0.00     0.088 A 
HETATM   21  N   UNL     1     -43.781 -52.458  14.319  1.00  0.00    -0.369 N 
ATOM     22  HN  UNL     1     -42.894 -52.415  14.822  1.00  0.00     0.165 HD
ENDBRANCH  15  16
ENDBRANCH  14  15
ENDBRANCH   3  14
TORSDOF 5
ENDMDL
MODEL 8
REMARK VINA RESULT:      -5.2      3.804      6.269
REMARK  5 active torsions:
REMARK  status: ('A' for Active; 'I' for Inactive)
REMARK    1  A    between atoms: S_2  and  N_5 
REMARK    2  A    between atoms: C_9  and  C_10 
REMARK       I    between atoms: C_10  and  N_12 
REMARK    3  A    between atoms: N_12  and  C_13 
REMARK    4  A    between atoms: C_13  and  C_14 
REMARK    5  A    between atoms: C_14  and  C_15 
ROOT
HETATM    1  C   UNL     1     -41.600 -50.505  12.243  1.00  0.00     0.236 C 
HETATM    2  O   UNL     1     -41.869 -50.016  13.338  1.00  0.00    -0.272 OA
HETATM    3  N   UNL     1     -41.993 -51.777  11.878  1.00  0.00    -0.359 N 
HETATM    4  H   UNL     1     -41.544 -52.212  11.077  1.00  0.00     0.162 HD
ENDROOT
BRANCH   1   5
HETATM    5  C   UNL     1     -40.804 -49.754  11.169  1.00  0.00     0.166 C 
HETATM    6  N   UNL     1     -39.460 -49.302  11.617  1.00  0.00    -0.198 NA
HETATM    7  C   UNL     1     -39.612 -47.975  12.266  1.00  0.00     0.108 C 
HETATM    8  C   UNL     1     -40.989 -47.461  11.857  1.00  0.00     0.018 C 
HETATM    9  C   UNL     1     -41.484 -48.437  10.802  1.00  0.00     0.031 C 
BRANCH   6  10
HETATM   10  S   UNL     1     -38.481 -50.449  12.360  1.00  0.00     0.208 S 
HETATM   11  C   UNL     1     -38.387 -49.818  14.025  1.00  0.00     0.180 C 
HETATM   12  O   UNL     1     -37.175 -50.338  11.747  1.00  0.00    -0.212 OA
HETATM   13  O   UNL     1     -39.181 -51.713  12.387  1.00  0.00    -0.212 OA
ENDBRANCH   6  10
ENDBRANCH   1   5
BRANCH   3  14
HETATM   14  C   UNL     1     -42.675 -52.645  12.826  1.00  0.00     0.128 C 
BRANCH  14  15
HETATM   15  C   UNL     1     -44.035 -53.111  12.308  1.00  0.00     0.076 C 
BRANCH  15  16
HETATM   16  C   UNL     1     -45.128 -52.850  13.308  1.00  0.00     0.010 A 
HETATM   17  C   UNL     1     -45.641 -51.566  13.473  1.00  0.00     0.025 A 
HETATM   18  C   UNL     1     -46.662 -51.369  14.400  1.00  0.00     0.003 A 
HETATM   19  C   UNL     1     -47.129 -52.446  15.139  1.00  0.00     0.017 A 
HETATM   20  C   UNL     1     -46.554 -53.686  14.922  1.00  0.00     0.088 A 
HETATM   21  N   UNL     1     -45.564 -53.911  14.032  1.00  0.00    -0.369 N 
ATOM     22  HN  UNL     1     -45.160 -54.840  13.909  1.00  0.00     0.165 HD
ENDBRANCH  15  16
ENDBRANCH  14  15
ENDBRANCH   3  14
TORSDOF 5
ENDMDL
MODEL 9
REMARK VINA RESULT:      -5.2      1.800      2.974
REMARK  5 active torsions:
REMARK  status: ('A' for Active; 'I' for Inactive)
REMARK    1  A    between atoms: S_2  and  N_5 
REMARK    2  A    between atoms: C_9  and  C_10 
REMARK       I    between atoms: C_10  and  N_12 
REMARK    3  A    between atoms: N_12  and  C_13 
REMARK    4  A    between atoms: C_13  and  C_14 
REMARK    5  A    between atoms: C_14  and  C_15 
ROOT
HETATM    1  C   UNL     1     -40.049 -49.237  12.163  1.00  0.00     0.236 C 
HETATM    2  O   UNL     1     -39.838 -48.619  13.205  1.00  0.00    -0.272 OA
HETATM    3  N   UNL     1     -41.074 -48.912  11.299  1.00  0.00    -0.359 N 
HETATM    4  H   UNL     1     -41.348 -49.591  10.594  1.00  0.00     0.162 HD
ENDROOT
BRANCH   1   5
HETATM    5  C   UNL     1     -39.194 -50.429  11.716  1.00  0.00     0.166 C 
HETATM    6  N   UNL     1     -39.338 -51.634  12.576  1.00  0.00    -0.198 NA
HETATM    7  C   UNL     1     -38.375 -51.516  13.700  1.00  0.00     0.108 C 
HETATM    8  C   UNL     1     -37.386 -50.427  13.295  1.00  0.00     0.018 C 
HETATM    9  C   UNL     1     -37.705 -50.116  11.842  1.00  0.00     0.031 C 
BRANCH   6  10
HETATM   10  S   UNL     1     -40.904 -52.144  12.913  1.00  0.00     0.208 S 
HETATM   11  C   UNL     1     -40.662 -53.888  13.190  1.00  0.00     0.180 C 
HETATM   12  O   UNL     1     -41.667 -51.968  11.695  1.00  0.00    -0.212 OA
HETATM   13  O   UNL     1     -41.337 -51.538  14.151  1.00  0.00    -0.212 OA
ENDBRANCH   6  10
ENDBRANCH   1   5
BRANCH   3  14
HETATM   14  C   UNL     1     -42.025 -47.863  11.634  1.00  0.00     0.128 C 
BRANCH  14  15
HETATM   15  C   UNL     1     -42.263 -46.903  10.469  1.00  0.00     0.076 C 
BRANCH  15  16
HETATM   16  C   UNL     1     -43.444 -47.323   9.638  1.00  0.00     0.010 A 
HETATM   17  C   UNL     1     -43.263 -47.775   8.334  1.00  0.00     0.025 A 
HETATM   18  C   UNL     1     -44.382 -48.168   7.602  1.00  0.00     0.003 A 
HETATM   19  C   UNL     1     -45.640 -48.086   8.184  1.00  0.00     0.017 A 
HETATM   20  C   UNL     1     -45.729 -47.613   9.481  1.00  0.00     0.088 A 
HETATM   21  N   UNL     1     -44.666 -47.224  10.216  1.00  0.00    -0.369 N 
ATOM     22  HN  UNL     1     -44.778 -46.872  11.167  1.00  0.00     0.165 HD
ENDBRANCH  15  16
ENDBRANCH  14  15
ENDBRANCH   3  14
TORSDOF 5
ENDMDL
