MODEL 1
REMARK VINA RESULT:      -6.5      0.000      0.000
REMARK  4 active torsions:
REMARK  status: ('A' for Active; 'I' for Inactive)
REMARK    1  A    between atoms: C_2  and  N_3 
REMARK    2  A    between atoms: C_2  and  C_14 
REMARK       I    between atoms: N_3  and  C_4 
REMARK       I    between atoms: C_4  and  N_6 
REMARK    3  A    between atoms: N_6  and  C_7 
REMARK       I    between atoms: C_14  and  N_16 
REMARK    4  A    between atoms: N_16  and  C_17 
ROOT
HETATM    1  N   UNL     1     -40.653 -49.954  11.122  1.00  0.00    -0.330 N 
HETATM    2  C   UNL     1     -41.716 -49.081  11.113  1.00  0.00     0.321 C 
HETATM    3  O   UNL     1     -42.470 -48.991  12.078  1.00  0.00    -0.247 OA
HETATM    4  N   UNL     1     -41.782 -48.356   9.947  1.00  0.00    -0.308 N 
HETATM    5  H   UNL     1     -40.369 -50.343  10.235  1.00  0.00     0.165 HD
HETATM    6  H   UNL     1     -40.994 -48.444   9.323  1.00  0.00     0.170 HD
ENDROOT
BRANCH   1   7
HETATM    7  C   UNL     1     -40.359 -50.754  12.318  1.00  0.00     0.174 C 
HETATM    8  C   UNL     1     -38.850 -50.880  12.498  1.00  0.00     0.042 C 
BRANCH   7   9
HETATM    9  C   UNL     1     -41.021 -52.155  12.283  1.00  0.00     0.240 C 
HETATM   10  O   UNL     1     -40.388 -53.180  12.033  1.00  0.00    -0.271 OA
HETATM   11  N   UNL     1     -42.351 -52.182  12.656  1.00  0.00    -0.355 N 
HETATM   12  H   UNL     1     -42.724 -51.333  13.087  1.00  0.00     0.162 HD
BRANCH  11  13
HETATM   13  C   UNL     1     -43.058 -53.434  12.838  1.00  0.00     0.084 C 
HETATM   14  C   UNL     1     -44.551 -53.336  12.495  1.00  0.00     0.025 C 
HETATM   15  C   UNL     1     -45.295 -54.169  13.536  1.00  0.00     0.002 C 
HETATM   16  C   UNL     1     -44.222 -54.874  14.350  1.00  0.00     0.002 C 
HETATM   17  C   UNL     1     -43.031 -53.931  14.282  1.00  0.00     0.025 C 
ENDBRANCH  11  13
ENDBRANCH   7   9
ENDBRANCH   1   7
BRANCH   4  18
HETATM   18  C   UNL     1     -42.726 -47.344   9.648  1.00  0.00     0.051 A 
HETATM   19  C   UNL     1     -43.913 -47.563   8.951  1.00  0.00     0.032 A 
HETATM   20  C   UNL     1     -44.805 -46.513   8.741  1.00  0.00     0.019 A 
HETATM   21  C   UNL     1     -44.479 -45.260   9.228  1.00  0.00     0.088 A 
HETATM   22  N   UNL     1     -43.330 -44.994   9.887  1.00  0.00    -0.373 N 
HETATM   23  C   UNL     1     -42.486 -46.039  10.077  1.00  0.00     0.117 A 
ATOM     24  HN  UNL     1     -43.109 -44.056  10.223  1.00  0.00     0.164 HD
ENDBRANCH   4  18
TORSDOF 4
ENDMDL
MODEL 2
REMARK VINA RESULT:      -6.3      3.032      8.057
REMARK  4 active torsions:
REMARK  status: ('A' for Active; 'I' for Inactive)
REMARK    1  A    between atoms: C_2  and  N_3 
REMARK    2  A    between atoms: C_2  and  C_14 
REMARK       I    between atoms: N_3  and  C_4 
REMARK       I    between atoms: C_4  and  N_6 
REMARK    3  A    between atoms: N_6  and  C_7 
REMARK       I    between atoms: C_14  and  N_16 
REMARK    4  A    between atoms: N_16  and  C_17 
ROOT
HETATM    1  N   UNL     1     -42.533 -48.221   9.987  1.00  0.00    -0.330 N 
HETATM    2  C   UNL     1     -41.666 -48.529  11.009  1.00  0.00     0.321 C 
HETATM    3  O   UNL     1     -41.745 -47.966  12.098  1.00  0.00    -0.247 OA
HETATM    4  N   UNL     1     -40.776 -49.515  10.656  1.00  0.00    -0.308 N 
HETATM    5  H   UNL     1     -42.185 -48.312   9.044  1.00  0.00     0.165 HD
HETATM    6  H   UNL     1     -40.949 -49.976   9.775  1.00  0.00     0.170 HD
ENDROOT
BRANCH   1   7
HETATM    7  C   UNL     1     -43.618 -47.255  10.199  1.00  0.00     0.174 C 
HETATM    8  C   UNL     1     -44.783 -47.572   9.267  1.00  0.00     0.042 C 
BRANCH   7   9
HETATM    9  C   UNL     1     -43.161 -45.785  10.016  1.00  0.00     0.240 C 
HETATM   10  O   UNL     1     -43.292 -45.179   8.953  1.00  0.00    -0.271 OA
HETATM   11  N   UNL     1     -42.692 -45.173  11.162  1.00  0.00    -0.355 N 
HETATM   12  H   UNL     1     -42.854 -45.665  12.044  1.00  0.00     0.162 HD
BRANCH  11  13
HETATM   13  C   UNL     1     -42.390 -43.756  11.191  1.00  0.00     0.084 C 
HETATM   14  C   UNL     1     -40.888 -43.459  11.067  1.00  0.00     0.025 C 
HETATM   15  C   UNL     1     -40.592 -42.300  12.016  1.00  0.00     0.002 C 
HETATM   16  C   UNL     1     -41.941 -41.830  12.535  1.00  0.00     0.002 C 
HETATM   17  C   UNL     1     -42.804 -43.082  12.497  1.00  0.00     0.025 C 
ENDBRANCH  11  13
ENDBRANCH   7   9
ENDBRANCH   1   7
BRANCH   4  18
HETATM   18  C   UNL     1     -39.791 -50.088  11.495  1.00  0.00     0.051 A 
HETATM   19  C   UNL     1     -38.455 -49.689  11.517  1.00  0.00     0.032 A 
HETATM   20  C   UNL     1     -37.563 -50.281  12.411  1.00  0.00     0.019 A 
HETATM   21  C   UNL     1     -38.033 -51.270  13.257  1.00  0.00     0.088 A 
HETATM   22  N   UNL     1     -39.312 -51.707  13.254  1.00  0.00    -0.373 N 
HETATM   23  C   UNL     1     -40.153 -51.108  12.375  1.00  0.00     0.117 A 
ATOM     24  HN  UNL     1     -39.627 -52.448  13.880  1.00  0.00     0.164 HD
ENDBRANCH   4  18
TORSDOF 4
ENDMDL
MODEL 3
REMARK VINA RESULT:      -6.0      1.394      6.900
REMARK  4 active torsions:
REMARK  status: ('A' for Active; 'I' for Inactive)
REMARK    1  A    between atoms: C_2  and  N_3 
REMARK    2  A    between atoms: C_2  and  C_14 
REMARK       I    between atoms: N_3  and  C_4 
REMARK       I    between atoms: C_4  and  N_6 
REMARK    3  A    between atoms: N_6  and  C_7 
REMARK       I    between atoms: C_14  and  N_16 
REMARK    4  A    between atoms: N_16  and  C_17 
ROOT
HETATM    1  N   UNL     1     -40.868 -50.906  10.980  1.00  0.00    -0.330 N 
HETATM    2  C   UNL     1     -41.590 -51.385  12.048  1.00  0.00     0.321 C 
HETATM    3  O   UNL     1     -41.693 -50.736  13.085  1.00  0.00    -0.247 OA
HETATM    4  N   UNL     1     -42.161 -52.607  11.782  1.00  0.00    -0.308 N 
HETATM    5  H   UNL     1     -40.419 -51.586  10.385  1.00  0.00     0.165 HD
HETATM    6  H   UNL     1     -42.103 -52.927  10.827  1.00  0.00     0.170 HD
ENDROOT
BRANCH   1   7
HETATM    7  C   UNL     1     -40.257 -49.572  11.035  1.00  0.00     0.174 C 
HETATM    8  C   UNL     1     -39.190 -49.535  12.124  1.00  0.00     0.042 C 
BRANCH   7   9
HETATM    9  C   UNL     1     -41.296 -48.442  11.254  1.00  0.00     0.240 C 
HETATM   10  O   UNL     1     -41.179 -47.598  12.142  1.00  0.00    -0.271 OA
HETATM   11  N   UNL     1     -42.308 -48.390  10.314  1.00  0.00    -0.355 N 
HETATM   12  H   UNL     1     -42.187 -48.965   9.478  1.00  0.00     0.162 HD
BRANCH  11  13
HETATM   13  C   UNL     1     -43.253 -47.291  10.285  1.00  0.00     0.084 C 
HETATM   14  C   UNL     1     -44.676 -47.734   9.914  1.00  0.00     0.025 C 
HETATM   15  C   UNL     1     -45.248 -46.649   9.004  1.00  0.00     0.002 C 
HETATM   16  C   UNL     1     -44.227 -45.522   9.006  1.00  0.00     0.002 C 
HETATM   17  C   UNL     1     -42.902 -46.229   9.246  1.00  0.00     0.025 C 
ENDBRANCH  11  13
ENDBRANCH   7   9
ENDBRANCH   1   7
BRANCH   4  18
HETATM   18  C   UNL     1     -43.001 -53.341  12.653  1.00  0.00     0.051 A 
HETATM   19  C   UNL     1     -42.539 -54.113  13.718  1.00  0.00     0.032 A 
HETATM   20  C   UNL     1     -43.444 -54.768  14.552  1.00  0.00     0.019 A 
HETATM   21  C   UNL     1     -44.797 -54.640  14.291  1.00  0.00     0.088 A 
HETATM   22  N   UNL     1     -45.290 -53.924  13.257  1.00  0.00    -0.373 N 
HETATM   23  C   UNL     1     -44.382 -53.298  12.467  1.00  0.00     0.117 A 
ATOM     24  HN  UNL     1     -46.293 -53.858  13.079  1.00  0.00     0.164 HD
ENDBRANCH   4  18
TORSDOF 4
ENDMDL
MODEL 4
REMARK VINA RESULT:      -6.0      2.228      3.112
REMARK  4 active torsions:
REMARK  status: ('A' for Active; 'I' for Inactive)
REMARK    1  A    between atoms: C_2  and  N_3 
REMARK    2  A    between atoms: C_2  and  C_14 
REMARK       I    between atoms: N_3  and  C_4 
REMARK       I    between atoms: C_4  and  N_6 
REMARK    3  A    between atoms: N_6  and  C_7 
REMARK       I    between atoms: C_14  and  N_16 
REMARK    4  A    between atoms: N_16  and  C_17 
ROOT
HETATM    1  N   UNL     1     -41.510 -51.846  11.873  1.00  0.00    -0.330 N 
HETATM    2  C   UNL     1     -41.566 -50.486  12.071  1.00  0.00     0.321 C 
HETATM    3  O   UNL     1     -41.874 -50.018  13.164  1.00  0.00    -0.247 OA
HETATM    4  N   UNL     1     -41.222 -49.782  10.942  1.00  0.00    -0.308 N 
HETATM    5  H   UNL     1     -41.723 -52.186  10.948  1.00  0.00     0.165 HD
HETATM    6  H   UNL     1     -40.846 -50.324  10.178  1.00  0.00     0.170 HD
ENDROOT
BRANCH   1   7
HETATM    7  C   UNL     1     -41.755 -52.770  12.988  1.00  0.00     0.174 C 
HETATM    8  C   UNL     1     -40.999 -54.074  12.756  1.00  0.00     0.042 C 
BRANCH   7   9
HETATM    9  C   UNL     1     -43.262 -53.050  13.219  1.00  0.00     0.240 C 
HETATM   10  O   UNL     1     -43.875 -53.922  12.605  1.00  0.00    -0.271 OA
HETATM   11  N   UNL     1     -43.842 -52.318  14.238  1.00  0.00    -0.355 N 
HETATM   12  H   UNL     1     -43.207 -51.807  14.855  1.00  0.00     0.162 HD
BRANCH  11  13
HETATM   13  C   UNL     1     -45.194 -52.590  14.686  1.00  0.00     0.084 C 
HETATM   14  C   UNL     1     -46.204 -51.530  14.223  1.00  0.00     0.025 C 
HETATM   15  C   UNL     1     -47.165 -51.304  15.388  1.00  0.00     0.002 C 
HETATM   16  C   UNL     1     -46.811 -52.353  16.430  1.00  0.00     0.002 C 
HETATM   17  C   UNL     1     -45.328 -52.605  16.207  1.00  0.00     0.025 C 
ENDBRANCH  11  13
ENDBRANCH   7   9
ENDBRANCH   1   7
BRANCH   4  18
HETATM   18  C   UNL     1     -41.133 -48.374  10.833  1.00  0.00     0.051 A 
HETATM   19  C   UNL     1     -40.136 -47.605  11.431  1.00  0.00     0.032 A 
HETATM   20  C   UNL     1     -40.102 -46.226  11.231  1.00  0.00     0.019 A 
HETATM   21  C   UNL     1     -41.081 -45.647  10.443  1.00  0.00     0.088 A 
HETATM   22  N   UNL     1     -42.082 -46.347   9.864  1.00  0.00    -0.373 N 
HETATM   23  C   UNL     1     -42.082 -47.687  10.076  1.00  0.00     0.117 A 
ATOM     24  HN  UNL     1     -42.798 -45.892   9.299  1.00  0.00     0.164 HD
ENDBRANCH   4  18
TORSDOF 4
ENDMDL
MODEL 5
REMARK VINA RESULT:      -5.9      2.157      2.472
REMARK  4 active torsions:
REMARK  status: ('A' for Active; 'I' for Inactive)
REMARK    1  A    between atoms: C_2  and  N_3 
REMARK    2  A    between atoms: C_2  and  C_14 
REMARK       I    between atoms: N_3  and  C_4 
REMARK       I    between atoms: C_4  and  N_6 
REMARK    3  A    between atoms: N_6  and  C_7 
REMARK       I    between atoms: C_14  and  N_16 
REMARK    4  A    between atoms: N_16  and  C_17 
ROOT
HETATM    1  N   UNL     1     -40.470 -49.507  10.656  1.00  0.00    -0.330 N 
HETATM    2  C   UNL     1     -41.571 -48.692  10.776  1.00  0.00     0.321 C 
HETATM    3  O   UNL     1     -42.042 -48.421  11.878  1.00  0.00    -0.247 OA
HETATM    4  N   UNL     1     -42.016 -48.237   9.557  1.00  0.00    -0.308 N 
HETATM    5  H   UNL     1     -40.401 -50.068   9.820  1.00  0.00     0.165 HD
HETATM    6  H   UNL     1     -41.421 -48.431   8.766  1.00  0.00     0.170 HD
ENDROOT
BRANCH   1   7
HETATM    7  C   UNL     1     -39.792 -50.020  11.853  1.00  0.00     0.174 C 
HETATM    8  C   UNL     1     -38.293 -50.124  11.595  1.00  0.00     0.042 C 
BRANCH   7   9
HETATM    9  C   UNL     1     -40.357 -51.383  12.328  1.00  0.00     0.240 C 
HETATM   10  O   UNL     1     -41.138 -52.049  11.648  1.00  0.00    -0.271 OA
HETATM   11  N   UNL     1     -39.839 -51.846  13.522  1.00  0.00    -0.355 N 
HETATM   12  H   UNL     1     -39.018 -51.356  13.886  1.00  0.00     0.162 HD
BRANCH  11  13
HETATM   13  C   UNL     1     -40.138 -53.178  14.008  1.00  0.00     0.084 C 
HETATM   14  C   UNL     1     -40.862 -53.175  15.362  1.00  0.00     0.025 C 
HETATM   15  C   UNL     1     -40.280 -54.330  16.173  1.00  0.00     0.002 C 
HETATM   16  C   UNL     1     -39.366 -55.087  15.222  1.00  0.00     0.002 C 
HETATM   17  C   UNL     1     -38.888 -54.023  14.247  1.00  0.00     0.025 C 
ENDBRANCH  11  13
ENDBRANCH   7   9
ENDBRANCH   1   7
BRANCH   4  18
HETATM   18  C   UNL     1     -43.094 -47.345   9.344  1.00  0.00     0.051 A 
HETATM   19  C   UNL     1     -44.361 -47.739   8.915  1.00  0.00     0.032 A 
HETATM   20  C   UNL     1     -45.377 -46.794   8.774  1.00  0.00     0.019 A 
HETATM   21  C   UNL     1     -45.093 -45.470   9.058  1.00  0.00     0.088 A 
HETATM   22  N   UNL     1     -43.875 -45.038   9.452  1.00  0.00    -0.373 N 
HETATM   23  C   UNL     1     -42.911 -45.983   9.581  1.00  0.00     0.117 A 
ATOM     24  HN  UNL     1     -43.690 -44.052   9.641  1.00  0.00     0.164 HD
ENDBRANCH   4  18
TORSDOF 4
ENDMDL
MODEL 6
REMARK VINA RESULT:      -5.8      2.406      3.283
REMARK  4 active torsions:
REMARK  status: ('A' for Active; 'I' for Inactive)
REMARK    1  A    between atoms: C_2  and  N_3 
REMARK    2  A    between atoms: C_2  and  C_14 
REMARK       I    between atoms: N_3  and  C_4 
REMARK       I    between atoms: C_4  and  N_6 
REMARK    3  A    between atoms: N_6  and  C_7 
REMARK       I    between atoms: C_14  and  N_16 
REMARK    4  A    between atoms: N_16  and  C_17 
ROOT
HETATM    1  N   UNL     1     -39.157 -48.484  11.149  1.00  0.00    -0.330 N 
HETATM    2  C   UNL     1     -39.661 -47.302  11.638  1.00  0.00     0.321 C 
HETATM    3  O   UNL     1     -39.442 -46.952  12.796  1.00  0.00    -0.247 OA
HETATM    4  N   UNL     1     -40.375 -46.609  10.690  1.00  0.00    -0.308 N 
HETATM    5  H   UNL     1     -39.696 -48.956  10.438  1.00  0.00     0.165 HD
HETATM    6  H   UNL     1     -40.325 -46.966   9.748  1.00  0.00     0.170 HD
ENDROOT
BRANCH   1   7
HETATM    7  C   UNL     1     -38.288 -49.324  11.983  1.00  0.00     0.174 C 
HETATM    8  C   UNL     1     -37.336 -50.123  11.100  1.00  0.00     0.042 C 
BRANCH   7   9
HETATM    9  C   UNL     1     -39.084 -50.271  12.918  1.00  0.00     0.240 C 
HETATM   10  O   UNL     1     -39.039 -50.181  14.145  1.00  0.00    -0.271 OA
HETATM   11  N   UNL     1     -39.929 -51.153  12.273  1.00  0.00    -0.355 N 
HETATM   12  H   UNL     1     -40.091 -50.988  11.277  1.00  0.00     0.162 HD
BRANCH  11  13
HETATM   13  C   UNL     1     -40.862 -51.980  13.012  1.00  0.00     0.084 C 
HETATM   14  C   UNL     1     -40.304 -53.374  13.335  1.00  0.00     0.025 C 
HETATM   15  C   UNL     1     -41.457 -54.359  13.157  1.00  0.00     0.002 C 
HETATM   16  C   UNL     1     -42.695 -53.511  12.911  1.00  0.00     0.002 C 
HETATM   17  C   UNL     1     -42.154 -52.256  12.246  1.00  0.00     0.025 C 
ENDBRANCH  11  13
ENDBRANCH   7   9
ENDBRANCH   1   7
BRANCH   4  18
HETATM   18  C   UNL     1     -40.977 -45.340  10.863  1.00  0.00     0.051 A 
HETATM   19  C   UNL     1     -40.264 -44.154  11.036  1.00  0.00     0.032 A 
HETATM   20  C   UNL     1     -40.942 -42.942  11.155  1.00  0.00     0.019 A 
HETATM   21  C   UNL     1     -42.325 -42.950  11.108  1.00  0.00     0.088 A 
HETATM   22  N   UNL     1     -43.059 -44.076  10.967  1.00  0.00    -0.373 N 
HETATM   23  C   UNL     1     -42.367 -45.237  10.852  1.00  0.00     0.117 A 
ATOM     24  HN  UNL     1     -44.079 -44.053  10.950  1.00  0.00     0.164 HD
ENDBRANCH   4  18
TORSDOF 4
ENDMDL
MODEL 7
REMARK VINA RESULT:      -5.6      2.276      7.348
REMARK  4 active torsions:
REMARK  status: ('A' for Active; 'I' for Inactive)
REMARK    1  A    between atoms: C_2  and  N_3 
REMARK    2  A    between atoms: C_2  and  C_14 
REMARK       I    between atoms: N_3  and  C_4 
REMARK       I    between atoms: C_4  and  N_6 
REMARK    3  A    between atoms: N_6  and  C_7 
REMARK       I    between atoms: C_14  and  N_16 
REMARK    4  A    between atoms: N_16  and  C_17 
ROOT
HETATM    1  N   UNL     1     -40.993 -51.157  11.191  1.00  0.00    -0.330 N 
HETATM    2  C   UNL     1     -41.838 -51.569  12.194  1.00  0.00     0.321 C 
HETATM    3  O   UNL     1     -41.890 -50.968  13.265  1.00  0.00    -0.247 OA
HETATM    4  N   UNL     1     -42.582 -52.665  11.830  1.00  0.00    -0.308 N 
HETATM    5  H   UNL     1     -40.627 -51.867  10.575  1.00  0.00     0.165 HD
HETATM    6  H   UNL     1     -42.526 -52.938  10.860  1.00  0.00     0.170 HD
ENDROOT
BRANCH   1   7
HETATM    7  C   UNL     1     -40.180 -49.945  11.355  1.00  0.00     0.174 C 
HETATM    8  C   UNL     1     -39.616 -49.887  12.771  1.00  0.00     0.042 C 
BRANCH   7   9
HETATM    9  C   UNL     1     -40.962 -48.646  11.028  1.00  0.00     0.240 C 
HETATM   10  O   UNL     1     -42.180 -48.633  10.855  1.00  0.00    -0.271 OA
HETATM   11  N   UNL     1     -40.206 -47.490  11.049  1.00  0.00    -0.355 N 
HETATM   12  H   UNL     1     -39.267 -47.562  11.446  1.00  0.00     0.162 HD
BRANCH  11  13
HETATM   13  C   UNL     1     -40.823 -46.183  10.933  1.00  0.00     0.084 C 
HETATM   14  C   UNL     1     -39.906 -45.141  10.279  1.00  0.00     0.025 C 
HETATM   15  C   UNL     1     -40.124 -43.831  11.032  1.00  0.00     0.002 C 
HETATM   16  C   UNL     1     -41.282 -44.086  11.984  1.00  0.00     0.002 C 
HETATM   17  C   UNL     1     -41.189 -45.573  12.285  1.00  0.00     0.025 C 
ENDBRANCH  11  13
ENDBRANCH   7   9
ENDBRANCH   1   7
BRANCH   4  18
HETATM   18  C   UNL     1     -43.574 -53.299  12.616  1.00  0.00     0.051 A 
HETATM   19  C   UNL     1     -43.304 -54.264  13.585  1.00  0.00     0.032 A 
HETATM   20  C   UNL     1     -44.342 -54.802  14.344  1.00  0.00     0.019 A 
HETATM   21  C   UNL     1     -45.633 -54.364  14.105  1.00  0.00     0.088 A 
HETATM   22  N   UNL     1     -45.946 -53.450  13.160  1.00  0.00    -0.373 N 
HETATM   23  C   UNL     1     -44.911 -52.945  12.442  1.00  0.00     0.117 A 
ATOM     24  HN  UNL     1     -46.908 -53.155  12.996  1.00  0.00     0.164 HD
ENDBRANCH   4  18
TORSDOF 4
ENDMDL
MODEL 8
REMARK VINA RESULT:      -5.4      3.815      5.935
REMARK  4 active torsions:
REMARK  status: ('A' for Active; 'I' for Inactive)
REMARK    1  A    between atoms: C_2  and  N_3 
REMARK    2  A    between atoms: C_2  and  C_14 
REMARK       I    between atoms: N_3  and  C_4 
REMARK       I    between atoms: C_4  and  N_6 
REMARK    3  A    between atoms: N_6  and  C_7 
REMARK       I    between atoms: C_14  and  N_16 
REMARK    4  A    between atoms: N_16  and  C_17 
ROOT
HETATM    1  N   UNL     1     -42.052 -46.120  11.177  1.00  0.00    -0.330 N 
HETATM    2  C   UNL     1     -41.412 -44.917  10.991  1.00  0.00     0.321 C 
HETATM    3  O   UNL     1     -40.529 -44.794  10.146  1.00  0.00    -0.247 OA
HETATM    4  N   UNL     1     -41.899 -43.936  11.822  1.00  0.00    -0.308 N 
HETATM    5  H   UNL     1     -42.385 -46.327  12.107  1.00  0.00     0.165 HD
HETATM    6  H   UNL     1     -42.729 -44.169  12.345  1.00  0.00     0.170 HD
ENDROOT
BRANCH   1   7
HETATM    7  C   UNL     1     -41.736 -47.270  10.320  1.00  0.00     0.174 C 
HETATM    8  C   UNL     1     -42.954 -47.642   9.483  1.00  0.00     0.042 C 
BRANCH   7   9
HETATM    9  C   UNL     1     -41.231 -48.498  11.121  1.00  0.00     0.240 C 
HETATM   10  O   UNL     1     -41.988 -49.379  11.528  1.00  0.00    -0.271 OA
HETATM   11  N   UNL     1     -39.859 -48.584  11.254  1.00  0.00    -0.355 N 
HETATM   12  H   UNL     1     -39.301 -47.953  10.674  1.00  0.00     0.162 HD
BRANCH  11  13
HETATM   13  C   UNL     1     -39.229 -49.758  11.824  1.00  0.00     0.084 C 
HETATM   14  C   UNL     1     -39.098 -49.686  13.352  1.00  0.00     0.025 C 
HETATM   15  C   UNL     1     -37.737 -50.284  13.703  1.00  0.00     0.002 C 
HETATM   16  C   UNL     1     -37.183 -50.850  12.406  1.00  0.00     0.002 C 
HETATM   17  C   UNL     1     -37.800 -49.970  11.329  1.00  0.00     0.025 C 
ENDBRANCH  11  13
ENDBRANCH   7   9
ENDBRANCH   1   7
BRANCH   4  18
HETATM   18  C   UNL     1     -41.488 -42.582  11.842  1.00  0.00     0.051 A 
HETATM   19  C   UNL     1     -40.537 -42.068  12.723  1.00  0.00     0.032 A 
HETATM   20  C   UNL     1     -40.161 -40.728  12.641  1.00  0.00     0.019 A 
HETATM   21  C   UNL     1     -40.757 -39.931  11.680  1.00  0.00     0.088 A 
HETATM   22  N   UNL     1     -41.700 -40.378  10.822  1.00  0.00    -0.373 N 
HETATM   23  C   UNL     1     -42.041 -41.687  10.927  1.00  0.00     0.117 A 
ATOM     24  HN  UNL     1     -42.133 -39.763  10.132  1.00  0.00     0.164 HD
ENDBRANCH   4  18
TORSDOF 4
ENDMDL
MODEL 9
REMARK VINA RESULT:      -5.4      3.862      5.520
REMARK  4 active torsions:
REMARK  status: ('A' for Active; 'I' for Inactive)
REMARK    1  A    between atoms: C_2  and  N_3 
REMARK    2  A    between atoms: C_2  and  C_14 
REMARK       I    between atoms: N_3  and  C_4 
REMARK       I    between atoms: C_4  and  N_6 
REMARK    3  A    between atoms: N_6  and  C_7 
REMARK       I    between atoms: C_14  and  N_16 
REMARK    4  A    between atoms: N_16  and  C_17 
ROOT
HETATM    1  N   UNL     1     -41.288 -54.128  14.735  1.00  0.00    -0.330 N 
HETATM    2  C   UNL     1     -40.928 -52.833  14.445  1.00  0.00     0.321 C 
HETATM    3  O   UNL     1     -41.306 -51.898  15.147  1.00  0.00    -0.247 OA
HETATM    4  N   UNL     1     -40.116 -52.754  13.339  1.00  0.00    -0.308 N 
HETATM    5  H   UNL     1     -41.382 -54.765  13.958  1.00  0.00     0.165 HD
HETATM    6  H   UNL     1     -39.778 -53.632  12.973  1.00  0.00     0.170 HD
ENDROOT
BRANCH   1   7
HETATM    7  C   UNL     1     -42.080 -54.428  15.934  1.00  0.00     0.174 C 
HETATM    8  C   UNL     1     -41.768 -55.839  16.421  1.00  0.00     0.042 C 
BRANCH   7   9
HETATM    9  C   UNL     1     -43.604 -54.257  15.708  1.00  0.00     0.240 C 
HETATM   10  O   UNL     1     -44.443 -54.688  16.497  1.00  0.00    -0.271 OA
HETATM   11  N   UNL     1     -43.948 -53.493  14.609  1.00  0.00    -0.355 N 
HETATM   12  H   UNL     1     -43.194 -52.969  14.160  1.00  0.00     0.162 HD
BRANCH  11  13
HETATM   13  C   UNL     1     -45.322 -53.100  14.364  1.00  0.00     0.084 C 
HETATM   14  C   UNL     1     -45.630 -52.893  12.874  1.00  0.00     0.025 C 
HETATM   15  C   UNL     1     -46.547 -51.675  12.783  1.00  0.00     0.002 C 
HETATM   16  C   UNL     1     -46.896 -51.307  14.216  1.00  0.00     0.002 C 
HETATM   17  C   UNL     1     -45.690 -51.770  15.018  1.00  0.00     0.025 C 
ENDBRANCH  11  13
ENDBRANCH   7   9
ENDBRANCH   1   7
BRANCH   4  18
HETATM   18  C   UNL     1     -39.537 -51.575  12.812  1.00  0.00     0.051 A 
HETATM   19  C   UNL     1     -38.353 -51.009  13.282  1.00  0.00     0.032 A 
HETATM   20  C   UNL     1     -37.833 -49.868  12.671  1.00  0.00     0.019 A 
HETATM   21  C   UNL     1     -38.522 -49.315  11.607  1.00  0.00     0.088 A 
HETATM   22  N   UNL     1     -39.686 -49.813  11.134  1.00  0.00    -0.373 N 
HETATM   23  C   UNL     1     -40.161 -50.925  11.748  1.00  0.00     0.117 A 
ATOM     24  HN  UNL     1     -40.180 -49.375  10.356  1.00  0.00     0.164 HD
ENDBRANCH   4  18
TORSDOF 4
ENDMDL
