MODEL 1
REMARK VINA RESULT:      -6.5      0.000      0.000
REMARK  7 active torsions:
REMARK  status: ('A' for Active; 'I' for Inactive)
REMARK    1  A    between atoms: C_2  and  N_3 
REMARK    2  A    between atoms: C_2  and  C_19 
REMARK    3  A    between atoms: C_7  and  C_8 
REMARK    4  A    between atoms: C_8  and  N_9 
REMARK    5  A    between atoms: N_9  and  C_10 
REMARK       I    between atoms: C_19  and  N_21 
REMARK    6  A    between atoms: N_21  and  C_22 
REMARK    7  A    between atoms: C_22  and  C_23 
ROOT
HETATM    1  N   UNL     1     -42.774 -54.636  14.617  1.00  0.00     0.106 N 
HETATM    2  C   UNL     1     -41.704 -54.590  15.625  1.00  0.00     0.299 C 
HETATM    3  C   UNL     1     -40.792 -53.357  15.547  1.00  0.00     0.198 C 
HETATM    4  O   UNL     1     -40.308 -53.135  14.214  1.00  0.00    -0.381 OA
HETATM    5  C   UNL     1     -41.418 -53.012  13.295  1.00  0.00     0.163 C 
HETATM    6  C   UNL     1     -42.244 -54.303  13.286  1.00  0.00     0.306 C 
ENDROOT
BRANCH   5   7
HETATM    7  C   UNL     1     -40.881 -52.656  11.905  1.00  0.00     0.127 C 
BRANCH   7   8
HETATM    8  N   UNL     1     -39.812 -51.676  12.112  1.00  0.00    -0.275 NA
HETATM    9  H   UNL     1     -38.968 -51.975  11.624  1.00  0.00     0.129 HD
BRANCH   8  10
HETATM   10  C   UNL     1     -40.119 -50.359  11.755  1.00  0.00     0.094 A 
HETATM   11  C   UNL     1     -39.869 -49.365  12.691  1.00  0.00     0.045 A 
HETATM   12  C   UNL     1     -40.172 -48.045  12.385  1.00  0.00     0.022 A 
HETATM   13  C   UNL     1     -40.720 -47.781  11.151  1.00  0.00     0.107 A 
HETATM   14  N   UNL     1     -40.977 -48.749  10.253  1.00  0.00    -0.311 N 
HETATM   15  N   UNL     1     -40.680 -50.048  10.567  1.00  0.00    -0.290 N 
ATOM     16  HN  UNL     1     -41.387 -48.519   9.348  1.00  0.00     0.186 HD
ATOM     17  HN  UNL     1     -40.886 -50.789   9.897  1.00  0.00     0.188 HD
ENDBRANCH   8  10
ENDBRANCH   7   8
ENDBRANCH   5   7
BRANCH   1  18
HETATM   18  C   UNL     1     -44.076 -54.021  14.968  1.00  0.00     0.310 C 
HETATM   19  C   UNL     1     -44.539 -54.090  16.425  1.00  0.00     0.053 C 
BRANCH  18  20
HETATM   20  C   UNL     1     -45.205 -54.558  14.038  1.00  0.00     0.251 C 
HETATM   21  O   UNL     1     -45.496 -55.751  13.956  1.00  0.00    -0.271 OA
HETATM   22  N   UNL     1     -45.927 -53.654  13.296  1.00  0.00    -0.356 N 
HETATM   23  H   UNL     1     -46.651 -54.070  12.725  1.00  0.00     0.162 HD
BRANCH  22  24
HETATM   24  C   UNL     1     -45.623 -52.250  13.173  1.00  0.00     0.149 C 
BRANCH  24  25
HETATM   25  C   UNL     1     -46.676 -51.441  13.850  1.00  0.00    -0.018 C 
HETATM   26  C   UNL     1     -46.800 -51.369  15.177  1.00  0.00     0.008 C 
ENDBRANCH  24  25
ENDBRANCH  22  24
ENDBRANCH  18  20
ENDBRANCH   1  18
TORSDOF 7
ENDMDL
MODEL 2
REMARK VINA RESULT:      -6.4      1.547      2.010
REMARK  7 active torsions:
REMARK  status: ('A' for Active; 'I' for Inactive)
REMARK    1  A    between atoms: C_2  and  N_3 
REMARK    2  A    between atoms: C_2  and  C_19 
REMARK    3  A    between atoms: C_7  and  C_8 
REMARK    4  A    between atoms: C_8  and  N_9 
REMARK    5  A    between atoms: N_9  and  C_10 
REMARK       I    between atoms: C_19  and  N_21 
REMARK    6  A    between atoms: N_21  and  C_22 
REMARK    7  A    between atoms: C_22  and  C_23 
ROOT
HETATM    1  N   UNL     1     -41.578 -53.694  12.852  1.00  0.00     0.106 N 
HETATM    2  C   UNL     1     -40.466 -54.439  13.461  1.00  0.00     0.299 C 
HETATM    3  C   UNL     1     -39.399 -53.568  14.141  1.00  0.00     0.198 C 
HETATM    4  O   UNL     1     -38.954 -52.505  13.287  1.00  0.00    -0.381 OA
HETATM    5  C   UNL     1     -40.080 -51.701  12.865  1.00  0.00     0.163 C 
HETATM    6  C   UNL     1     -41.073 -52.556  12.070  1.00  0.00     0.306 C 
ENDROOT
BRANCH   5   7
HETATM    7  C   UNL     1     -39.566 -50.505  12.055  1.00  0.00     0.127 C 
BRANCH   7   8
HETATM    8  N   UNL     1     -40.588 -50.217  11.046  1.00  0.00    -0.275 NA
HETATM    9  H   UNL     1     -41.451 -50.708  11.278  1.00  0.00     0.129 HD
BRANCH   8  10
HETATM   10  C   UNL     1     -40.861 -48.863  10.829  1.00  0.00     0.094 A 
HETATM   11  C   UNL     1     -40.215 -47.940  11.641  1.00  0.00     0.045 A 
HETATM   12  C   UNL     1     -40.468 -46.585  11.470  1.00  0.00     0.022 A 
HETATM   13  C   UNL     1     -41.365 -46.216  10.495  1.00  0.00     0.107 A 
HETATM   14  N   UNL     1     -42.002 -47.115   9.722  1.00  0.00    -0.311 N 
HETATM   15  N   UNL     1     -41.751 -48.448   9.902  1.00  0.00    -0.290 N 
ATOM     16  HN  UNL     1     -42.663 -46.806   9.009  1.00  0.00     0.186 HD
ATOM     17  HN  UNL     1     -42.241 -49.135   9.330  1.00  0.00     0.188 HD
ENDBRANCH   8  10
ENDBRANCH   7   8
ENDBRANCH   5   7
BRANCH   1  18
HETATM   18  C   UNL     1     -42.767 -53.423  13.696  1.00  0.00     0.310 C 
HETATM   19  C   UNL     1     -42.991 -54.297  14.932  1.00  0.00     0.053 C 
BRANCH  18  20
HETATM   20  C   UNL     1     -44.062 -53.406  12.831  1.00  0.00     0.251 C 
HETATM   21  O   UNL     1     -44.444 -54.376  12.174  1.00  0.00    -0.271 OA
HETATM   22  N   UNL     1     -44.829 -52.266  12.822  1.00  0.00    -0.356 N 
HETATM   23  H   UNL     1     -45.661 -52.329  12.250  1.00  0.00     0.162 HD
BRANCH  22  24
HETATM   24  C   UNL     1     -44.453 -51.009  13.419  1.00  0.00     0.149 C 
BRANCH  24  25
HETATM   25  C   UNL     1     -45.090 -50.873  14.761  1.00  0.00    -0.018 C 
HETATM   26  C   UNL     1     -46.303 -51.353  15.044  1.00  0.00     0.008 C 
ENDBRANCH  24  25
ENDBRANCH  22  24
ENDBRANCH  18  20
ENDBRANCH   1  18
TORSDOF 7
ENDMDL
MODEL 3
REMARK VINA RESULT:      -6.3      1.470      2.079
REMARK  7 active torsions:
REMARK  status: ('A' for Active; 'I' for Inactive)
REMARK    1  A    between atoms: C_2  and  N_3 
REMARK    2  A    between atoms: C_2  and  C_19 
REMARK    3  A    between atoms: C_7  and  C_8 
REMARK    4  A    between atoms: C_8  and  N_9 
REMARK    5  A    between atoms: N_9  and  C_10 
REMARK       I    between atoms: C_19  and  N_21 
REMARK    6  A    between atoms: N_21  and  C_22 
REMARK    7  A    between atoms: C_22  and  C_23 
ROOT
HETATM    1  N   UNL     1     -42.412 -53.567  13.027  1.00  0.00     0.106 N 
HETATM    2  C   UNL     1     -41.199 -54.290  13.436  1.00  0.00     0.299 C 
HETATM    3  C   UNL     1     -40.017 -53.397  13.841  1.00  0.00     0.198 C 
HETATM    4  O   UNL     1     -39.755 -52.381  12.862  1.00  0.00    -0.381 OA
HETATM    5  C   UNL     1     -40.944 -51.589  12.635  1.00  0.00     0.163 C 
HETATM    6  C   UNL     1     -42.076 -52.474  12.102  1.00  0.00     0.306 C 
ENDROOT
BRANCH   5   7
HETATM    7  C   UNL     1     -40.605 -50.440  11.678  1.00  0.00     0.127 C 
BRANCH   7   8
HETATM    8  N   UNL     1     -41.873 -49.779  11.359  1.00  0.00    -0.275 NA
HETATM    9  H   UNL     1     -42.534 -49.911  12.124  1.00  0.00     0.129 HD
BRANCH   8  10
HETATM   10  C   UNL     1     -41.785 -48.420  11.042  1.00  0.00     0.094 A 
HETATM   11  C   UNL     1     -42.954 -47.673  11.092  1.00  0.00     0.045 A 
HETATM   12  C   UNL     1     -42.916 -46.323  10.771  1.00  0.00     0.022 A 
HETATM   13  C   UNL     1     -41.705 -45.782  10.406  1.00  0.00     0.107 A 
HETATM   14  N   UNL     1     -40.578 -46.514  10.342  1.00  0.00    -0.311 N 
HETATM   15  N   UNL     1     -40.627 -47.845  10.654  1.00  0.00    -0.290 N 
ATOM     16  HN  UNL     1     -39.696 -46.081  10.064  1.00  0.00     0.186 HD
ATOM     17  HN  UNL     1     -39.779 -48.409  10.593  1.00  0.00     0.188 HD
ENDBRANCH   8  10
ENDBRANCH   7   8
ENDBRANCH   5   7
BRANCH   1  18
HETATM   18  C   UNL     1     -43.406 -53.243  14.078  1.00  0.00     0.310 C 
HETATM   19  C   UNL     1     -42.930 -53.187  15.531  1.00  0.00     0.053 C 
BRANCH  18  20
HETATM   20  C   UNL     1     -44.643 -54.183  13.972  1.00  0.00     0.251 C 
HETATM   21  O   UNL     1     -44.661 -55.324  14.435  1.00  0.00    -0.271 OA
HETATM   22  N   UNL     1     -45.777 -53.707  13.358  1.00  0.00    -0.356 N 
HETATM   23  H   UNL     1     -46.545 -54.365  13.336  1.00  0.00     0.162 HD
BRANCH  22  24
HETATM   24  C   UNL     1     -45.873 -52.457  12.647  1.00  0.00     0.149 C 
BRANCH  24  25
HETATM   25  C   UNL     1     -46.595 -51.453  13.480  1.00  0.00    -0.018 C 
HETATM   26  C   UNL     1     -46.866 -51.638  14.774  1.00  0.00     0.008 C 
ENDBRANCH  24  25
ENDBRANCH  22  24
ENDBRANCH  18  20
ENDBRANCH   1  18
TORSDOF 7
ENDMDL
MODEL 4
REMARK VINA RESULT:      -5.7      4.066      8.010
REMARK  7 active torsions:
REMARK  status: ('A' for Active; 'I' for Inactive)
REMARK    1  A    between atoms: C_2  and  N_3 
REMARK    2  A    between atoms: C_2  and  C_19 
REMARK    3  A    between atoms: C_7  and  C_8 
REMARK    4  A    between atoms: C_8  and  N_9 
REMARK    5  A    between atoms: N_9  and  C_10 
REMARK       I    between atoms: C_19  and  N_21 
REMARK    6  A    between atoms: N_21  and  C_22 
REMARK    7  A    between atoms: C_22  and  C_23 
ROOT
HETATM    1  N   UNL     1     -40.487 -45.928  11.500  1.00  0.00     0.106 N 
HETATM    2  C   UNL     1     -41.583 -45.921  10.519  1.00  0.00     0.299 C 
HETATM    3  C   UNL     1     -42.424 -47.205  10.477  1.00  0.00     0.198 C 
HETATM    4  O   UNL     1     -41.602 -48.378  10.381  1.00  0.00    -0.381 OA
HETATM    5  C   UNL     1     -40.660 -48.416  11.478  1.00  0.00     0.163 C 
HETATM    6  C   UNL     1     -39.739 -47.192  11.429  1.00  0.00     0.306 C 
ENDROOT
BRANCH   5   7
HETATM    7  C   UNL     1     -39.879 -49.734  11.422  1.00  0.00     0.127 C 
BRANCH   7   8
HETATM    8  N   UNL     1     -40.864 -50.789  11.168  1.00  0.00    -0.275 NA
HETATM    9  H   UNL     1     -40.861 -51.034  10.178  1.00  0.00     0.129 HD
BRANCH   8  10
HETATM   10  C   UNL     1     -40.725 -51.946  11.940  1.00  0.00     0.094 A 
HETATM   11  C   UNL     1     -40.268 -51.798  13.243  1.00  0.00     0.045 A 
HETATM   12  C   UNL     1     -40.101 -52.921  14.041  1.00  0.00     0.022 A 
HETATM   13  C   UNL     1     -40.394 -54.149  13.493  1.00  0.00     0.107 A 
HETATM   14  N   UNL     1     -40.820 -54.290  12.224  1.00  0.00    -0.311 N 
HETATM   15  N   UNL     1     -40.975 -53.177  11.444  1.00  0.00    -0.290 N 
ATOM     16  HN  UNL     1     -41.026 -55.216  11.849  1.00  0.00     0.186 HD
ATOM     17  HN  UNL     1     -41.283 -53.278  10.477  1.00  0.00     0.188 HD
ENDBRANCH   8  10
ENDBRANCH   7   8
ENDBRANCH   5   7
BRANCH   1  18
HETATM   18  C   UNL     1     -40.781 -45.425  12.863  1.00  0.00     0.310 C 
HETATM   19  C   UNL     1     -41.923 -44.420  13.032  1.00  0.00     0.053 C 
BRANCH  18  20
HETATM   20  C   UNL     1     -39.490 -44.862  13.530  1.00  0.00     0.251 C 
HETATM   21  O   UNL     1     -38.925 -43.839  13.142  1.00  0.00    -0.271 OA
HETATM   22  N   UNL     1     -38.975 -45.523  14.619  1.00  0.00    -0.356 N 
HETATM   23  H   UNL     1     -38.145 -45.096  15.009  1.00  0.00     0.162 HD
BRANCH  22  24
HETATM   24  C   UNL     1     -39.432 -46.799  15.108  1.00  0.00     0.149 C 
BRANCH  24  25
HETATM   25  C   UNL     1     -38.474 -47.869  14.706  1.00  0.00    -0.018 C 
HETATM   26  C   UNL     1     -37.152 -47.687  14.668  1.00  0.00     0.008 C 
ENDBRANCH  24  25
ENDBRANCH  22  24
ENDBRANCH  18  20
ENDBRANCH   1  18
TORSDOF 7
ENDMDL
MODEL 5
REMARK VINA RESULT:      -5.4      2.827      6.780
REMARK  7 active torsions:
REMARK  status: ('A' for Active; 'I' for Inactive)
REMARK    1  A    between atoms: C_2  and  N_3 
REMARK    2  A    between atoms: C_2  and  C_19 
REMARK    3  A    between atoms: C_7  and  C_8 
REMARK    4  A    between atoms: C_8  and  N_9 
REMARK    5  A    between atoms: N_9  and  C_10 
REMARK       I    between atoms: C_19  and  N_21 
REMARK    6  A    between atoms: N_21  and  C_22 
REMARK    7  A    between atoms: C_22  and  C_23 
ROOT
HETATM    1  N   UNL     1     -41.275 -48.195  12.860  1.00  0.00     0.106 N 
HETATM    2  C   UNL     1     -40.071 -48.071  13.695  1.00  0.00     0.299 C 
HETATM    3  C   UNL     1     -38.942 -49.055  13.355  1.00  0.00     0.198 C 
HETATM    4  O   UNL     1     -39.420 -50.405  13.266  1.00  0.00    -0.381 OA
HETATM    5  C   UNL     1     -40.488 -50.493  12.294  1.00  0.00     0.163 C 
HETATM    6  C   UNL     1     -41.663 -49.606  12.719  1.00  0.00     0.306 C 
ENDROOT
BRANCH   5   7
HETATM    7  C   UNL     1     -40.897 -51.961  12.130  1.00  0.00     0.127 C 
BRANCH   7   8
HETATM    8  N   UNL     1     -42.320 -51.959  11.784  1.00  0.00    -0.275 NA
HETATM    9  H   UNL     1     -42.435 -52.146  10.788  1.00  0.00     0.129 HD
BRANCH   8  10
HETATM   10  C   UNL     1     -43.125 -52.832  12.523  1.00  0.00     0.094 A 
HETATM   11  C   UNL     1     -42.503 -53.626  13.476  1.00  0.00     0.045 A 
HETATM   12  C   UNL     1     -43.261 -54.519  14.223  1.00  0.00     0.022 A 
HETATM   13  C   UNL     1     -44.613 -54.580  13.974  1.00  0.00     0.107 A 
HETATM   14  N   UNL     1     -45.209 -53.820  13.037  1.00  0.00    -0.311 N 
HETATM   15  N   UNL     1     -44.452 -52.948  12.302  1.00  0.00    -0.290 N 
ATOM     16  HN  UNL     1     -46.214 -53.892  12.876  1.00  0.00     0.186 HD
ATOM     17  HN  UNL     1     -44.895 -52.380  11.579  1.00  0.00     0.188 HD
ENDBRANCH   8  10
ENDBRANCH   7   8
ENDBRANCH   5   7
BRANCH   1  18
HETATM   18  C   UNL     1     -41.341 -47.378  11.624  1.00  0.00     0.310 C 
HETATM   19  C   UNL     1     -40.059 -46.700  11.136  1.00  0.00     0.053 C 
BRANCH  18  20
HETATM   20  C   UNL     1     -42.482 -46.322  11.725  1.00  0.00     0.251 C 
HETATM   21  O   UNL     1     -42.450 -45.372  12.508  1.00  0.00    -0.271 OA
HETATM   22  N   UNL     1     -43.560 -46.440  10.881  1.00  0.00    -0.356 N 
HETATM   23  H   UNL     1     -44.256 -45.714  10.993  1.00  0.00     0.162 HD
BRANCH  22  24
HETATM   24  C   UNL     1     -43.814 -47.561  10.012  1.00  0.00     0.149 C 
BRANCH  24  25
HETATM   25  C   UNL     1     -43.745 -47.125   8.588  1.00  0.00    -0.018 C 
HETATM   26  C   UNL     1     -43.462 -47.958   7.583  1.00  0.00     0.008 C 
ENDBRANCH  24  25
ENDBRANCH  22  24
ENDBRANCH  18  20
ENDBRANCH   1  18
TORSDOF 7
ENDMDL
MODEL 6
REMARK VINA RESULT:      -5.4      2.846      5.062
REMARK  7 active torsions:
REMARK  status: ('A' for Active; 'I' for Inactive)
REMARK    1  A    between atoms: C_2  and  N_3 
REMARK    2  A    between atoms: C_2  and  C_19 
REMARK    3  A    between atoms: C_7  and  C_8 
REMARK    4  A    between atoms: C_8  and  N_9 
REMARK    5  A    between atoms: N_9  and  C_10 
REMARK       I    between atoms: C_19  and  N_21 
REMARK    6  A    between atoms: N_21  and  C_22 
REMARK    7  A    between atoms: C_22  and  C_23 
ROOT
HETATM    1  N   UNL     1     -39.768 -50.919  12.194  1.00  0.00     0.106 N 
HETATM    2  C   UNL     1     -38.505 -50.234  12.509  1.00  0.00     0.299 C 
HETATM    3  C   UNL     1     -38.645 -48.748  12.867  1.00  0.00     0.198 C 
HETATM    4  O   UNL     1     -39.435 -48.038  11.902  1.00  0.00    -0.381 OA
HETATM    5  C   UNL     1     -40.734 -48.660  11.768  1.00  0.00     0.163 C 
HETATM    6  C   UNL     1     -40.583 -50.105  11.280  1.00  0.00     0.306 C 
ENDROOT
BRANCH   5   7
HETATM    7  C   UNL     1     -41.599 -47.815  10.825  1.00  0.00     0.127 C 
BRANCH   7   8
HETATM    8  N   UNL     1     -40.768 -46.686  10.401  1.00  0.00    -0.275 NA
HETATM    9  H   UNL     1     -40.564 -46.760   9.404  1.00  0.00     0.129 HD
BRANCH   8  10
HETATM   10  C   UNL     1     -41.281 -45.416  10.683  1.00  0.00     0.094 A 
HETATM   11  C   UNL     1     -40.372 -44.394  10.919  1.00  0.00     0.045 A 
HETATM   12  C   UNL     1     -40.837 -43.120  11.217  1.00  0.00     0.022 A 
HETATM   13  C   UNL     1     -42.199 -42.929  11.271  1.00  0.00     0.107 A 
HETATM   14  N   UNL     1     -43.077 -43.926  11.058  1.00  0.00    -0.311 N 
HETATM   15  N   UNL     1     -42.608 -45.180  10.772  1.00  0.00    -0.290 N 
ATOM     16  HN  UNL     1     -44.080 -43.751  11.108  1.00  0.00     0.186 HD
ATOM     17  HN  UNL     1     -43.267 -45.944  10.623  1.00  0.00     0.188 HD
ENDBRANCH   8  10
ENDBRANCH   7   8
ENDBRANCH   5   7
BRANCH   1  18
HETATM   18  C   UNL     1     -40.497 -51.565  13.311  1.00  0.00     0.310 C 
HETATM   19  C   UNL     1     -39.993 -51.328  14.737  1.00  0.00     0.053 C 
BRANCH  18  20
HETATM   20  C   UNL     1     -40.642 -53.095  13.059  1.00  0.00     0.251 C 
HETATM   21  O   UNL     1     -39.714 -53.891  13.205  1.00  0.00    -0.271 OA
HETATM   22  N   UNL     1     -41.871 -53.583  12.684  1.00  0.00    -0.356 N 
HETATM   23  H   UNL     1     -41.896 -54.586  12.549  1.00  0.00     0.162 HD
BRANCH  22  24
HETATM   24  C   UNL     1     -43.014 -52.776  12.337  1.00  0.00     0.149 C 
BRANCH  24  25
HETATM   25  C   UNL     1     -44.268 -53.551  12.555  1.00  0.00    -0.018 C 
HETATM   26  C   UNL     1     -44.414 -54.441  13.539  1.00  0.00     0.008 C 
ENDBRANCH  24  25
ENDBRANCH  22  24
ENDBRANCH  18  20
ENDBRANCH   1  18
TORSDOF 7
ENDMDL
MODEL 7
REMARK VINA RESULT:      -5.3      2.693      4.306
REMARK  7 active torsions:
REMARK  status: ('A' for Active; 'I' for Inactive)
REMARK    1  A    between atoms: C_2  and  N_3 
REMARK    2  A    between atoms: C_2  and  C_19 
REMARK    3  A    between atoms: C_7  and  C_8 
REMARK    4  A    between atoms: C_8  and  N_9 
REMARK    5  A    between atoms: N_9  and  C_10 
REMARK       I    between atoms: C_19  and  N_21 
REMARK    6  A    between atoms: N_21  and  C_22 
REMARK    7  A    between atoms: C_22  and  C_23 
ROOT
HETATM    1  N   UNL     1     -39.224 -51.592  14.266  1.00  0.00     0.106 N 
HETATM    2  C   UNL     1     -39.065 -50.392  15.101  1.00  0.00     0.299 C 
HETATM    3  C   UNL     1     -40.029 -49.242  14.774  1.00  0.00     0.198 C 
HETATM    4  O   UNL     1     -40.046 -48.943  13.371  1.00  0.00    -0.381 OA
HETATM    5  C   UNL     1     -40.385 -50.128  12.614  1.00  0.00     0.163 C 
HETATM    6  C   UNL     1     -39.338 -51.223  12.847  1.00  0.00     0.306 C 
ENDROOT
BRANCH   5   7
HETATM    7  C   UNL     1     -40.516 -49.756  11.132  1.00  0.00     0.127 C 
BRANCH   7   8
HETATM    8  N   UNL     1     -40.943 -48.355  11.093  1.00  0.00    -0.275 NA
HETATM    9  H   UNL     1     -40.161 -47.762  10.818  1.00  0.00     0.129 HD
BRANCH   8  10
HETATM   10  C   UNL     1     -42.049 -48.081  10.283  1.00  0.00     0.094 A 
HETATM   11  C   UNL     1     -43.202 -47.619  10.905  1.00  0.00     0.045 A 
HETATM   12  C   UNL     1     -44.329 -47.348  10.141  1.00  0.00     0.022 A 
HETATM   13  C   UNL     1     -44.252 -47.560   8.784  1.00  0.00     0.107 A 
HETATM   14  N   UNL     1     -43.139 -48.024   8.187  1.00  0.00    -0.311 N 
HETATM   15  N   UNL     1     -42.035 -48.294   8.950  1.00  0.00    -0.290 N 
ATOM     16  HN  UNL     1     -43.117 -48.172   7.178  1.00  0.00     0.186 HD
ATOM     17  HN  UNL     1     -41.193 -48.660   8.506  1.00  0.00     0.188 HD
ENDBRANCH   8  10
ENDBRANCH   7   8
ENDBRANCH   5   7
BRANCH   1  18
HETATM   18  C   UNL     1     -40.159 -52.640  14.740  1.00  0.00     0.310 C 
HETATM   19  C   UNL     1     -40.064 -53.087  16.200  1.00  0.00     0.053 C 
BRANCH  18  20
HETATM   20  C   UNL     1     -40.103 -53.887  13.809  1.00  0.00     0.251 C 
HETATM   21  O   UNL     1     -39.075 -54.539  13.621  1.00  0.00    -0.271 OA
HETATM   22  N   UNL     1     -41.261 -54.297  13.192  1.00  0.00    -0.356 N 
HETATM   23  H   UNL     1     -41.154 -55.119  12.613  1.00  0.00     0.162 HD
BRANCH  22  24
HETATM   24  C   UNL     1     -42.505 -53.570  13.196  1.00  0.00     0.149 C 
BRANCH  24  25
HETATM   25  C   UNL     1     -43.441 -54.170  14.190  1.00  0.00    -0.018 C 
HETATM   26  C   UNL     1     -43.116 -55.210  14.961  1.00  0.00     0.008 C 
ENDBRANCH  24  25
ENDBRANCH  22  24
ENDBRANCH  18  20
ENDBRANCH   1  18
TORSDOF 7
ENDMDL
MODEL 8
REMARK VINA RESULT:      -5.3      2.380      3.553
REMARK  7 active torsions:
REMARK  status: ('A' for Active; 'I' for Inactive)
REMARK    1  A    between atoms: C_2  and  N_3 
REMARK    2  A    between atoms: C_2  and  C_19 
REMARK    3  A    between atoms: C_7  and  C_8 
REMARK    4  A    between atoms: C_8  and  N_9 
REMARK    5  A    between atoms: N_9  and  C_10 
REMARK       I    between atoms: C_19  and  N_21 
REMARK    6  A    between atoms: N_21  and  C_22 
REMARK    7  A    between atoms: C_22  and  C_23 
ROOT
HETATM    1  N   UNL     1     -44.313 -51.371  14.284  1.00  0.00     0.106 N 
HETATM    2  C   UNL     1     -43.933 -50.732  15.553  1.00  0.00     0.299 C 
HETATM    3  C   UNL     1     -43.594 -49.238  15.450  1.00  0.00     0.198 C 
HETATM    4  O   UNL     1     -42.658 -48.974  14.395  1.00  0.00    -0.381 OA
HETATM    5  C   UNL     1     -43.173 -49.471  13.138  1.00  0.00     0.163 C 
HETATM    6  C   UNL     1     -43.380 -50.988  13.213  1.00  0.00     0.306 C 
ENDROOT
BRANCH   5   7
HETATM    7  C   UNL     1     -42.215 -49.071  12.010  1.00  0.00     0.127 C 
BRANCH   7   8
HETATM    8  N   UNL     1     -41.591 -50.309  11.537  1.00  0.00    -0.275 NA
HETATM    9  H   UNL     1     -41.875 -50.494  10.575  1.00  0.00     0.129 HD
BRANCH   8  10
HETATM   10  C   UNL     1     -40.198 -50.362  11.634  1.00  0.00     0.094 A 
HETATM   11  C   UNL     1     -39.656 -50.898  12.795  1.00  0.00     0.045 A 
HETATM   12  C   UNL     1     -38.276 -50.957  12.941  1.00  0.00     0.022 A 
HETATM   13  C   UNL     1     -37.499 -50.468  11.917  1.00  0.00     0.107 A 
HETATM   14  N   UNL     1     -38.029 -49.934  10.800  1.00  0.00    -0.311 N 
HETATM   15  N   UNL     1     -39.389 -49.874  10.669  1.00  0.00    -0.290 N 
ATOM     16  HN  UNL     1     -37.423 -49.578  10.061  1.00  0.00     0.186 HD
ATOM     17  HN  UNL     1     -39.798 -49.457   9.832  1.00  0.00     0.188 HD
ENDBRANCH   8  10
ENDBRANCH   7   8
ENDBRANCH   5   7
BRANCH   1  18
HETATM   18  C   UNL     1     -45.750 -51.376  13.920  1.00  0.00     0.310 C 
HETATM   19  C   UNL     1     -46.782 -51.375  15.050  1.00  0.00     0.053 C 
BRANCH  18  20
HETATM   20  C   UNL     1     -46.062 -52.540  12.933  1.00  0.00     0.251 C 
HETATM   21  O   UNL     1     -46.617 -52.368  11.847  1.00  0.00    -0.271 OA
HETATM   22  N   UNL     1     -45.674 -53.812  13.277  1.00  0.00    -0.356 N 
HETATM   23  H   UNL     1     -45.897 -54.516  12.585  1.00  0.00     0.162 HD
BRANCH  22  24
HETATM   24  C   UNL     1     -45.144 -54.200  14.560  1.00  0.00     0.149 C 
BRANCH  24  25
HETATM   25  C   UNL     1     -43.727 -54.640  14.413  1.00  0.00    -0.018 C 
HETATM   26  C   UNL     1     -43.135 -55.487  15.258  1.00  0.00     0.008 C 
ENDBRANCH  24  25
ENDBRANCH  22  24
ENDBRANCH  18  20
ENDBRANCH   1  18
TORSDOF 7
ENDMDL
MODEL 9
REMARK VINA RESULT:      -5.2      2.149      2.781
REMARK  7 active torsions:
REMARK  status: ('A' for Active; 'I' for Inactive)
REMARK    1  A    between atoms: C_2  and  N_3 
REMARK    2  A    between atoms: C_2  and  C_19 
REMARK    3  A    between atoms: C_7  and  C_8 
REMARK    4  A    between atoms: C_8  and  N_9 
REMARK    5  A    between atoms: N_9  and  C_10 
REMARK       I    between atoms: C_19  and  N_21 
REMARK    6  A    between atoms: N_21  and  C_22 
REMARK    7  A    between atoms: C_22  and  C_23 
ROOT
HETATM    1  N   UNL     1     -39.966 -53.137  15.229  1.00  0.00     0.106 N 
HETATM    2  C   UNL     1     -39.216 -52.891  16.469  1.00  0.00     0.299 C 
HETATM    3  C   UNL     1     -38.569 -51.502  16.570  1.00  0.00     0.198 C 
HETATM    4  O   UNL     1     -37.817 -51.176  15.392  1.00  0.00    -0.381 OA
HETATM    5  C   UNL     1     -38.662 -51.266  14.222  1.00  0.00     0.163 C 
HETATM    6  C   UNL     1     -39.193 -52.694  14.060  1.00  0.00     0.306 C 
ENDROOT
BRANCH   5   7
HETATM    7  C   UNL     1     -37.870 -50.798  12.995  1.00  0.00     0.127 C 
BRANCH   7   8
HETATM    8  N   UNL     1     -38.740 -51.009  11.835  1.00  0.00    -0.275 NA
HETATM    9  H   UNL     1     -39.323 -51.832  11.985  1.00  0.00     0.129 HD
BRANCH   8  10
HETATM   10  C   UNL     1     -39.543 -49.923  11.474  1.00  0.00     0.094 A 
HETATM   11  C   UNL     1     -39.350 -48.728  12.154  1.00  0.00     0.045 A 
HETATM   12  C   UNL     1     -40.135 -47.627  11.838  1.00  0.00     0.022 A 
HETATM   13  C   UNL     1     -41.087 -47.776  10.856  1.00  0.00     0.107 A 
HETATM   14  N   UNL     1     -41.282 -48.941  10.211  1.00  0.00    -0.311 N 
HETATM   15  N   UNL     1     -40.508 -50.022  10.535  1.00  0.00    -0.290 N 
ATOM     16  HN  UNL     1     -41.999 -49.018   9.490  1.00  0.00     0.186 HD
ATOM     17  HN  UNL     1     -40.661 -50.912  10.060  1.00  0.00     0.188 HD
ENDBRANCH   8  10
ENDBRANCH   7   8
ENDBRANCH   5   7
BRANCH   1  18
HETATM   18  C   UNL     1     -41.409 -52.795  15.219  1.00  0.00     0.310 C 
HETATM   19  C   UNL     1     -42.110 -52.579  16.562  1.00  0.00     0.053 C 
BRANCH  18  20
HETATM   20  C   UNL     1     -42.212 -53.828  14.374  1.00  0.00     0.251 C 
HETATM   21  O   UNL     1     -42.421 -54.983  14.746  1.00  0.00    -0.271 OA
HETATM   22  N   UNL     1     -42.737 -53.422  13.170  1.00  0.00    -0.356 N 
HETATM   23  H   UNL     1     -43.256 -54.139  12.681  1.00  0.00     0.162 HD
BRANCH  22  24
HETATM   24  C   UNL     1     -42.468 -52.158  12.532  1.00  0.00     0.149 C 
BRANCH  24  25
HETATM   25  C   UNL     1     -43.472 -51.145  12.967  1.00  0.00    -0.018 C 
HETATM   26  C   UNL     1     -43.136 -49.958  13.476  1.00  0.00     0.008 C 
ENDBRANCH  24  25
ENDBRANCH  22  24
ENDBRANCH  18  20
ENDBRANCH   1  18
TORSDOF 7
ENDMDL
