MODEL 1
REMARK VINA RESULT:      -6.9      0.000      0.000
REMARK  5 active torsions:
REMARK  status: ('A' for Active; 'I' for Inactive)
REMARK    1  A    between atoms: C_2  and  C_3 
REMARK    2  A    between atoms: C_2  and  C_16 
REMARK    3  A    between atoms: C_3  and  N_4 
REMARK       I    between atoms: N_4  and  C_5 
REMARK    4  A    between atoms: C_5  and  C_7 
REMARK    5  A    between atoms: C_8  and  C_9 
ROOT
HETATM    1  N   UNL     1     -41.174 -52.022  13.543  1.00  0.00    -0.360 N 
HETATM    2  C   UNL     1     -41.431 -53.367  13.401  1.00  0.00     0.223 C 
HETATM    3  O   UNL     1     -40.569 -54.234  13.486  1.00  0.00    -0.273 OA
HETATM    4  H   UNL     1     -41.877 -51.358  13.227  1.00  0.00     0.162 HD
ENDROOT
BRANCH   1   5
HETATM    5  C   UNL     1     -39.805 -51.555  13.674  1.00  0.00     0.134 C 
BRANCH   5   6
HETATM    6  C   UNL     1     -39.151 -51.063  12.367  1.00  0.00     0.069 C 
HETATM    7  C   UNL     1     -37.734 -50.530  12.603  1.00  0.00     0.020 C 
BRANCH   6   8
HETATM    8  C   UNL     1     -39.997 -50.019  11.701  1.00  0.00     0.104 A 
HETATM    9  N   UNL     1     -40.493 -50.100  10.481  1.00  0.00    -0.288 N 
HETATM   10  N   UNL     1     -41.216 -48.959  10.233  1.00  0.00    -0.295 N 
ATOM     11  HN  UNL     1     -40.362 -50.877   9.834  1.00  0.00     0.188 HD
HETATM   12  C   UNL     1     -41.147 -48.205  11.302  1.00  0.00     0.200 A 
ATOM     13  HN  UNL     1     -41.716 -48.738   9.373  1.00  0.00     0.187 HD
HETATM   14  N   UNL     1     -40.389 -48.825  12.249  1.00  0.00    -0.335 N 
HETATM   15  C   UNL     1     -40.085 -48.298  13.553  1.00  0.00     0.158 C 
ENDBRANCH   6   8
ENDBRANCH   5   6
ENDBRANCH   1   5
BRANCH   2  16
HETATM   16  C   UNL     1     -42.859 -53.702  13.125  1.00  0.00     0.094 A 
HETATM   17  C   UNL     1     -43.952 -52.711  13.493  1.00  0.00     0.030 A 
HETATM   18  C   UNL     1     -43.851 -54.035  14.232  1.00  0.00    -0.027 A 
HETATM   19  C   UNL     1     -44.834 -55.149  13.957  1.00  0.00     0.016 C 
HETATM   20  C   UNL     1     -43.422 -53.976  15.680  1.00  0.00     0.016 C 
BRANCH  17  21
HETATM   21  C   UNL     1     -45.021 -52.447  12.517  1.00  0.00    -0.019 C 
HETATM   22  C   UNL     1     -46.223 -51.883  12.744  1.00  0.00    -0.091 C 
HETATM   23  C   UNL     1     -46.697 -51.434  14.098  1.00  0.00     0.042 C 
HETATM   24  C   UNL     1     -47.200 -51.647  11.623  1.00  0.00     0.042 C 
ENDBRANCH  17  21
ENDBRANCH   2  16
TORSDOF 5
ENDMDL
MODEL 2
REMARK VINA RESULT:      -6.3      2.228      3.560
REMARK  5 active torsions:
REMARK  status: ('A' for Active; 'I' for Inactive)
REMARK    1  A    between atoms: C_2  and  C_3 
REMARK    2  A    between atoms: C_2  and  C_16 
REMARK    3  A    between atoms: C_3  and  N_4 
REMARK       I    between atoms: N_4  and  C_5 
REMARK    4  A    between atoms: C_5  and  C_7 
REMARK    5  A    between atoms: C_8  and  C_9 
ROOT
HETATM    1  N   UNL     1     -41.467 -50.649  11.774  1.00  0.00    -0.360 N 
HETATM    2  C   UNL     1     -40.535 -51.545  12.247  1.00  0.00     0.223 C 
HETATM    3  O   UNL     1     -39.325 -51.358  12.189  1.00  0.00    -0.273 OA
HETATM    4  H   UNL     1     -42.423 -50.970  11.637  1.00  0.00     0.162 HD
ENDROOT
BRANCH   1   5
HETATM    5  C   UNL     1     -41.035 -49.468  11.048  1.00  0.00     0.134 C 
BRANCH   5   6
HETATM    6  C   UNL     1     -41.840 -48.186  11.337  1.00  0.00     0.069 C 
HETATM    7  C   UNL     1     -42.958 -48.431  12.354  1.00  0.00     0.020 C 
BRANCH   6   8
HETATM    8  C   UNL     1     -42.402 -47.606  10.073  1.00  0.00     0.104 A 
HETATM    9  N   UNL     1     -42.694 -48.287   8.981  1.00  0.00    -0.288 N 
HETATM   10  N   UNL     1     -43.191 -47.411   8.048  1.00  0.00    -0.295 N 
ATOM     11  HN  UNL     1     -42.572 -49.291   8.854  1.00  0.00     0.188 HD
HETATM   12  C   UNL     1     -43.193 -46.216   8.584  1.00  0.00     0.200 A 
ATOM     13  HN  UNL     1     -43.504 -47.648   7.106  1.00  0.00     0.187 HD
HETATM   14  N   UNL     1     -42.702 -46.286   9.853  1.00  0.00    -0.335 N 
HETATM   15  C   UNL     1     -42.547 -45.173  10.751  1.00  0.00     0.158 C 
ENDBRANCH   6   8
ENDBRANCH   5   6
ENDBRANCH   1   5
BRANCH   2  16
HETATM   16  C   UNL     1     -41.111 -52.788  12.840  1.00  0.00     0.094 A 
HETATM   17  C   UNL     1     -42.426 -52.723  13.600  1.00  0.00     0.030 A 
HETATM   18  C   UNL     1     -41.139 -53.042  14.342  1.00  0.00    -0.027 A 
HETATM   19  C   UNL     1     -40.844 -54.450  14.803  1.00  0.00     0.016 C 
HETATM   20  C   UNL     1     -40.626 -51.992  15.299  1.00  0.00     0.016 C 
BRANCH  17  21
HETATM   21  C   UNL     1     -43.445 -53.752  13.334  1.00  0.00    -0.019 C 
HETATM   22  C   UNL     1     -44.426 -54.170  14.156  1.00  0.00    -0.091 C 
HETATM   23  C   UNL     1     -44.633 -53.648  15.551  1.00  0.00     0.042 C 
HETATM   24  C   UNL     1     -45.419 -55.215  13.721  1.00  0.00     0.042 C 
ENDBRANCH  17  21
ENDBRANCH   2  16
TORSDOF 5
ENDMDL
MODEL 3
REMARK VINA RESULT:      -6.3      2.439      3.797
REMARK  5 active torsions:
REMARK  status: ('A' for Active; 'I' for Inactive)
REMARK    1  A    between atoms: C_2  and  C_3 
REMARK    2  A    between atoms: C_2  and  C_16 
REMARK    3  A    between atoms: C_3  and  N_4 
REMARK       I    between atoms: N_4  and  C_5 
REMARK    4  A    between atoms: C_5  and  C_7 
REMARK    5  A    between atoms: C_8  and  C_9 
ROOT
HETATM    1  N   UNL     1     -43.340 -52.798  15.479  1.00  0.00    -0.360 N 
HETATM    2  C   UNL     1     -44.427 -53.097  16.269  1.00  0.00     0.223 C 
HETATM    3  O   UNL     1     -44.352 -53.740  17.310  1.00  0.00    -0.273 OA
HETATM    4  H   UNL     1     -43.506 -52.477  14.528  1.00  0.00     0.162 HD
ENDROOT
BRANCH   1   5
HETATM    5  C   UNL     1     -42.040 -53.364  15.791  1.00  0.00     0.134 C 
BRANCH   5   6
HETATM    6  C   UNL     1     -41.374 -54.154  14.647  1.00  0.00     0.069 C 
HETATM    7  C   UNL     1     -40.009 -54.713  15.056  1.00  0.00     0.020 C 
BRANCH   6   8
HETATM    8  C   UNL     1     -41.245 -53.311  13.413  1.00  0.00     0.104 A 
HETATM    9  N   UNL     1     -41.688 -53.636  12.214  1.00  0.00    -0.288 N 
HETATM   10  N   UNL     1     -41.391 -52.609  11.351  1.00  0.00    -0.295 N 
ATOM     11  HN  UNL     1     -42.170 -54.501  11.969  1.00  0.00     0.188 HD
HETATM   12  C   UNL     1     -40.773 -51.680  12.038  1.00  0.00     0.200 A 
ATOM     13  HN  UNL     1     -41.611 -52.575  10.356  1.00  0.00     0.187 HD
HETATM   14  N   UNL     1     -40.654 -52.076  13.336  1.00  0.00    -0.335 N 
HETATM   15  C   UNL     1     -40.026 -51.319  14.386  1.00  0.00     0.158 C 
ENDBRANCH   6   8
ENDBRANCH   5   6
ENDBRANCH   1   5
BRANCH   2  16
HETATM   16  C   UNL     1     -45.730 -52.578  15.758  1.00  0.00     0.094 A 
HETATM   17  C   UNL     1     -45.761 -51.314  14.913  1.00  0.00     0.030 A 
HETATM   18  C   UNL     1     -46.378 -51.311  16.301  1.00  0.00    -0.027 A 
HETATM   19  C   UNL     1     -47.878 -51.332  16.479  1.00  0.00     0.016 C 
HETATM   20  C   UNL     1     -45.674 -50.492  17.358  1.00  0.00     0.016 C 
BRANCH  17  21
HETATM   21  C   UNL     1     -46.588 -51.301  13.696  1.00  0.00    -0.019 C 
HETATM   22  C   UNL     1     -46.359 -51.949  12.538  1.00  0.00    -0.091 C 
HETATM   23  C   UNL     1     -45.153 -52.810  12.281  1.00  0.00     0.042 C 
HETATM   24  C   UNL     1     -47.327 -51.861  11.388  1.00  0.00     0.042 C 
ENDBRANCH  17  21
ENDBRANCH   2  16
TORSDOF 5
ENDMDL
MODEL 4
REMARK VINA RESULT:      -6.2      3.664      5.267
REMARK  5 active torsions:
REMARK  status: ('A' for Active; 'I' for Inactive)
REMARK    1  A    between atoms: C_2  and  C_3 
REMARK    2  A    between atoms: C_2  and  C_16 
REMARK    3  A    between atoms: C_3  and  N_4 
REMARK       I    between atoms: N_4  and  C_5 
REMARK    4  A    between atoms: C_5  and  C_7 
REMARK    5  A    between atoms: C_8  and  C_9 
ROOT
HETATM    1  N   UNL     1     -43.725 -53.130  16.251  1.00  0.00    -0.360 N 
HETATM    2  C   UNL     1     -44.968 -53.529  16.687  1.00  0.00     0.223 C 
HETATM    3  O   UNL     1     -45.143 -54.421  17.509  1.00  0.00    -0.273 OA
HETATM    4  H   UNL     1     -43.666 -52.564  15.407  1.00  0.00     0.162 HD
ENDROOT
BRANCH   1   5
HETATM    5  C   UNL     1     -42.541 -53.863  16.663  1.00  0.00     0.134 C 
BRANCH   5   6
HETATM    6  C   UNL     1     -42.155 -55.051  15.759  1.00  0.00     0.069 C 
HETATM    7  C   UNL     1     -42.235 -56.387  16.505  1.00  0.00     0.020 C 
BRANCH   6   8
HETATM    8  C   UNL     1     -40.786 -54.861  15.175  1.00  0.00     0.104 A 
HETATM    9  N   UNL     1     -39.658 -55.281  15.715  1.00  0.00    -0.288 N 
HETATM   10  N   UNL     1     -38.625 -54.927  14.882  1.00  0.00    -0.295 N 
ATOM     11  HN  UNL     1     -39.569 -55.782  16.598  1.00  0.00     0.188 HD
HETATM   12  C   UNL     1     -39.139 -54.300  13.854  1.00  0.00     0.200 A 
ATOM     13  HN  UNL     1     -37.635 -55.119  15.036  1.00  0.00     0.187 HD
HETATM   14  N   UNL     1     -40.493 -54.230  13.994  1.00  0.00    -0.335 N 
HETATM   15  C   UNL     1     -41.398 -53.607  13.064  1.00  0.00     0.158 C 
ENDBRANCH   6   8
ENDBRANCH   5   6
ENDBRANCH   1   5
BRANCH   2  16
HETATM   16  C   UNL     1     -46.110 -52.790  16.074  1.00  0.00     0.094 A 
HETATM   17  C   UNL     1     -45.845 -51.547  15.240  1.00  0.00     0.030 A 
HETATM   18  C   UNL     1     -46.565 -51.424  16.572  1.00  0.00    -0.027 A 
HETATM   19  C   UNL     1     -48.054 -51.176  16.625  1.00  0.00     0.016 C 
HETATM   20  C   UNL     1     -45.816 -50.736  17.690  1.00  0.00     0.016 C 
BRANCH  17  21
HETATM   21  C   UNL     1     -46.553 -51.394  13.959  1.00  0.00    -0.019 C 
HETATM   22  C   UNL     1     -46.265 -51.987  12.784  1.00  0.00    -0.091 C 
HETATM   23  C   UNL     1     -45.106 -52.922  12.577  1.00  0.00     0.042 C 
HETATM   24  C   UNL     1     -47.113 -51.754  11.562  1.00  0.00     0.042 C 
ENDBRANCH  17  21
ENDBRANCH   2  16
TORSDOF 5
ENDMDL
MODEL 5
REMARK VINA RESULT:      -6.1      2.027      4.130
REMARK  5 active torsions:
REMARK  status: ('A' for Active; 'I' for Inactive)
REMARK    1  A    between atoms: C_2  and  C_3 
REMARK    2  A    between atoms: C_2  and  C_16 
REMARK    3  A    between atoms: C_3  and  N_4 
REMARK       I    between atoms: N_4  and  C_5 
REMARK    4  A    between atoms: C_5  and  C_7 
REMARK    5  A    between atoms: C_8  and  C_9 
ROOT
HETATM    1  N   UNL     1     -42.141 -50.694  12.378  1.00  0.00    -0.360 N 
HETATM    2  C   UNL     1     -42.997 -50.996  13.412  1.00  0.00     0.223 C 
HETATM    3  O   UNL     1     -43.848 -50.222  13.836  1.00  0.00    -0.273 OA
HETATM    4  H   UNL     1     -41.319 -51.278  12.243  1.00  0.00     0.162 HD
ENDROOT
BRANCH   1   5
HETATM    5  C   UNL     1     -42.124 -49.355  11.817  1.00  0.00     0.134 C 
BRANCH   5   6
HETATM    6  C   UNL     1     -40.919 -48.485  12.227  1.00  0.00     0.069 C 
HETATM    7  C   UNL     1     -41.014 -47.069  11.650  1.00  0.00     0.020 C 
BRANCH   6   8
HETATM    8  C   UNL     1     -39.626 -49.129  11.822  1.00  0.00     0.104 A 
HETATM    9  N   UNL     1     -39.422 -49.796  10.703  1.00  0.00    -0.288 N 
HETATM   10  N   UNL     1     -38.116 -50.224  10.689  1.00  0.00    -0.295 N 
ATOM     11  HN  UNL     1     -40.113 -49.965   9.973  1.00  0.00     0.188 HD
HETATM   12  C   UNL     1     -37.552 -49.812  11.797  1.00  0.00     0.200 A 
ATOM     13  HN  UNL     1     -37.668 -50.765   9.950  1.00  0.00     0.187 HD
HETATM   14  N   UNL     1     -38.460 -49.123  12.543  1.00  0.00    -0.335 N 
HETATM   15  C   UNL     1     -38.206 -48.525  13.827  1.00  0.00     0.158 C 
ENDBRANCH   6   8
ENDBRANCH   5   6
ENDBRANCH   1   5
BRANCH   2  16
HETATM   16  C   UNL     1     -42.811 -52.356  13.998  1.00  0.00     0.094 A 
HETATM   17  C   UNL     1     -42.116 -53.439  13.188  1.00  0.00     0.030 A 
HETATM   18  C   UNL     1     -43.594 -53.571  13.514  1.00  0.00    -0.027 A 
HETATM   19  C   UNL     1     -44.067 -54.544  14.569  1.00  0.00     0.016 C 
HETATM   20  C   UNL     1     -44.560 -53.441  12.360  1.00  0.00     0.016 C 
BRANCH  17  21
HETATM   21  C   UNL     1     -41.098 -54.269  13.850  1.00  0.00    -0.019 C 
HETATM   22  C   UNL     1     -39.846 -53.915  14.199  1.00  0.00    -0.091 C 
HETATM   23  C   UNL     1     -39.251 -52.559  13.932  1.00  0.00     0.042 C 
HETATM   24  C   UNL     1     -38.930 -54.876  14.908  1.00  0.00     0.042 C 
ENDBRANCH  17  21
ENDBRANCH   2  16
TORSDOF 5
ENDMDL
MODEL 6
REMARK VINA RESULT:      -5.9      1.807      2.459
REMARK  5 active torsions:
REMARK  status: ('A' for Active; 'I' for Inactive)
REMARK    1  A    between atoms: C_2  and  C_3 
REMARK    2  A    between atoms: C_2  and  C_16 
REMARK    3  A    between atoms: C_3  and  N_4 
REMARK       I    between atoms: N_4  and  C_5 
REMARK    4  A    between atoms: C_5  and  C_7 
REMARK    5  A    between atoms: C_8  and  C_9 
ROOT
HETATM    1  N   UNL     1     -41.520 -50.994  12.238  1.00  0.00    -0.360 N 
HETATM    2  C   UNL     1     -41.467 -52.366  12.337  1.00  0.00     0.223 C 
HETATM    3  O   UNL     1     -40.552 -53.043  11.883  1.00  0.00    -0.273 OA
HETATM    4  H   UNL     1     -42.407 -50.528  12.419  1.00  0.00     0.162 HD
ENDROOT
BRANCH   1   5
HETATM    5  C   UNL     1     -40.527 -50.284  11.452  1.00  0.00     0.134 C 
BRANCH   5   6
HETATM    6  C   UNL     1     -40.411 -48.775  11.744  1.00  0.00     0.069 C 
HETATM    7  C   UNL     1     -40.577 -48.467  13.235  1.00  0.00     0.020 C 
BRANCH   6   8
HETATM    8  C   UNL     1     -41.402 -47.992  10.935  1.00  0.00     0.104 A 
HETATM    9  N   UNL     1     -42.559 -48.446  10.494  1.00  0.00    -0.288 N 
HETATM   10  N   UNL     1     -43.184 -47.436   9.804  1.00  0.00    -0.295 N 
ATOM     11  HN  UNL     1     -42.927 -49.386  10.640  1.00  0.00     0.188 HD
HETATM   12  C   UNL     1     -42.399 -46.388   9.837  1.00  0.00     0.200 A 
ATOM     13  HN  UNL     1     -44.095 -47.491   9.350  1.00  0.00     0.187 HD
HETATM   14  N   UNL     1     -41.266 -46.689  10.532  1.00  0.00    -0.335 N 
HETATM   15  C   UNL     1     -40.169 -45.789  10.771  1.00  0.00     0.158 C 
ENDBRANCH   6   8
ENDBRANCH   5   6
ENDBRANCH   1   5
BRANCH   2  16
HETATM   16  C   UNL     1     -42.627 -52.984  13.044  1.00  0.00     0.094 A 
HETATM   17  C   UNL     1     -43.274 -52.258  14.213  1.00  0.00     0.030 A 
HETATM   18  C   UNL     1     -42.519 -53.554  14.453  1.00  0.00    -0.027 A 
HETATM   19  C   UNL     1     -43.262 -54.840  14.729  1.00  0.00     0.016 C 
HETATM   20  C   UNL     1     -41.218 -53.454  15.215  1.00  0.00     0.016 C 
BRANCH  17  21
HETATM   21  C   UNL     1     -44.743 -52.193  14.275  1.00  0.00    -0.019 C 
HETATM   22  C   UNL     1     -45.499 -51.440  15.097  1.00  0.00    -0.091 C 
HETATM   23  C   UNL     1     -44.939 -50.522  16.148  1.00  0.00     0.042 C 
HETATM   24  C   UNL     1     -47.002 -51.458  15.013  1.00  0.00     0.042 C 
ENDBRANCH  17  21
ENDBRANCH   2  16
TORSDOF 5
ENDMDL
MODEL 7
REMARK VINA RESULT:      -5.9      2.080      3.909
REMARK  5 active torsions:
REMARK  status: ('A' for Active; 'I' for Inactive)
REMARK    1  A    between atoms: C_2  and  C_3 
REMARK    2  A    between atoms: C_2  and  C_16 
REMARK    3  A    between atoms: C_3  and  N_4 
REMARK       I    between atoms: N_4  and  C_5 
REMARK    4  A    between atoms: C_5  and  C_7 
REMARK    5  A    between atoms: C_8  and  C_9 
ROOT
HETATM    1  N   UNL     1     -42.368 -50.780  12.342  1.00  0.00    -0.360 N 
HETATM    2  C   UNL     1     -43.336 -50.240  13.158  1.00  0.00     0.223 C 
HETATM    3  O   UNL     1     -43.615 -49.047  13.179  1.00  0.00    -0.273 OA
HETATM    4  H   UNL     1     -42.029 -51.718  12.547  1.00  0.00     0.162 HD
ENDROOT
BRANCH   1   5
HETATM    5  C   UNL     1     -41.524 -49.911  11.542  1.00  0.00     0.134 C 
BRANCH   5   6
HETATM    6  C   UNL     1     -40.376 -49.223  12.307  1.00  0.00     0.069 C 
HETATM    7  C   UNL     1     -40.266 -47.736  11.958  1.00  0.00     0.020 C 
BRANCH   6   8
HETATM    8  C   UNL     1     -39.070 -49.917  12.055  1.00  0.00     0.104 A 
HETATM    9  N   UNL     1     -38.424 -49.938  10.904  1.00  0.00    -0.288 N 
HETATM   10  N   UNL     1     -37.269 -50.663  11.072  1.00  0.00    -0.295 N 
ATOM     11  HN  UNL     1     -38.730 -49.493  10.039  1.00  0.00     0.188 HD
HETATM   12  C   UNL     1     -37.232 -51.069  12.317  1.00  0.00     0.200 A 
ATOM     13  HN  UNL     1     -36.567 -50.851  10.357  1.00  0.00     0.187 HD
HETATM   14  N   UNL     1     -38.342 -50.629  12.973  1.00  0.00    -0.335 N 
HETATM   15  C   UNL     1     -38.653 -50.885  14.355  1.00  0.00     0.158 C 
ENDBRANCH   6   8
ENDBRANCH   5   6
ENDBRANCH   1   5
BRANCH   2  16
HETATM   16  C   UNL     1     -44.030 -51.225  14.039  1.00  0.00     0.094 A 
HETATM   17  C   UNL     1     -44.202 -52.663  13.575  1.00  0.00     0.030 A 
HETATM   18  C   UNL     1     -45.419 -51.766  13.727  1.00  0.00    -0.027 A 
HETATM   19  C   UNL     1     -46.364 -51.939  14.893  1.00  0.00     0.016 C 
HETATM   20  C   UNL     1     -46.126 -51.356  12.456  1.00  0.00     0.016 C 
BRANCH  17  21
HETATM   21  C   UNL     1     -43.915 -53.749  14.525  1.00  0.00    -0.019 C 
HETATM   22  C   UNL     1     -42.777 -54.461  14.642  1.00  0.00    -0.091 C 
HETATM   23  C   UNL     1     -41.572 -54.270  13.762  1.00  0.00     0.042 C 
HETATM   24  C   UNL     1     -42.625 -55.524  15.697  1.00  0.00     0.042 C 
ENDBRANCH  17  21
ENDBRANCH   2  16
TORSDOF 5
ENDMDL
MODEL 8
REMARK VINA RESULT:      -5.9      1.891      2.730
REMARK  5 active torsions:
REMARK  status: ('A' for Active; 'I' for Inactive)
REMARK    1  A    between atoms: C_2  and  C_3 
REMARK    2  A    between atoms: C_2  and  C_16 
REMARK    3  A    between atoms: C_3  and  N_4 
REMARK       I    between atoms: N_4  and  C_5 
REMARK    4  A    between atoms: C_5  and  C_7 
REMARK    5  A    between atoms: C_8  and  C_9 
ROOT
HETATM    1  N   UNL     1     -42.682 -50.414  12.584  1.00  0.00    -0.360 N 
HETATM    2  C   UNL     1     -42.555 -51.777  12.439  1.00  0.00     0.223 C 
HETATM    3  O   UNL     1     -41.689 -52.307  11.752  1.00  0.00    -0.273 OA
HETATM    4  H   UNL     1     -43.551 -50.046  12.965  1.00  0.00     0.162 HD
ENDROOT
BRANCH   1   5
HETATM    5  C   UNL     1     -41.849 -49.520  11.800  1.00  0.00     0.134 C 
BRANCH   5   6
HETATM    6  C   UNL     1     -40.629 -48.938  12.541  1.00  0.00     0.069 C 
HETATM    7  C   UNL     1     -40.612 -47.407  12.501  1.00  0.00     0.020 C 
BRANCH   6   8
HETATM    8  C   UNL     1     -39.348 -49.489  11.986  1.00  0.00     0.104 A 
HETATM    9  N   UNL     1     -39.152 -49.855  10.734  1.00  0.00    -0.288 N 
HETATM   10  N   UNL     1     -37.856 -50.297  10.613  1.00  0.00    -0.295 N 
ATOM     11  HN  UNL     1     -39.842 -49.817   9.985  1.00  0.00     0.188 HD
HETATM   12  C   UNL     1     -37.289 -50.192  11.789  1.00  0.00     0.200 A 
ATOM     13  HN  UNL     1     -37.416 -50.643   9.761  1.00  0.00     0.187 HD
HETATM   14  N   UNL     1     -38.187 -49.694  12.685  1.00  0.00    -0.335 N 
HETATM   15  C   UNL     1     -37.927 -49.447  14.079  1.00  0.00     0.158 C 
ENDBRANCH   6   8
ENDBRANCH   5   6
ENDBRANCH   1   5
BRANCH   2  16
HETATM   16  C   UNL     1     -43.568 -52.580  13.185  1.00  0.00     0.094 A 
HETATM   17  C   UNL     1     -43.994 -52.151  14.580  1.00  0.00     0.030 A 
HETATM   18  C   UNL     1     -43.207 -53.436  14.393  1.00  0.00    -0.027 A 
HETATM   19  C   UNL     1     -43.887 -54.781  14.506  1.00  0.00     0.016 C 
HETATM   20  C   UNL     1     -41.790 -53.450  14.918  1.00  0.00     0.016 C 
BRANCH  17  21
HETATM   21  C   UNL     1     -45.428 -52.160  14.912  1.00  0.00    -0.019 C 
HETATM   22  C   UNL     1     -46.060 -51.432  15.852  1.00  0.00    -0.091 C 
HETATM   23  C   UNL     1     -45.367 -50.468  16.775  1.00  0.00     0.042 C 
HETATM   24  C   UNL     1     -47.550 -51.530  16.047  1.00  0.00     0.042 C 
ENDBRANCH  17  21
ENDBRANCH   2  16
TORSDOF 5
ENDMDL
MODEL 9
REMARK VINA RESULT:      -5.8      2.670      6.517
REMARK  5 active torsions:
REMARK  status: ('A' for Active; 'I' for Inactive)
REMARK    1  A    between atoms: C_2  and  C_3 
REMARK    2  A    between atoms: C_2  and  C_16 
REMARK    3  A    between atoms: C_3  and  N_4 
REMARK       I    between atoms: N_4  and  C_5 
REMARK    4  A    between atoms: C_5  and  C_7 
REMARK    5  A    between atoms: C_8  and  C_9 
ROOT
HETATM    1  N   UNL     1     -42.211 -51.192  11.999  1.00  0.00    -0.360 N 
HETATM    2  C   UNL     1     -41.138 -50.330  11.946  1.00  0.00     0.223 C 
HETATM    3  O   UNL     1     -40.003 -50.641  12.288  1.00  0.00    -0.273 OA
HETATM    4  H   UNL     1     -43.149 -50.803  11.931  1.00  0.00     0.162 HD
ENDROOT
BRANCH   1   5
HETATM    5  C   UNL     1     -42.059 -52.503  12.605  1.00  0.00     0.134 C 
BRANCH   5   6
HETATM    6  C   UNL     1     -43.102 -52.854  13.684  1.00  0.00     0.069 C 
HETATM    7  C   UNL     1     -43.037 -54.331  14.083  1.00  0.00     0.020 C 
BRANCH   6   8
HETATM    8  C   UNL     1     -44.487 -52.495  13.233  1.00  0.00     0.104 A 
HETATM    9  N   UNL     1     -45.067 -52.922  12.128  1.00  0.00    -0.288 N 
HETATM   10  N   UNL     1     -46.329 -52.384  12.069  1.00  0.00    -0.295 N 
ATOM     11  HN  UNL     1     -44.649 -53.545  11.437  1.00  0.00     0.188 HD
HETATM   12  C   UNL     1     -46.495 -51.641  13.134  1.00  0.00     0.200 A 
ATOM     13  HN  UNL     1     -47.014 -52.536  11.329  1.00  0.00     0.187 HD
HETATM   14  N   UNL     1     -45.365 -51.675  13.894  1.00  0.00    -0.335 N 
HETATM   15  C   UNL     1     -45.171 -50.975  15.136  1.00  0.00     0.158 C 
ENDBRANCH   6   8
ENDBRANCH   5   6
ENDBRANCH   1   5
BRANCH   2  16
HETATM   16  C   UNL     1     -41.461 -48.964  11.440  1.00  0.00     0.094 A 
HETATM   17  C   UNL     1     -40.619 -47.777  11.881  1.00  0.00     0.030 A 
HETATM   18  C   UNL     1     -42.067 -47.884  12.328  1.00  0.00    -0.027 A 
HETATM   19  C   UNL     1     -43.132 -47.008  11.708  1.00  0.00     0.016 C 
HETATM   20  C   UNL     1     -42.310 -48.154  13.794  1.00  0.00     0.016 C 
BRANCH  17  21
HETATM   21  C   UNL     1     -40.189 -46.802  10.866  1.00  0.00    -0.019 C 
HETATM   22  C   UNL     1     -39.797 -45.529  11.061  1.00  0.00    -0.091 C 
HETATM   23  C   UNL     1     -39.757 -44.859  12.407  1.00  0.00     0.042 C 
HETATM   24  C   UNL     1     -39.350 -44.663   9.913  1.00  0.00     0.042 C 
ENDBRANCH  17  21
ENDBRANCH   2  16
TORSDOF 5
ENDMDL
