MODEL 1
REMARK VINA RESULT:      -4.9      0.000      0.000
REMARK  8 active torsions:
REMARK  status: ('A' for Active; 'I' for Inactive)
REMARK    1  A    between atoms: C_2  and  C_3 
REMARK    2  A    between atoms: C_3  and  N_4 
REMARK    3  A    between atoms: C_5  and  N_6 
REMARK    4  A    between atoms: C_7  and  N_8 
REMARK    5  A    between atoms: N_8  and  C_9 
REMARK    6  A    between atoms: N_8  and  C_11 
REMARK    7  A    between atoms: C_11  and  C_12 
REMARK    8  A    between atoms: C_12  and  O_13 
ROOT
HETATM    1  N   UNL     1     -43.408 -47.113  10.229  1.00  0.00    -0.288 N 
HETATM    2  C   UNL     1     -42.683 -47.894  11.124  1.00  0.00     0.116 C 
HETATM    3  C   UNL     1     -41.396 -47.587  11.455  1.00  0.00     0.138 C 
HETATM    4  C   UNL     1     -40.765 -46.418  10.762  1.00  0.00     0.279 C 
HETATM    5  O   UNL     1     -39.634 -46.022  11.036  1.00  0.00    -0.265 OA
HETATM    6  N   UNL     1     -41.514 -45.818   9.792  1.00  0.00    -0.273 N 
HETATM    7  C   UNL     1     -42.829 -46.066   9.527  1.00  0.00     0.330 C 
HETATM    8  O   UNL     1     -43.423 -45.360   8.715  1.00  0.00    -0.246 OA
HETATM    9  H   UNL     1     -41.101 -45.042   9.305  1.00  0.00     0.173 HD
ENDROOT
BRANCH   3  10
HETATM   10  N   UNL     1     -40.633 -48.397  12.345  1.00  0.00    -0.372 N 
BRANCH  10  11
HETATM   11  C   UNL     1     -40.266 -48.007  13.723  1.00  0.00     0.119 C 
HETATM   12  C   UNL     1     -38.808 -47.697  13.984  1.00  0.00     0.026 C 
ENDBRANCH  10  11
BRANCH  10  13
HETATM   13  C   UNL     1     -39.607 -49.290  11.735  1.00  0.00     0.149 C 
BRANCH  13  14
HETATM   14  C   UNL     1     -39.826 -50.757  12.143  1.00  0.00     0.186 C 
BRANCH  14  15
HETATM   15  O   UNL     1     -41.222 -51.063  12.102  1.00  0.00    -0.394 OA
HETATM   16  C   UNL     1     -41.460 -52.457  11.996  1.00  0.00     0.201 C 
ENDBRANCH  14  15
ENDBRANCH  13  14
ENDBRANCH  10  13
ENDBRANCH   3  10
BRANCH   2  17
HETATM   17  N   UNL     1     -43.253 -49.029  11.698  1.00  0.00    -0.286 NA
HETATM   18  H   UNL     1     -42.638 -49.827  11.578  1.00  0.00     0.125 HD
HETATM   19  H   UNL     1     -44.138 -49.225  11.210  1.00  0.00     0.125 HD
ENDBRANCH   2  17
BRANCH   1  20
HETATM   20  C   UNL     1     -44.835 -47.374   9.985  1.00  0.00     0.135 C 
BRANCH  20  21
HETATM   21  C   UNL     1     -45.186 -47.960   8.610  1.00  0.00     0.016 C 
HETATM   22  C   UNL     1     -46.579 -48.561   8.525  1.00  0.00     0.006 C 
ENDBRANCH  20  21
ENDBRANCH   1  20
TORSDOF 8
ENDMDL
MODEL 2
REMARK VINA RESULT:      -4.8      1.584      1.891
REMARK  8 active torsions:
REMARK  status: ('A' for Active; 'I' for Inactive)
REMARK    1  A    between atoms: C_2  and  C_3 
REMARK    2  A    between atoms: C_3  and  N_4 
REMARK    3  A    between atoms: C_5  and  N_6 
REMARK    4  A    between atoms: C_7  and  N_8 
REMARK    5  A    between atoms: N_8  and  C_9 
REMARK    6  A    between atoms: N_8  and  C_11 
REMARK    7  A    between atoms: C_11  and  C_12 
REMARK    8  A    between atoms: C_12  and  O_13 
ROOT
HETATM    1  N   UNL     1     -43.323 -46.554   9.816  1.00  0.00    -0.288 N 
HETATM    2  C   UNL     1     -42.552 -47.297  10.705  1.00  0.00     0.116 C 
HETATM    3  C   UNL     1     -41.941 -46.715  11.776  1.00  0.00     0.138 C 
HETATM    4  C   UNL     1     -42.071 -45.229  11.920  1.00  0.00     0.279 C 
HETATM    5  O   UNL     1     -41.613 -44.619  12.885  1.00  0.00    -0.265 OA
HETATM    6  N   UNL     1     -42.720 -44.581  10.910  1.00  0.00    -0.273 N 
HETATM    7  C   UNL     1     -43.407 -45.171   9.890  1.00  0.00     0.330 C 
HETATM    8  O   UNL     1     -44.061 -44.471   9.120  1.00  0.00    -0.246 OA
HETATM    9  H   UNL     1     -42.803 -43.581  10.982  1.00  0.00     0.173 HD
ENDROOT
BRANCH   3  10
HETATM   10  N   UNL     1     -41.124 -47.459  12.674  1.00  0.00    -0.372 N 
BRANCH  10  11
HETATM   11  C   UNL     1     -41.487 -47.771  14.072  1.00  0.00     0.119 C 
HETATM   12  C   UNL     1     -42.571 -48.804  14.286  1.00  0.00     0.026 C 
ENDBRANCH  10  11
BRANCH  10  13
HETATM   13  C   UNL     1     -39.647 -47.335  12.504  1.00  0.00     0.149 C 
BRANCH  13  14
HETATM   14  C   UNL     1     -38.970 -48.716  12.456  1.00  0.00     0.186 C 
BRANCH  14  15
HETATM   15  O   UNL     1     -39.732 -49.595  11.624  1.00  0.00    -0.394 OA
HETATM   16  C   UNL     1     -39.941 -50.858  12.235  1.00  0.00     0.201 C 
ENDBRANCH  14  15
ENDBRANCH  13  14
ENDBRANCH  10  13
ENDBRANCH   3  10
BRANCH   2  17
HETATM   17  N   UNL     1     -42.369 -48.665  10.511  1.00  0.00    -0.286 NA
HETATM   18  H   UNL     1     -41.388 -48.866  10.350  1.00  0.00     0.125 HD
HETATM   19  H   UNL     1     -42.900 -48.945   9.675  1.00  0.00     0.125 HD
ENDBRANCH   2  17
BRANCH   1  20
HETATM   20  C   UNL     1     -44.087 -47.214   8.745  1.00  0.00     0.135 C 
BRANCH  20  21
HETATM   21  C   UNL     1     -45.424 -47.842   9.162  1.00  0.00     0.016 C 
HETATM   22  C   UNL     1     -46.618 -46.910   9.035  1.00  0.00     0.006 C 
ENDBRANCH  20  21
ENDBRANCH   1  20
TORSDOF 8
ENDMDL
MODEL 3
REMARK VINA RESULT:      -4.8      5.478      6.641
REMARK  8 active torsions:
REMARK  status: ('A' for Active; 'I' for Inactive)
REMARK    1  A    between atoms: C_2  and  C_3 
REMARK    2  A    between atoms: C_3  and  N_4 
REMARK    3  A    between atoms: C_5  and  N_6 
REMARK    4  A    between atoms: C_7  and  N_8 
REMARK    5  A    between atoms: N_8  and  C_9 
REMARK    6  A    between atoms: N_8  and  C_11 
REMARK    7  A    between atoms: C_11  and  C_12 
REMARK    8  A    between atoms: C_12  and  O_13 
ROOT
HETATM    1  N   UNL     1     -44.273 -53.420  14.017  1.00  0.00    -0.288 N 
HETATM    2  C   UNL     1     -42.997 -53.431  14.573  1.00  0.00     0.116 C 
HETATM    3  C   UNL     1     -41.899 -53.088  13.840  1.00  0.00     0.138 C 
HETATM    4  C   UNL     1     -42.109 -52.769  12.391  1.00  0.00     0.279 C 
HETATM    5  O   UNL     1     -41.195 -52.388  11.662  1.00  0.00    -0.265 OA
HETATM    6  N   UNL     1     -43.376 -52.938  11.915  1.00  0.00    -0.273 N 
HETATM    7  C   UNL     1     -44.487 -53.191  12.666  1.00  0.00     0.330 C 
HETATM    8  O   UNL     1     -45.592 -53.187  12.126  1.00  0.00    -0.246 OA
HETATM    9  H   UNL     1     -43.533 -52.744  10.941  1.00  0.00     0.173 HD
ENDROOT
BRANCH   3  10
HETATM   10  N   UNL     1     -40.585 -53.127  14.389  1.00  0.00    -0.372 N 
BRANCH  10  11
HETATM   11  C   UNL     1     -39.804 -51.932  14.772  1.00  0.00     0.119 C 
HETATM   12  C   UNL     1     -38.618 -51.579  13.901  1.00  0.00     0.026 C 
ENDBRANCH  10  11
BRANCH  10  13
HETATM   13  C   UNL     1     -39.701 -54.243  13.947  1.00  0.00     0.149 C 
BRANCH  13  14
HETATM   14  C   UNL     1     -39.164 -55.043  15.147  1.00  0.00     0.186 C 
BRANCH  14  15
HETATM   15  O   UNL     1     -40.246 -55.382  16.020  1.00  0.00    -0.394 OA
HETATM   16  C   UNL     1     -39.937 -56.495  16.842  1.00  0.00     0.201 C 
ENDBRANCH  14  15
ENDBRANCH  13  14
ENDBRANCH  10  13
ENDBRANCH   3  10
BRANCH   2  17
HETATM   17  N   UNL     1     -42.805 -53.812  15.900  1.00  0.00    -0.286 NA
HETATM   18  H   UNL     1     -43.124 -53.078  16.523  1.00  0.00     0.125 HD
HETATM   19  H   UNL     1     -41.796 -53.951  16.050  1.00  0.00     0.125 HD
ENDBRANCH   2  17
BRANCH   1  20
HETATM   20  C   UNL     1     -45.462 -53.658  14.852  1.00  0.00     0.135 C 
BRANCH  20  21
HETATM   21  C   UNL     1     -45.967 -52.456  15.661  1.00  0.00     0.016 C 
HETATM   22  C   UNL     1     -46.839 -51.494  14.870  1.00  0.00     0.006 C 
ENDBRANCH  20  21
ENDBRANCH   1  20
TORSDOF 8
ENDMDL
MODEL 4
REMARK VINA RESULT:      -4.7      1.989      5.489
REMARK  8 active torsions:
REMARK  status: ('A' for Active; 'I' for Inactive)
REMARK    1  A    between atoms: C_2  and  C_3 
REMARK    2  A    between atoms: C_3  and  N_4 
REMARK    3  A    between atoms: C_5  and  N_6 
REMARK    4  A    between atoms: C_7  and  N_8 
REMARK    5  A    between atoms: N_8  and  C_9 
REMARK    6  A    between atoms: N_8  and  C_11 
REMARK    7  A    between atoms: C_11  and  C_12 
REMARK    8  A    between atoms: C_12  and  O_13 
ROOT
HETATM    1  N   UNL     1     -41.217 -50.408  12.567  1.00  0.00    -0.288 N 
HETATM    2  C   UNL     1     -41.185 -49.557  11.467  1.00  0.00     0.116 C 
HETATM    3  C   UNL     1     -41.883 -48.385  11.452  1.00  0.00     0.138 C 
HETATM    4  C   UNL     1     -42.746 -48.083  12.639  1.00  0.00     0.279 C 
HETATM    5  O   UNL     1     -43.364 -47.025  12.751  1.00  0.00    -0.265 OA
HETATM    6  N   UNL     1     -42.823 -49.057  13.592  1.00  0.00    -0.273 N 
HETATM    7  C   UNL     1     -42.056 -50.184  13.649  1.00  0.00     0.330 C 
HETATM    8  O   UNL     1     -42.132 -50.914  14.635  1.00  0.00    -0.246 OA
HETATM    9  H   UNL     1     -43.410 -48.878  14.388  1.00  0.00     0.173 HD
ENDROOT
BRANCH   3  10
HETATM   10  N   UNL     1     -41.883 -47.522  10.320  1.00  0.00    -0.372 N 
BRANCH  10  11
HETATM   11  C   UNL     1     -41.304 -46.162  10.305  1.00  0.00     0.119 C 
HETATM   12  C   UNL     1     -39.984 -45.970  11.019  1.00  0.00     0.026 C 
ENDBRANCH  10  11
BRANCH  10  13
HETATM   13  C   UNL     1     -43.037 -47.638   9.382  1.00  0.00     0.149 C 
BRANCH  13  14
HETATM   14  C   UNL     1     -43.478 -46.259   8.862  1.00  0.00     0.186 C 
BRANCH  14  15
HETATM   15  O   UNL     1     -44.907 -46.177   8.874  1.00  0.00    -0.394 OA
HETATM   16  C   UNL     1     -45.505 -47.384   9.316  1.00  0.00     0.201 C 
ENDBRANCH  14  15
ENDBRANCH  13  14
ENDBRANCH  10  13
ENDBRANCH   3  10
BRANCH   2  17
HETATM   17  N   UNL     1     -40.445 -49.891  10.334  1.00  0.00    -0.286 NA
HETATM   18  H   UNL     1     -39.493 -49.553  10.426  1.00  0.00     0.125 HD
HETATM   19  H   UNL     1     -40.876 -49.428   9.521  1.00  0.00     0.125 HD
ENDBRANCH   2  17
BRANCH   1  20
HETATM   20  C   UNL     1     -40.355 -51.599  12.625  1.00  0.00     0.135 C 
BRANCH  20  21
HETATM   21  C   UNL     1     -40.978 -52.906  12.117  1.00  0.00     0.016 C 
HETATM   22  C   UNL     1     -41.072 -54.002  13.166  1.00  0.00     0.006 C 
ENDBRANCH  20  21
ENDBRANCH   1  20
TORSDOF 8
ENDMDL
MODEL 5
REMARK VINA RESULT:      -4.6      3.858      5.697
REMARK  8 active torsions:
REMARK  status: ('A' for Active; 'I' for Inactive)
REMARK    1  A    between atoms: C_2  and  C_3 
REMARK    2  A    between atoms: C_3  and  N_4 
REMARK    3  A    between atoms: C_5  and  N_6 
REMARK    4  A    between atoms: C_7  and  N_8 
REMARK    5  A    between atoms: N_8  and  C_9 
REMARK    6  A    between atoms: N_8  and  C_11 
REMARK    7  A    between atoms: C_11  and  C_12 
REMARK    8  A    between atoms: C_12  and  O_13 
ROOT
HETATM    1  N   UNL     1     -44.392 -52.268  12.901  1.00  0.00    -0.288 N 
HETATM    2  C   UNL     1     -43.485 -51.227  13.073  1.00  0.00     0.116 C 
HETATM    3  C   UNL     1     -42.155 -51.393  12.822  1.00  0.00     0.138 C 
HETATM    4  C   UNL     1     -41.694 -52.762  12.422  1.00  0.00     0.279 C 
HETATM    5  O   UNL     1     -40.528 -53.000  12.112  1.00  0.00    -0.265 OA
HETATM    6  N   UNL     1     -42.643 -53.743  12.433  1.00  0.00    -0.273 N 
HETATM    7  C   UNL     1     -43.985 -53.558  12.595  1.00  0.00     0.330 C 
HETATM    8  O   UNL     1     -44.746 -54.513  12.450  1.00  0.00    -0.246 OA
HETATM    9  H   UNL     1     -42.349 -54.671  12.184  1.00  0.00     0.173 HD
ENDROOT
BRANCH   3  10
HETATM   10  N   UNL     1     -41.213 -50.344  13.024  1.00  0.00    -0.372 N 
BRANCH  10  11
HETATM   11  C   UNL     1     -40.550 -49.594  11.937  1.00  0.00     0.119 C 
HETATM   12  C   UNL     1     -41.431 -48.724  11.067  1.00  0.00     0.026 C 
ENDBRANCH  10  11
BRANCH  10  13
HETATM   13  C   UNL     1     -40.346 -50.440  14.234  1.00  0.00     0.149 C 
BRANCH  13  14
HETATM   14  C   UNL     1     -38.894 -50.040  13.917  1.00  0.00     0.186 C 
BRANCH  14  15
HETATM   15  O   UNL     1     -38.096 -51.217  13.762  1.00  0.00    -0.394 OA
HETATM   16  C   UNL     1     -37.226 -51.127  12.645  1.00  0.00     0.201 C 
ENDBRANCH  14  15
ENDBRANCH  13  14
ENDBRANCH  10  13
ENDBRANCH   3  10
BRANCH   2  17
HETATM   17  N   UNL     1     -43.914 -49.981  13.527  1.00  0.00    -0.286 NA
HETATM   18  H   UNL     1     -43.310 -49.251  13.167  1.00  0.00     0.125 HD
HETATM   19  H   UNL     1     -43.852 -49.976  14.555  1.00  0.00     0.125 HD
ENDBRANCH   2  17
BRANCH   1  20
HETATM   20  C   UNL     1     -45.839 -52.040  13.044  1.00  0.00     0.135 C 
BRANCH  20  21
HETATM   21  C   UNL     1     -46.461 -52.479  14.377  1.00  0.00     0.016 C 
HETATM   22  C   UNL     1     -46.894 -51.330  15.272  1.00  0.00     0.006 C 
ENDBRANCH  20  21
ENDBRANCH   1  20
TORSDOF 8
ENDMDL
MODEL 6
REMARK VINA RESULT:      -4.6      2.993      5.488
REMARK  8 active torsions:
REMARK  status: ('A' for Active; 'I' for Inactive)
REMARK    1  A    between atoms: C_2  and  C_3 
REMARK    2  A    between atoms: C_3  and  N_4 
REMARK    3  A    between atoms: C_5  and  N_6 
REMARK    4  A    between atoms: C_7  and  N_8 
REMARK    5  A    between atoms: N_8  and  C_9 
REMARK    6  A    between atoms: N_8  and  C_11 
REMARK    7  A    between atoms: C_11  and  C_12 
REMARK    8  A    between atoms: C_12  and  O_13 
ROOT
HETATM    1  N   UNL     1     -41.466 -49.749  12.024  1.00  0.00    -0.288 N 
HETATM    2  C   UNL     1     -42.492 -50.492  12.600  1.00  0.00     0.116 C 
HETATM    3  C   UNL     1     -42.341 -51.818  12.877  1.00  0.00     0.138 C 
HETATM    4  C   UNL     1     -41.052 -52.465  12.472  1.00  0.00     0.279 C 
HETATM    5  O   UNL     1     -40.793 -53.638  12.735  1.00  0.00    -0.265 OA
HETATM    6  N   UNL     1     -40.177 -51.681  11.778  1.00  0.00    -0.273 N 
HETATM    7  C   UNL     1     -40.290 -50.335  11.581  1.00  0.00     0.330 C 
HETATM    8  O   UNL     1     -39.362 -49.725  11.053  1.00  0.00    -0.246 OA
HETATM    9  H   UNL     1     -39.314 -52.103  11.483  1.00  0.00     0.173 HD
ENDROOT
BRANCH   3  10
HETATM   10  N   UNL     1     -43.395 -52.596  13.437  1.00  0.00    -0.372 N 
BRANCH  10  11
HETATM   11  C   UNL     1     -43.326 -53.279  14.746  1.00  0.00     0.119 C 
HETATM   12  C   UNL     1     -43.330 -54.793  14.731  1.00  0.00     0.026 C 
ENDBRANCH  10  11
BRANCH  10  13
HETATM   13  C   UNL     1     -44.277 -53.326  12.481  1.00  0.00     0.149 C 
BRANCH  13  14
HETATM   14  C   UNL     1     -45.762 -53.017  12.739  1.00  0.00     0.186 C 
BRANCH  14  15
HETATM   15  O   UNL     1     -45.912 -51.635  13.078  1.00  0.00    -0.394 OA
HETATM   16  C   UNL     1     -46.699 -51.455  14.244  1.00  0.00     0.201 C 
ENDBRANCH  14  15
ENDBRANCH  13  14
ENDBRANCH  10  13
ENDBRANCH   3  10
BRANCH   2  17
HETATM   17  N   UNL     1     -43.718 -49.897  12.894  1.00  0.00    -0.286 NA
HETATM   18  H   UNL     1     -43.580 -48.932  13.174  1.00  0.00     0.125 HD
HETATM   19  H   UNL     1     -44.140 -50.407  13.683  1.00  0.00     0.125 HD
ENDBRANCH   2  17
BRANCH   1  20
HETATM   20  C   UNL     1     -41.592 -48.292  11.855  1.00  0.00     0.135 C 
BRANCH  20  21
HETATM   21  C   UNL     1     -42.058 -47.814  10.473  1.00  0.00     0.016 C 
HETATM   22  C   UNL     1     -43.528 -47.434  10.407  1.00  0.00     0.006 C 
ENDBRANCH  20  21
ENDBRANCH   1  20
TORSDOF 8
ENDMDL
MODEL 7
REMARK VINA RESULT:      -4.4      5.403      6.584
REMARK  8 active torsions:
REMARK  status: ('A' for Active; 'I' for Inactive)
REMARK    1  A    between atoms: C_2  and  C_3 
REMARK    2  A    between atoms: C_3  and  N_4 
REMARK    3  A    between atoms: C_5  and  N_6 
REMARK    4  A    between atoms: C_7  and  N_8 
REMARK    5  A    between atoms: N_8  and  C_9 
REMARK    6  A    between atoms: N_8  and  C_11 
REMARK    7  A    between atoms: C_11  and  C_12 
REMARK    8  A    between atoms: C_12  and  O_13 
ROOT
HETATM    1  N   UNL     1     -44.170 -53.425  14.034  1.00  0.00    -0.288 N 
HETATM    2  C   UNL     1     -42.880 -53.481  14.551  1.00  0.00     0.116 C 
HETATM    3  C   UNL     1     -41.793 -53.177  13.786  1.00  0.00     0.138 C 
HETATM    4  C   UNL     1     -42.035 -52.851  12.344  1.00  0.00     0.279 C 
HETATM    5  O   UNL     1     -41.130 -52.502  11.587  1.00  0.00    -0.265 OA
HETATM    6  N   UNL     1     -43.321 -52.975  11.906  1.00  0.00    -0.273 N 
HETATM    7  C   UNL     1     -44.417 -53.189  12.690  1.00  0.00     0.330 C 
HETATM    8  O   UNL     1     -45.536 -53.146  12.184  1.00  0.00    -0.246 OA
HETATM    9  H   UNL     1     -43.500 -52.776  10.937  1.00  0.00     0.173 HD
ENDROOT
BRANCH   3  10
HETATM   10  N   UNL     1     -40.465 -53.261  14.295  1.00  0.00    -0.372 N 
BRANCH  10  11
HETATM   11  C   UNL     1     -39.808 -54.517  14.715  1.00  0.00     0.119 C 
HETATM   12  C   UNL     1     -39.033 -54.485  16.014  1.00  0.00     0.026 C 
ENDBRANCH  10  11
BRANCH  10  13
HETATM   13  C   UNL     1     -39.965 -52.092  15.074  1.00  0.00     0.149 C 
BRANCH  13  14
HETATM   14  C   UNL     1     -39.198 -51.106  14.177  1.00  0.00     0.186 C 
BRANCH  14  15
HETATM   15  O   UNL     1     -38.375 -51.833  13.259  1.00  0.00    -0.394 OA
HETATM   16  C   UNL     1     -37.329 -51.033  12.732  1.00  0.00     0.201 C 
ENDBRANCH  14  15
ENDBRANCH  13  14
ENDBRANCH  10  13
ENDBRANCH   3  10
BRANCH   2  17
HETATM   17  N   UNL     1     -42.661 -53.869  15.872  1.00  0.00    -0.286 NA
HETATM   18  H   UNL     1     -41.684 -53.748  16.114  1.00  0.00     0.125 HD
HETATM   19  H   UNL     1     -42.896 -54.868  15.956  1.00  0.00     0.125 HD
ENDBRANCH   2  17
BRANCH   1  20
HETATM   20  C   UNL     1     -45.341 -53.622  14.904  1.00  0.00     0.135 C 
BRANCH  20  21
HETATM   21  C   UNL     1     -45.809 -52.390  15.691  1.00  0.00     0.016 C 
HETATM   22  C   UNL     1     -46.798 -51.511  14.944  1.00  0.00     0.006 C 
ENDBRANCH  20  21
ENDBRANCH   1  20
TORSDOF 8
ENDMDL
MODEL 8
REMARK VINA RESULT:      -4.4      6.417      7.649
REMARK  8 active torsions:
REMARK  status: ('A' for Active; 'I' for Inactive)
REMARK    1  A    between atoms: C_2  and  C_3 
REMARK    2  A    between atoms: C_3  and  N_4 
REMARK    3  A    between atoms: C_5  and  N_6 
REMARK    4  A    between atoms: C_7  and  N_8 
REMARK    5  A    between atoms: N_8  and  C_9 
REMARK    6  A    between atoms: N_8  and  C_11 
REMARK    7  A    between atoms: C_11  and  C_12 
REMARK    8  A    between atoms: C_12  and  O_13 
ROOT
HETATM    1  N   UNL     1     -45.321 -53.536  14.214  1.00  0.00    -0.288 N 
HETATM    2  C   UNL     1     -44.424 -53.997  15.173  1.00  0.00     0.116 C 
HETATM    3  C   UNL     1     -43.123 -54.264  14.861  1.00  0.00     0.138 C 
HETATM    4  C   UNL     1     -42.713 -54.111  13.428  1.00  0.00     0.279 C 
HETATM    5  O   UNL     1     -41.551 -54.265  13.056  1.00  0.00    -0.265 OA
HETATM    6  N   UNL     1     -43.708 -53.802  12.546  1.00  0.00    -0.273 N 
HETATM    7  C   UNL     1     -44.985 -53.448  12.871  1.00  0.00     0.330 C 
HETATM    8  O   UNL     1     -45.746 -53.062  11.986  1.00  0.00    -0.246 OA
HETATM    9  H   UNL     1     -43.454 -53.712  11.578  1.00  0.00     0.173 HD
ENDROOT
BRANCH   3  10
HETATM   10  N   UNL     1     -42.205 -54.766  15.826  1.00  0.00    -0.372 N 
BRANCH  10  11
HETATM   11  C   UNL     1     -42.180 -56.162  16.311  1.00  0.00     0.119 C 
HETATM   12  C   UNL     1     -40.896 -56.645  16.949  1.00  0.00     0.026 C 
ENDBRANCH  10  11
BRANCH  10  13
HETATM   13  C   UNL     1     -41.737 -53.813  16.873  1.00  0.00     0.149 C 
BRANCH  13  14
HETATM   14  C   UNL     1     -40.777 -52.762  16.287  1.00  0.00     0.186 C 
BRANCH  14  15
HETATM   15  O   UNL     1     -39.672 -53.419  15.660  1.00  0.00    -0.394 OA
HETATM   16  C   UNL     1     -39.018 -52.581  14.721  1.00  0.00     0.201 C 
ENDBRANCH  14  15
ENDBRANCH  13  14
ENDBRANCH  10  13
ENDBRANCH   3  10
BRANCH   2  17
HETATM   17  N   UNL     1     -44.840 -54.217  16.485  1.00  0.00    -0.286 NA
HETATM   18  H   UNL     1     -45.201 -55.159  16.583  1.00  0.00     0.125 HD
HETATM   19  H   UNL     1     -45.599 -53.554  16.696  1.00  0.00     0.125 HD
ENDBRANCH   2  17
BRANCH   1  20
HETATM   20  C   UNL     1     -46.682 -53.123  14.591  1.00  0.00     0.135 C 
BRANCH  20  21
HETATM   21  C   UNL     1     -46.873 -51.630  14.891  1.00  0.00     0.016 C 
HETATM   22  C   UNL     1     -47.334 -51.332  16.308  1.00  0.00     0.006 C 
ENDBRANCH  20  21
ENDBRANCH   1  20
TORSDOF 8
ENDMDL
MODEL 9
REMARK VINA RESULT:      -4.4      1.782      2.332
REMARK  8 active torsions:
REMARK  status: ('A' for Active; 'I' for Inactive)
REMARK    1  A    between atoms: C_2  and  C_3 
REMARK    2  A    between atoms: C_3  and  N_4 
REMARK    3  A    between atoms: C_5  and  N_6 
REMARK    4  A    between atoms: C_7  and  N_8 
REMARK    5  A    between atoms: N_8  and  C_9 
REMARK    6  A    between atoms: N_8  and  C_11 
REMARK    7  A    between atoms: C_11  and  C_12 
REMARK    8  A    between atoms: C_12  and  O_13 
ROOT
HETATM    1  N   UNL     1     -42.013 -46.570  10.657  1.00  0.00    -0.288 N 
HETATM    2  C   UNL     1     -42.243 -47.785  11.295  1.00  0.00     0.116 C 
HETATM    3  C   UNL     1     -41.228 -48.491  11.869  1.00  0.00     0.138 C 
HETATM    4  C   UNL     1     -39.840 -47.945  11.724  1.00  0.00     0.279 C 
HETATM    5  O   UNL     1     -38.866 -48.472  12.259  1.00  0.00    -0.265 OA
HETATM    6  N   UNL     1     -39.710 -46.829  10.950  1.00  0.00    -0.273 N 
HETATM    7  C   UNL     1     -40.733 -46.075  10.454  1.00  0.00     0.330 C 
HETATM    8  O   UNL     1     -40.479 -45.016   9.883  1.00  0.00    -0.246 OA
HETATM    9  H   UNL     1     -38.784 -46.457  10.828  1.00  0.00     0.173 HD
ENDROOT
BRANCH   3  10
HETATM   10  N   UNL     1     -41.446 -49.751  12.497  1.00  0.00    -0.372 N 
BRANCH  10  11
HETATM   11  C   UNL     1     -41.532 -49.954  13.958  1.00  0.00     0.119 C 
HETATM   12  C   UNL     1     -42.917 -50.092  14.552  1.00  0.00     0.026 C 
ENDBRANCH  10  11
BRANCH  10  13
HETATM   13  C   UNL     1     -40.897 -50.954  11.807  1.00  0.00     0.149 C 
BRANCH  13  14
HETATM   14  C   UNL     1     -40.073 -51.826  12.770  1.00  0.00     0.186 C 
BRANCH  14  15
HETATM   15  O   UNL     1     -40.280 -53.207  12.462  1.00  0.00    -0.394 OA
HETATM   16  C   UNL     1     -40.588 -53.970  13.617  1.00  0.00     0.201 C 
ENDBRANCH  14  15
ENDBRANCH  13  14
ENDBRANCH  10  13
ENDBRANCH   3  10
BRANCH   2  17
HETATM   17  N   UNL     1     -43.527 -48.325  11.349  1.00  0.00    -0.286 NA
HETATM   18  H   UNL     1     -44.209 -47.590  11.502  1.00  0.00     0.125 HD
HETATM   19  H   UNL     1     -43.568 -48.977  12.145  1.00  0.00     0.125 HD
ENDBRANCH   2  17
BRANCH   1  20
HETATM   20  C   UNL     1     -43.133 -45.754  10.162  1.00  0.00     0.135 C 
BRANCH  20  21
HETATM   21  C   UNL     1     -43.694 -46.145   8.788  1.00  0.00     0.016 C 
HETATM   22  C   UNL     1     -45.178 -46.473   8.791  1.00  0.00     0.006 C 
ENDBRANCH  20  21
ENDBRANCH   1  20
TORSDOF 8
ENDMDL
