MODEL 1
REMARK VINA RESULT:      -6.1      0.000      0.000
REMARK  6 active torsions:
REMARK  status: ('A' for Active; 'I' for Inactive)
REMARK       I    between atoms: N_2  and  C_3 
REMARK    1  A    between atoms: C_3  and  C_5 
REMARK    2  A    between atoms: C_5  and  C_6 
REMARK    3  A    between atoms: C_5  and  N_10 
REMARK    4  A    between atoms: C_6  and  C_7 
REMARK       I    between atoms: N_10  and  C_11 
REMARK    5  A    between atoms: C_11  and  C_13 
REMARK    6  A    between atoms: C_13  and  C_14 
ROOT
HETATM    1  N   UNL     1     -41.970 -51.186  11.761  1.00  0.00    -0.348 N 
HETATM    2  C   UNL     1     -42.695 -51.831  12.747  1.00  0.00     0.222 C 
HETATM    3  O   UNL     1     -42.729 -51.458  13.913  1.00  0.00    -0.273 OA
HETATM    4  H   UNL     1     -41.829 -51.677  10.885  1.00  0.00     0.163 HD
ENDROOT
BRANCH   1   5
HETATM    5  C   UNL     1     -41.030 -50.099  12.074  1.00  0.00     0.177 C 
BRANCH   5   6
HETATM    6  C   UNL     1     -39.556 -50.582  12.021  1.00  0.00     0.240 C 
HETATM    7  N   UNL     1     -38.778 -49.856  11.134  1.00  0.00    -0.364 N 
HETATM    8  C   UNL     1     -37.346 -50.020  11.104  1.00  0.00     0.149 C 
HETATM    9  H   UNL     1     -39.169 -48.989  10.789  1.00  0.00     0.161 HD
HETATM   10  O   UNL     1     -39.150 -51.587  12.597  1.00  0.00    -0.271 OA
ENDBRANCH   5   6
BRANCH   5  11
HETATM   11  C   UNL     1     -41.239 -48.806  11.265  1.00  0.00     0.038 C 
BRANCH  11  12
HETATM   12  C   UNL     1     -42.685 -48.257  11.222  1.00  0.00    -0.020 C 
HETATM   13  C   UNL     1     -42.982 -47.177  12.266  1.00  0.00     0.009 C 
HETATM   14  C   UNL     1     -42.968 -47.674   9.826  1.00  0.00     0.009 C 
ENDBRANCH  11  12
ENDBRANCH   5  11
ENDBRANCH   1   5
BRANCH   2  15
HETATM   15  C   UNL     1     -43.507 -53.033  12.281  1.00  0.00     0.146 C 
BRANCH  15  16
HETATM   16  C   UNL     1     -44.638 -53.373  13.192  1.00  0.00     0.006 A 
HETATM   17  C   UNL     1     -45.978 -52.892  13.149  1.00  0.00     0.038 A 
HETATM   18  C   UNL     1     -46.612 -51.934  12.210  1.00  0.00     0.071 C 
HETATM   19  N   UNL     1     -46.730 -53.440  14.109  1.00  0.00    -0.265 N 
HETATM   20  O   UNL     1     -45.904 -54.312  14.783  1.00  0.00    -0.242 OA
ATOM     21  HN  UNL     1     -47.714 -53.252  14.303  1.00  0.00     0.194 HD
HETATM   22  C   UNL     1     -44.663 -54.283  14.231  1.00  0.00     0.081 A 
HETATM   23  C   UNL     1     -43.677 -55.202  14.829  1.00  0.00     0.079 C 
ENDBRANCH  15  16
ENDBRANCH   2  15
TORSDOF 6
ENDMDL
MODEL 2
REMARK VINA RESULT:      -6.0      0.450      1.816
REMARK  6 active torsions:
REMARK  status: ('A' for Active; 'I' for Inactive)
REMARK       I    between atoms: N_2  and  C_3 
REMARK    1  A    between atoms: C_3  and  C_5 
REMARK    2  A    between atoms: C_5  and  C_6 
REMARK    3  A    between atoms: C_5  and  N_10 
REMARK    4  A    between atoms: C_6  and  C_7 
REMARK       I    between atoms: N_10  and  C_11 
REMARK    5  A    between atoms: C_11  and  C_13 
REMARK    6  A    between atoms: C_13  and  C_14 
ROOT
HETATM    1  N   UNL     1     -41.954 -51.197  11.773  1.00  0.00    -0.348 N 
HETATM    2  C   UNL     1     -42.663 -51.840  12.771  1.00  0.00     0.222 C 
HETATM    3  O   UNL     1     -42.683 -51.464  13.936  1.00  0.00    -0.273 OA
HETATM    4  H   UNL     1     -41.823 -51.690  10.896  1.00  0.00     0.163 HD
ENDROOT
BRANCH   1   5
HETATM    5  C   UNL     1     -41.014 -50.105  12.070  1.00  0.00     0.177 C 
BRANCH   5   6
HETATM    6  C   UNL     1     -39.539 -50.589  12.015  1.00  0.00     0.240 C 
HETATM    7  N   UNL     1     -38.767 -49.873  11.114  1.00  0.00    -0.364 N 
HETATM    8  C   UNL     1     -37.335 -50.037  11.078  1.00  0.00     0.149 C 
HETATM    9  H   UNL     1     -39.160 -49.011  10.759  1.00  0.00     0.161 HD
HETATM   10  O   UNL     1     -39.129 -51.585  12.602  1.00  0.00    -0.271 OA
ENDBRANCH   5   6
BRANCH   5  11
HETATM   11  C   UNL     1     -41.227 -48.822  11.248  1.00  0.00     0.038 C 
BRANCH  11  12
HETATM   12  C   UNL     1     -42.672 -48.270  11.212  1.00  0.00    -0.020 C 
HETATM   13  C   UNL     1     -42.970 -47.209  12.275  1.00  0.00     0.009 C 
HETATM   14  C   UNL     1     -42.952 -47.661   9.826  1.00  0.00     0.009 C 
ENDBRANCH  11  12
ENDBRANCH   5  11
ENDBRANCH   1   5
BRANCH   2  15
HETATM   15  C   UNL     1     -43.478 -53.047  12.319  1.00  0.00     0.146 C 
BRANCH  15  16
HETATM   16  C   UNL     1     -44.615 -53.369  13.230  1.00  0.00     0.006 A 
HETATM   17  C   UNL     1     -44.633 -54.274  14.330  1.00  0.00     0.038 A 
HETATM   18  C   UNL     1     -43.550 -55.136  14.866  1.00  0.00     0.071 C 
HETATM   19  N   UNL     1     -45.822 -54.284  14.941  1.00  0.00    -0.265 N 
HETATM   20  O   UNL     1     -46.598 -53.365  14.271  1.00  0.00    -0.242 OA
ATOM     21  HN  UNL     1     -46.098 -54.854  15.740  1.00  0.00     0.194 HD
HETATM   22  C   UNL     1     -45.878 -52.811  13.260  1.00  0.00     0.081 A 
HETATM   23  C   UNL     1     -46.573 -51.774  12.476  1.00  0.00     0.079 C 
ENDBRANCH  15  16
ENDBRANCH   2  15
TORSDOF 6
ENDMDL
MODEL 3
REMARK VINA RESULT:      -5.9      2.601      4.050
REMARK  6 active torsions:
REMARK  status: ('A' for Active; 'I' for Inactive)
REMARK       I    between atoms: N_2  and  C_3 
REMARK    1  A    between atoms: C_3  and  C_5 
REMARK    2  A    between atoms: C_5  and  C_6 
REMARK    3  A    between atoms: C_5  and  N_10 
REMARK    4  A    between atoms: C_6  and  C_7 
REMARK       I    between atoms: N_10  and  C_11 
REMARK    5  A    between atoms: C_11  and  C_13 
REMARK    6  A    between atoms: C_13  and  C_14 
ROOT
HETATM    1  N   UNL     1     -43.196 -48.901  12.219  1.00  0.00    -0.348 N 
HETATM    2  C   UNL     1     -42.536 -49.871  12.951  1.00  0.00     0.222 C 
HETATM    3  O   UNL     1     -41.322 -50.032  12.918  1.00  0.00    -0.273 OA
HETATM    4  H   UNL     1     -44.205 -48.974  12.143  1.00  0.00     0.163 HD
ENDROOT
BRANCH   1   5
HETATM    5  C   UNL     1     -42.508 -48.096  11.198  1.00  0.00     0.177 C 
BRANCH   5   6
HETATM    6  C   UNL     1     -43.425 -47.815   9.977  1.00  0.00     0.240 C 
HETATM    7  N   UNL     1     -42.766 -47.936   8.764  1.00  0.00    -0.364 N 
HETATM    8  C   UNL     1     -43.499 -47.919   7.523  1.00  0.00     0.149 C 
HETATM    9  H   UNL     1     -41.859 -48.384   8.780  1.00  0.00     0.161 HD
HETATM   10  O   UNL     1     -44.575 -47.397  10.074  1.00  0.00    -0.271 OA
ENDBRANCH   5   6
BRANCH   5  11
HETATM   11  C   UNL     1     -41.842 -46.811  11.722  1.00  0.00     0.038 C 
BRANCH  11  12
HETATM   12  C   UNL     1     -40.311 -46.707  11.517  1.00  0.00    -0.020 C 
HETATM   13  C   UNL     1     -39.875 -45.577  10.580  1.00  0.00     0.009 C 
HETATM   14  C   UNL     1     -39.627 -46.499  12.880  1.00  0.00     0.009 C 
ENDBRANCH  11  12
ENDBRANCH   5  11
ENDBRANCH   1   5
BRANCH   2  15
HETATM   15  C   UNL     1     -43.418 -50.719  13.858  1.00  0.00     0.146 C 
BRANCH  15  16
HETATM   16  C   UNL     1     -43.907 -51.971  13.208  1.00  0.00     0.006 A 
HETATM   17  C   UNL     1     -43.175 -53.160  12.926  1.00  0.00     0.038 A 
HETATM   18  C   UNL     1     -41.749 -53.481  13.189  1.00  0.00     0.071 C 
HETATM   19  N   UNL     1     -43.948 -54.093  12.363  1.00  0.00    -0.265 N 
HETATM   20  O   UNL     1     -45.209 -53.544  12.290  1.00  0.00    -0.242 OA
ATOM     21  HN  UNL     1     -43.664 -55.022  12.051  1.00  0.00     0.194 HD
HETATM   22  C   UNL     1     -45.189 -52.286  12.803  1.00  0.00     0.081 A 
HETATM   23  C   UNL     1     -46.486 -51.587  12.828  1.00  0.00     0.079 C 
ENDBRANCH  15  16
ENDBRANCH   2  15
TORSDOF 6
ENDMDL
MODEL 4
REMARK VINA RESULT:      -5.8      2.406      3.898
REMARK  6 active torsions:
REMARK  status: ('A' for Active; 'I' for Inactive)
REMARK       I    between atoms: N_2  and  C_3 
REMARK    1  A    between atoms: C_3  and  C_5 
REMARK    2  A    between atoms: C_5  and  C_6 
REMARK    3  A    between atoms: C_5  and  N_10 
REMARK    4  A    between atoms: C_6  and  C_7 
REMARK       I    between atoms: N_10  and  C_11 
REMARK    5  A    between atoms: C_11  and  C_13 
REMARK    6  A    between atoms: C_13  and  C_14 
ROOT
HETATM    1  N   UNL     1     -40.641 -50.856  11.129  1.00  0.00    -0.348 N 
HETATM    2  C   UNL     1     -41.347 -51.459  12.154  1.00  0.00     0.222 C 
HETATM    3  O   UNL     1     -41.681 -50.875  13.178  1.00  0.00    -0.273 OA
HETATM    4  H   UNL     1     -40.228 -51.458  10.425  1.00  0.00     0.163 HD
ENDROOT
BRANCH   1   5
HETATM    5  C   UNL     1     -40.074 -49.506  11.266  1.00  0.00     0.177 C 
BRANCH   5   6
HETATM    6  C   UNL     1     -41.157 -48.409  11.084  1.00  0.00     0.240 C 
HETATM    7  N   UNL     1     -41.732 -48.418   9.823  1.00  0.00    -0.364 N 
HETATM    8  C   UNL     1     -42.896 -47.616   9.538  1.00  0.00     0.149 C 
HETATM    9  H   UNL     1     -41.557 -49.232   9.248  1.00  0.00     0.161 HD
HETATM   10  O   UNL     1     -41.387 -47.537  11.916  1.00  0.00    -0.271 OA
ENDBRANCH   5   6
BRANCH   5  11
HETATM   11  C   UNL     1     -39.236 -49.278  12.537  1.00  0.00     0.038 C 
BRANCH  11  12
HETATM   12  C   UNL     1     -37.773 -49.781  12.485  1.00  0.00    -0.020 C 
HETATM   13  C   UNL     1     -37.549 -51.139  13.155  1.00  0.00     0.009 C 
HETATM   14  C   UNL     1     -37.320 -49.883  11.017  1.00  0.00     0.009 C 
ENDBRANCH  11  12
ENDBRANCH   5  11
ENDBRANCH   1   5
BRANCH   2  15
HETATM   15  C   UNL     1     -41.737 -52.912  11.913  1.00  0.00     0.146 C 
BRANCH  15  16
HETATM   16  C   UNL     1     -41.967 -53.680  13.172  1.00  0.00     0.006 A 
HETATM   17  C   UNL     1     -43.203 -54.152  13.702  1.00  0.00     0.038 A 
HETATM   18  C   UNL     1     -44.580 -54.011  13.166  1.00  0.00     0.071 C 
HETATM   19  N   UNL     1     -43.024 -54.833  14.838  1.00  0.00    -0.265 N 
HETATM   20  O   UNL     1     -41.665 -54.845  15.060  1.00  0.00    -0.242 OA
ATOM     21  HN  UNL     1     -43.745 -55.257  15.421  1.00  0.00     0.194 HD
HETATM   22  C   UNL     1     -41.033 -54.170  14.064  1.00  0.00     0.081 A 
HETATM   23  C   UNL     1     -39.562 -54.135  14.150  1.00  0.00     0.079 C 
ENDBRANCH  15  16
ENDBRANCH   2  15
TORSDOF 6
ENDMDL
MODEL 5
REMARK VINA RESULT:      -5.8      2.078      3.968
REMARK  6 active torsions:
REMARK  status: ('A' for Active; 'I' for Inactive)
REMARK       I    between atoms: N_2  and  C_3 
REMARK    1  A    between atoms: C_3  and  C_5 
REMARK    2  A    between atoms: C_5  and  C_6 
REMARK    3  A    between atoms: C_5  and  N_10 
REMARK    4  A    between atoms: C_6  and  C_7 
REMARK       I    between atoms: N_10  and  C_11 
REMARK    5  A    between atoms: C_11  and  C_13 
REMARK    6  A    between atoms: C_13  and  C_14 
ROOT
HETATM    1  N   UNL     1     -41.754 -49.530  12.474  1.00  0.00    -0.348 N 
HETATM    2  C   UNL     1     -42.140 -50.855  12.560  1.00  0.00     0.222 C 
HETATM    3  O   UNL     1     -41.669 -51.743  11.860  1.00  0.00    -0.273 OA
HETATM    4  H   UNL     1     -42.337 -48.840  12.934  1.00  0.00     0.163 HD
ENDROOT
BRANCH   1   5
HETATM    5  C   UNL     1     -40.870 -49.048  11.402  1.00  0.00     0.177 C 
BRANCH   5   6
HETATM    6  C   UNL     1     -41.523 -47.892  10.597  1.00  0.00     0.240 C 
HETATM    7  N   UNL     1     -42.533 -48.323   9.752  1.00  0.00    -0.364 N 
HETATM    8  C   UNL     1     -43.392 -47.375   9.087  1.00  0.00     0.149 C 
HETATM    9  H   UNL     1     -42.877 -49.264   9.894  1.00  0.00     0.161 HD
HETATM   10  O   UNL     1     -41.104 -46.739  10.603  1.00  0.00    -0.271 OA
ENDBRANCH   5   6
BRANCH   5  11
HETATM   11  C   UNL     1     -39.439 -48.697  11.847  1.00  0.00     0.038 C 
BRANCH  11  12
HETATM   12  C   UNL     1     -38.481 -49.895  12.061  1.00  0.00    -0.020 C 
HETATM   13  C   UNL     1     -37.325 -49.965  11.060  1.00  0.00     0.009 C 
HETATM   14  C   UNL     1     -37.891 -49.829  13.481  1.00  0.00     0.009 C 
ENDBRANCH  11  12
ENDBRANCH   5  11
ENDBRANCH   1   5
BRANCH   2  15
HETATM   15  C   UNL     1     -43.177 -51.166  13.633  1.00  0.00     0.146 C 
BRANCH  15  16
HETATM   16  C   UNL     1     -43.972 -52.396  13.351  1.00  0.00     0.006 A 
HETATM   17  C   UNL     1     -43.599 -53.754  13.565  1.00  0.00     0.038 A 
HETATM   18  C   UNL     1     -42.339 -54.316  14.114  1.00  0.00     0.071 C 
HETATM   19  N   UNL     1     -44.580 -54.595  13.223  1.00  0.00    -0.265 N 
HETATM   20  O   UNL     1     -45.625 -53.804  12.804  1.00  0.00    -0.242 OA
ATOM     21  HN  UNL     1     -44.559 -55.614  13.265  1.00  0.00     0.194 HD
HETATM   22  C   UNL     1     -45.271 -52.495  12.890  1.00  0.00     0.081 A 
HETATM   23  C   UNL     1     -46.313 -51.525  12.509  1.00  0.00     0.079 C 
ENDBRANCH  15  16
ENDBRANCH   2  15
TORSDOF 6
ENDMDL
MODEL 6
REMARK VINA RESULT:      -5.8      2.479      4.255
REMARK  6 active torsions:
REMARK  status: ('A' for Active; 'I' for Inactive)
REMARK       I    between atoms: N_2  and  C_3 
REMARK    1  A    between atoms: C_3  and  C_5 
REMARK    2  A    between atoms: C_5  and  C_6 
REMARK    3  A    between atoms: C_5  and  N_10 
REMARK    4  A    between atoms: C_6  and  C_7 
REMARK       I    between atoms: N_10  and  C_11 
REMARK    5  A    between atoms: C_11  and  C_13 
REMARK    6  A    between atoms: C_13  and  C_14 
ROOT
HETATM    1  N   UNL     1     -40.469 -50.843  11.096  1.00  0.00    -0.348 N 
HETATM    2  C   UNL     1     -41.078 -51.520  12.137  1.00  0.00     0.222 C 
HETATM    3  O   UNL     1     -41.443 -50.978  13.173  1.00  0.00    -0.273 OA
HETATM    4  H   UNL     1     -40.014 -51.396  10.378  1.00  0.00     0.163 HD
ENDROOT
BRANCH   1   5
HETATM    5  C   UNL     1     -40.044 -49.441  11.224  1.00  0.00     0.177 C 
BRANCH   5   6
HETATM    6  C   UNL     1     -41.247 -48.465  11.100  1.00  0.00     0.240 C 
HETATM    7  N   UNL     1     -41.728 -48.360   9.805  1.00  0.00    -0.364 N 
HETATM    8  C   UNL     1     -42.963 -47.670   9.532  1.00  0.00     0.149 C 
HETATM    9  H   UNL     1     -41.409 -49.054   9.142  1.00  0.00     0.161 HD
HETATM   10  O   UNL     1     -41.644 -47.757  12.020  1.00  0.00    -0.271 OA
ENDBRANCH   5   6
BRANCH   5  11
HETATM   11  C   UNL     1     -39.182 -49.132  12.461  1.00  0.00     0.038 C 
BRANCH  11  12
HETATM   12  C   UNL     1     -37.728 -49.660  12.424  1.00  0.00    -0.020 C 
HETATM   13  C   UNL     1     -37.512 -50.969  13.190  1.00  0.00     0.009 C 
HETATM   14  C   UNL     1     -37.301 -49.877  10.962  1.00  0.00     0.009 C 
ENDBRANCH  11  12
ENDBRANCH   5  11
ENDBRANCH   1   5
BRANCH   2  15
HETATM   15  C   UNL     1     -41.318 -53.006  11.899  1.00  0.00     0.146 C 
BRANCH  15  16
HETATM   16  C   UNL     1     -41.681 -53.753  13.139  1.00  0.00     0.006 A 
HETATM   17  C   UNL     1     -40.827 -54.160  14.204  1.00  0.00     0.038 A 
HETATM   18  C   UNL     1     -39.366 -53.962  14.376  1.00  0.00     0.071 C 
HETATM   19  N   UNL     1     -41.506 -54.785  15.170  1.00  0.00    -0.265 N 
HETATM   20  O   UNL     1     -42.824 -54.777  14.769  1.00  0.00    -0.242 OA
ATOM     21  HN  UNL     1     -41.128 -55.186  16.028  1.00  0.00     0.194 HD
HETATM   22  C   UNL     1     -42.932 -54.153  13.567  1.00  0.00     0.081 A 
HETATM   23  C   UNL     1     -44.299 -54.034  13.031  1.00  0.00     0.079 C 
ENDBRANCH  15  16
ENDBRANCH   2  15
TORSDOF 6
ENDMDL
MODEL 7
REMARK VINA RESULT:      -5.5      1.906      6.391
REMARK  6 active torsions:
REMARK  status: ('A' for Active; 'I' for Inactive)
REMARK       I    between atoms: N_2  and  C_3 
REMARK    1  A    between atoms: C_3  and  C_5 
REMARK    2  A    between atoms: C_5  and  C_6 
REMARK    3  A    between atoms: C_5  and  N_10 
REMARK    4  A    between atoms: C_6  and  C_7 
REMARK       I    between atoms: N_10  and  C_11 
REMARK    5  A    between atoms: C_11  and  C_13 
REMARK    6  A    between atoms: C_13  and  C_14 
ROOT
HETATM    1  N   UNL     1     -43.198 -52.296  13.798  1.00  0.00    -0.348 N 
HETATM    2  C   UNL     1     -41.849 -52.232  13.501  1.00  0.00     0.222 C 
HETATM    3  O   UNL     1     -41.236 -53.136  12.947  1.00  0.00    -0.273 OA
HETATM    4  H   UNL     1     -43.572 -51.604  14.437  1.00  0.00     0.163 HD
ENDROOT
BRANCH   1   5
HETATM    5  C   UNL     1     -43.971 -53.537  13.633  1.00  0.00     0.177 C 
BRANCH   5   6
HETATM    6  C   UNL     1     -43.898 -54.430  14.901  1.00  0.00     0.240 C 
HETATM    7  N   UNL     1     -42.686 -55.089  15.031  1.00  0.00    -0.364 N 
HETATM    8  C   UNL     1     -42.357 -55.793  16.245  1.00  0.00     0.149 C 
HETATM    9  H   UNL     1     -41.929 -54.773  14.439  1.00  0.00     0.161 HD
HETATM   10  O   UNL     1     -44.855 -54.641  15.639  1.00  0.00    -0.271 OA
ENDBRANCH   5   6
BRANCH   5  11
HETATM   11  C   UNL     1     -45.420 -53.341  13.153  1.00  0.00     0.038 C 
BRANCH  11  12
HETATM   12  C   UNL     1     -45.913 -51.877  13.060  1.00  0.00    -0.020 C 
HETATM   13  C   UNL     1     -46.856 -51.602  11.885  1.00  0.00     0.009 C 
HETATM   14  C   UNL     1     -46.640 -51.500  14.363  1.00  0.00     0.009 C 
ENDBRANCH  11  12
ENDBRANCH   5  11
ENDBRANCH   1   5
BRANCH   2  15
HETATM   15  C   UNL     1     -41.160 -50.924  13.869  1.00  0.00     0.146 C 
BRANCH  15  16
HETATM   16  C   UNL     1     -40.875 -50.053  12.691  1.00  0.00     0.006 A 
HETATM   17  C   UNL     1     -39.656 -49.926  11.965  1.00  0.00     0.038 A 
HETATM   18  C   UNL     1     -38.353 -50.607  12.171  1.00  0.00     0.071 C 
HETATM   19  N   UNL     1     -39.777 -49.071  10.945  1.00  0.00    -0.265 N 
HETATM   20  O   UNL     1     -41.084 -48.640  10.967  1.00  0.00    -0.242 OA
ATOM     21  HN  UNL     1     -39.050 -48.793  10.285  1.00  0.00     0.194 HD
HETATM   22  C   UNL     1     -41.743 -49.232  11.997  1.00  0.00     0.081 A 
HETATM   23  C   UNL     1     -43.172 -48.894  12.120  1.00  0.00     0.079 C 
ENDBRANCH  15  16
ENDBRANCH   2  15
TORSDOF 6
ENDMDL
MODEL 8
REMARK VINA RESULT:      -5.4      2.175      3.122
REMARK  6 active torsions:
REMARK  status: ('A' for Active; 'I' for Inactive)
REMARK       I    between atoms: N_2  and  C_3 
REMARK    1  A    between atoms: C_3  and  C_5 
REMARK    2  A    between atoms: C_5  and  C_6 
REMARK    3  A    between atoms: C_5  and  N_10 
REMARK    4  A    between atoms: C_6  and  C_7 
REMARK       I    between atoms: N_10  and  C_11 
REMARK    5  A    between atoms: C_11  and  C_13 
REMARK    6  A    between atoms: C_13  and  C_14 
ROOT
HETATM    1  N   UNL     1     -42.425 -49.521  12.542  1.00  0.00    -0.348 N 
HETATM    2  C   UNL     1     -42.505 -50.882  12.774  1.00  0.00     0.222 C 
HETATM    3  O   UNL     1     -41.963 -51.720  12.066  1.00  0.00    -0.273 OA
HETATM    4  H   UNL     1     -43.069 -48.919  13.044  1.00  0.00     0.163 HD
ENDROOT
BRANCH   1   5
HETATM    5  C   UNL     1     -41.827 -48.977  11.313  1.00  0.00     0.177 C 
BRANCH   5   6
HETATM    6  C   UNL     1     -42.829 -48.080  10.537  1.00  0.00     0.240 C 
HETATM    7  N   UNL     1     -42.601 -48.068   9.170  1.00  0.00    -0.364 N 
HETATM    8  C   UNL     1     -43.551 -47.465   8.270  1.00  0.00     0.149 C 
HETATM    9  H   UNL     1     -41.977 -48.776   8.806  1.00  0.00     0.161 HD
HETATM   10  O   UNL     1     -43.650 -47.350  11.083  1.00  0.00    -0.271 OA
ENDBRANCH   5   6
BRANCH   5  11
HETATM   11  C   UNL     1     -40.466 -48.283  11.504  1.00  0.00     0.038 C 
BRANCH  11  12
HETATM   12  C   UNL     1     -40.516 -46.805  11.962  1.00  0.00    -0.020 C 
HETATM   13  C   UNL     1     -39.749 -46.520  13.256  1.00  0.00     0.009 C 
HETATM   14  C   UNL     1     -39.944 -45.907  10.850  1.00  0.00     0.009 C 
ENDBRANCH  11  12
ENDBRANCH   5  11
ENDBRANCH   1   5
BRANCH   2  15
HETATM   15  C   UNL     1     -43.287 -51.288  14.017  1.00  0.00     0.146 C 
BRANCH  15  16
HETATM   16  C   UNL     1     -44.115 -52.514  13.823  1.00  0.00     0.006 A 
HETATM   17  C   UNL     1     -45.457 -52.605  13.354  1.00  0.00     0.038 A 
HETATM   18  C   UNL     1     -46.392 -51.528  12.939  1.00  0.00     0.071 C 
HETATM   19  N   UNL     1     -45.868 -53.874  13.276  1.00  0.00    -0.265 N 
HETATM   20  O   UNL     1     -44.794 -54.642  13.667  1.00  0.00    -0.242 OA
ATOM     21  HN  UNL     1     -46.788 -54.206  12.987  1.00  0.00     0.194 HD
HETATM   22  C   UNL     1     -43.747 -53.836  13.981  1.00  0.00     0.081 A 
HETATM   23  C   UNL     1     -42.507 -54.526  14.380  1.00  0.00     0.079 C 
ENDBRANCH  15  16
ENDBRANCH   2  15
TORSDOF 6
ENDMDL
MODEL 9
REMARK VINA RESULT:      -5.4      2.678      6.252
REMARK  6 active torsions:
REMARK  status: ('A' for Active; 'I' for Inactive)
REMARK       I    between atoms: N_2  and  C_3 
REMARK    1  A    between atoms: C_3  and  C_5 
REMARK    2  A    between atoms: C_5  and  C_6 
REMARK    3  A    between atoms: C_5  and  N_10 
REMARK    4  A    between atoms: C_6  and  C_7 
REMARK       I    between atoms: N_10  and  C_11 
REMARK    5  A    between atoms: C_11  and  C_13 
REMARK    6  A    between atoms: C_13  and  C_14 
ROOT
HETATM    1  N   UNL     1     -42.097 -50.444  11.930  1.00  0.00    -0.348 N 
HETATM    2  C   UNL     1     -41.987 -49.146  11.467  1.00  0.00     0.222 C 
HETATM    3  O   UNL     1     -41.072 -48.760  10.750  1.00  0.00    -0.273 OA
HETATM    4  H   UNL     1     -42.758 -50.622  12.679  1.00  0.00     0.163 HD
ENDROOT
BRANCH   1   5
HETATM    5  C   UNL     1     -41.018 -51.427  11.747  1.00  0.00     0.177 C 
BRANCH   5   6
HETATM    6  C   UNL     1     -39.708 -50.978  12.450  1.00  0.00     0.240 C 
HETATM    7  N   UNL     1     -38.716 -50.603  11.559  1.00  0.00    -0.364 N 
HETATM    8  C   UNL     1     -37.512 -49.961  12.025  1.00  0.00     0.149 C 
HETATM    9  H   UNL     1     -38.997 -50.456  10.598  1.00  0.00     0.161 HD
HETATM   10  O   UNL     1     -39.519 -51.074  13.659  1.00  0.00    -0.271 OA
ENDBRANCH   5   6
BRANCH   5  11
HETATM   11  C   UNL     1     -41.392 -52.877  12.104  1.00  0.00     0.038 C 
BRANCH  11  12
HETATM   12  C   UNL     1     -42.538 -53.050  13.130  1.00  0.00    -0.020 C 
HETATM   13  C   UNL     1     -43.874 -53.478  12.517  1.00  0.00     0.009 C 
HETATM   14  C   UNL     1     -42.128 -54.098  14.181  1.00  0.00     0.009 C 
ENDBRANCH  11  12
ENDBRANCH   5  11
ENDBRANCH   1   5
BRANCH   2  15
HETATM   15  C   UNL     1     -43.121 -48.210  11.868  1.00  0.00     0.146 C 
BRANCH  15  16
HETATM   16  C   UNL     1     -43.085 -46.897  11.160  1.00  0.00     0.006 A 
HETATM   17  C   UNL     1     -42.605 -45.648  11.646  1.00  0.00     0.038 A 
HETATM   18  C   UNL     1     -42.021 -45.306  12.967  1.00  0.00     0.071 C 
HETATM   19  N   UNL     1     -42.700 -44.688  10.720  1.00  0.00    -0.265 N 
HETATM   20  O   UNL     1     -43.220 -45.297   9.600  1.00  0.00    -0.242 OA
ATOM     21  HN  UNL     1     -42.441 -43.707  10.822  1.00  0.00     0.194 HD
HETATM   22  C   UNL     1     -43.439 -46.613   9.855  1.00  0.00     0.081 A 
HETATM   23  C   UNL     1     -43.960 -47.404   8.725  1.00  0.00     0.079 C 
ENDBRANCH  15  16
ENDBRANCH   2  15
TORSDOF 6
ENDMDL
