MODEL 1
REMARK VINA RESULT:      -5.9      0.000      0.000
REMARK  4 active torsions:
REMARK  status: ('A' for Active; 'I' for Inactive)
REMARK       I    between atoms: C_2  and  N_3 
REMARK       I    between atoms: C_2  and  N_12 
REMARK    1  A    between atoms: N_3  and  C_4 
REMARK    2  A    between atoms: C_4  and  C_5 
REMARK    3  A    between atoms: C_5  and  N_6 
REMARK    4  A    between atoms: C_16  and  N_18 
ROOT
HETATM    1  O   UNL     1     -40.592 -46.737  12.868  1.00  0.00    -0.247 OA
HETATM    2  C   UNL     1     -40.117 -47.591  12.121  1.00  0.00     0.318 C 
HETATM    3  N   UNL     1     -40.654 -47.821  10.879  1.00  0.00    -0.341 N 
HETATM    4  N   UNL     1     -39.007 -48.340  12.449  1.00  0.00    -0.332 N 
HETATM    5  C   UNL     1     -38.334 -49.343  11.629  1.00  0.00     0.127 C 
HETATM    6  C   UNL     1     -38.216 -50.647  12.413  1.00  0.00     0.022 C 
HETATM    7  C   UNL     1     -37.506 -50.431  13.755  1.00  0.00     0.039 C 
HETATM    8  C   UNL     1     -38.189 -49.326  14.595  1.00  0.00     0.241 C 
HETATM    9  C   UNL     1     -38.328 -48.054  13.718  1.00  0.00     0.163 C 
HETATM   10  H   UNL     1     -40.643 -48.789  10.601  1.00  0.00     0.164 HD
ENDROOT
BRANCH   3  11
HETATM   11  C   UNL     1     -41.825 -47.068  10.446  1.00  0.00     0.144 C 
BRANCH  11  12
HETATM   12  C   UNL     1     -42.745 -47.849   9.502  1.00  0.00     0.149 C 
BRANCH  12  13
HETATM   13  N   UNL     1     -44.022 -47.193   9.311  1.00  0.00    -0.350 N 
HETATM   14  C   UNL     1     -45.254 -47.779   9.372  1.00  0.00     0.108 A 
HETATM   15  C   UNL     1     -46.138 -46.774   9.053  1.00  0.00     0.106 A 
HETATM   16  N   UNL     1     -45.474 -45.599   8.813  1.00  0.00    -0.361 N 
HETATM   17  C   UNL     1     -44.199 -45.883   8.965  1.00  0.00     0.182 A 
ATOM     18  HN  UNL     1     -45.882 -44.696   8.568  1.00  0.00     0.166 HD
ENDBRANCH  12  13
ENDBRANCH  11  12
ENDBRANCH   3  11
BRANCH   8  19
HETATM   19  N   UNL     1     -37.446 -49.073  15.849  1.00  0.00     0.094 N 
HETATM   20  C   UNL     1     -36.619 -47.857  15.805  1.00  0.00     0.273 C 
HETATM   21  C   UNL     1     -35.407 -48.131  16.693  1.00  0.00     0.032 C 
HETATM   22  C   UNL     1     -35.628 -49.527  17.242  1.00  0.00     0.032 C 
HETATM   23  C   UNL     1     -36.535 -50.166  16.213  1.00  0.00     0.273 C 
ENDBRANCH   8  19
TORSDOF 4
ENDMDL
MODEL 2
REMARK VINA RESULT:      -5.9      2.859      3.724
REMARK  4 active torsions:
REMARK  status: ('A' for Active; 'I' for Inactive)
REMARK       I    between atoms: C_2  and  N_3 
REMARK       I    between atoms: C_2  and  N_12 
REMARK    1  A    between atoms: N_3  and  C_4 
REMARK    2  A    between atoms: C_4  and  C_5 
REMARK    3  A    between atoms: C_5  and  N_6 
REMARK    4  A    between atoms: C_16  and  N_18 
ROOT
HETATM    1  O   UNL     1     -43.144 -48.433  11.640  1.00  0.00    -0.247 OA
HETATM    2  C   UNL     1     -42.012 -47.960  11.552  1.00  0.00     0.318 C 
HETATM    3  N   UNL     1     -41.788 -46.785  10.881  1.00  0.00    -0.341 N 
HETATM    4  N   UNL     1     -40.910 -48.539  12.143  1.00  0.00    -0.332 N 
HETATM    5  C   UNL     1     -39.535 -48.046  12.143  1.00  0.00     0.127 C 
HETATM    6  C   UNL     1     -38.601 -49.141  11.636  1.00  0.00     0.022 C 
HETATM    7  C   UNL     1     -38.749 -50.429  12.456  1.00  0.00     0.039 C 
HETATM    8  C   UNL     1     -40.218 -50.914  12.501  1.00  0.00     0.241 C 
HETATM    9  C   UNL     1     -41.113 -49.736  12.967  1.00  0.00     0.163 C 
HETATM   10  H   UNL     1     -40.918 -46.762  10.374  1.00  0.00     0.164 HD
ENDROOT
BRANCH   3  11
HETATM   11  C   UNL     1     -42.898 -46.098  10.232  1.00  0.00     0.144 C 
BRANCH  11  12
HETATM   12  C   UNL     1     -43.112 -46.513   8.773  1.00  0.00     0.149 C 
BRANCH  12  13
HETATM   13  N   UNL     1     -44.368 -47.208   8.576  1.00  0.00    -0.350 N 
HETATM   14  C   UNL     1     -45.504 -47.058   9.318  1.00  0.00     0.108 A 
HETATM   15  C   UNL     1     -46.389 -47.973   8.796  1.00  0.00     0.106 A 
HETATM   16  N   UNL     1     -45.821 -48.661   7.755  1.00  0.00    -0.361 N 
HETATM   17  C   UNL     1     -44.599 -48.187   7.652  1.00  0.00     0.182 A 
ATOM     18  HN  UNL     1     -46.254 -49.386   7.183  1.00  0.00     0.166 HD
ENDBRANCH  12  13
ENDBRANCH  11  12
ENDBRANCH   3  11
BRANCH   8  19
HETATM   19  N   UNL     1     -40.358 -52.109  13.362  1.00  0.00     0.094 N 
HETATM   20  C   UNL     1     -39.098 -52.522  14.000  1.00  0.00     0.273 C 
HETATM   21  C   UNL     1     -39.167 -54.042  14.139  1.00  0.00     0.032 C 
HETATM   22  C   UNL     1     -40.523 -54.428  13.583  1.00  0.00     0.032 C 
HETATM   23  C   UNL     1     -40.849 -53.290  12.640  1.00  0.00     0.273 C 
ENDBRANCH   8  19
TORSDOF 4
ENDMDL
MODEL 3
REMARK VINA RESULT:      -5.9      3.410      4.048
REMARK  4 active torsions:
REMARK  status: ('A' for Active; 'I' for Inactive)
REMARK       I    between atoms: C_2  and  N_3 
REMARK       I    between atoms: C_2  and  N_12 
REMARK    1  A    between atoms: N_3  and  C_4 
REMARK    2  A    between atoms: C_4  and  C_5 
REMARK    3  A    between atoms: C_5  and  N_6 
REMARK    4  A    between atoms: C_16  and  N_18 
ROOT
HETATM    1  O   UNL     1     -40.622 -49.277  12.995  1.00  0.00    -0.247 OA
HETATM    2  C   UNL     1     -41.357 -50.097  12.448  1.00  0.00     0.318 C 
HETATM    3  N   UNL     1     -42.401 -49.692  11.655  1.00  0.00    -0.341 N 
HETATM    4  N   UNL     1     -41.168 -51.459  12.551  1.00  0.00    -0.332 N 
HETATM    5  C   UNL     1     -41.945 -52.518  11.913  1.00  0.00     0.127 C 
HETATM    6  C   UNL     1     -42.426 -53.506  12.972  1.00  0.00     0.022 C 
HETATM    7  C   UNL     1     -41.255 -54.065  13.789  1.00  0.00     0.039 C 
HETATM    8  C   UNL     1     -40.401 -52.936  14.415  1.00  0.00     0.241 C 
HETATM    9  C   UNL     1     -39.999 -51.942  13.294  1.00  0.00     0.163 C 
HETATM   10  H   UNL     1     -43.220 -50.274  11.727  1.00  0.00     0.164 HD
ENDROOT
BRANCH   3  11
HETATM   11  C   UNL     1     -42.670 -48.269  11.482  1.00  0.00     0.144 C 
BRANCH  11  12
HETATM   12  C   UNL     1     -42.683 -47.818  10.018  1.00  0.00     0.149 C 
BRANCH  12  13
HETATM   13  N   UNL     1     -43.942 -47.209   9.641  1.00  0.00    -0.350 N 
HETATM   14  C   UNL     1     -45.174 -47.795   9.690  1.00  0.00     0.108 A 
HETATM   15  C   UNL     1     -46.032 -46.854   9.168  1.00  0.00     0.106 A 
HETATM   16  N   UNL     1     -45.352 -45.717   8.816  1.00  0.00    -0.361 N 
HETATM   17  C   UNL     1     -44.092 -45.963   9.102  1.00  0.00     0.182 A 
ATOM     18  HN  UNL     1     -45.740 -44.862   8.417  1.00  0.00     0.166 HD
ENDBRANCH  12  13
ENDBRANCH  11  12
ENDBRANCH   3  11
BRANCH   8  19
HETATM   19  N   UNL     1     -39.230 -53.488  15.131  1.00  0.00     0.094 N 
HETATM   20  C   UNL     1     -38.990 -54.913  14.851  1.00  0.00     0.273 C 
HETATM   21  C   UNL     1     -38.385 -55.503  16.124  1.00  0.00     0.032 C 
HETATM   22  C   UNL     1     -38.278 -54.338  17.087  1.00  0.00     0.032 C 
HETATM   23  C   UNL     1     -39.339 -53.378  16.592  1.00  0.00     0.273 C 
ENDBRANCH   8  19
TORSDOF 4
ENDMDL
MODEL 4
REMARK VINA RESULT:      -5.9      4.002      5.295
REMARK  4 active torsions:
REMARK  status: ('A' for Active; 'I' for Inactive)
REMARK       I    between atoms: C_2  and  N_3 
REMARK       I    between atoms: C_2  and  N_12 
REMARK    1  A    between atoms: N_3  and  C_4 
REMARK    2  A    between atoms: C_4  and  C_5 
REMARK    3  A    between atoms: C_5  and  N_6 
REMARK    4  A    between atoms: C_16  and  N_18 
ROOT
HETATM    1  O   UNL     1     -43.874 -49.002  12.040  1.00  0.00    -0.247 OA
HETATM    2  C   UNL     1     -42.658 -48.926  12.207  1.00  0.00     0.318 C 
HETATM    3  N   UNL     1     -41.976 -47.772  11.916  1.00  0.00    -0.341 N 
HETATM    4  N   UNL     1     -41.907 -49.958  12.728  1.00  0.00    -0.332 N 
HETATM    5  C   UNL     1     -40.475 -49.965  13.010  1.00  0.00     0.127 C 
HETATM    6  C   UNL     1     -39.825 -51.162  12.321  1.00  0.00     0.022 C 
HETATM    7  C   UNL     1     -40.498 -52.478  12.731  1.00  0.00     0.039 C 
HETATM    8  C   UNL     1     -42.025 -52.443  12.484  1.00  0.00     0.241 C 
HETATM    9  C   UNL     1     -42.606 -51.174  13.160  1.00  0.00     0.163 C 
HETATM   10  H   UNL     1     -41.059 -47.925  11.530  1.00  0.00     0.164 HD
ENDROOT
BRANCH   3  11
HETATM   11  C   UNL     1     -42.692 -46.626  11.369  1.00  0.00     0.144 C 
BRANCH  11  12
HETATM   12  C   UNL     1     -42.561 -46.485   9.849  1.00  0.00     0.149 C 
BRANCH  12  13
HETATM   13  N   UNL     1     -43.663 -47.103   9.142  1.00  0.00    -0.350 N 
HETATM   14  C   UNL     1     -44.964 -47.158   9.553  1.00  0.00     0.108 A 
HETATM   15  C   UNL     1     -45.606 -47.902   8.590  1.00  0.00     0.106 A 
HETATM   16  N   UNL     1     -44.731 -48.287   7.607  1.00  0.00    -0.361 N 
HETATM   17  C   UNL     1     -43.565 -47.801   7.971  1.00  0.00     0.182 A 
ATOM     18  HN  UNL     1     -44.940 -48.834   6.772  1.00  0.00     0.166 HD
ENDBRANCH  12  13
ENDBRANCH  11  12
ENDBRANCH   3  11
BRANCH   8  19
HETATM   19  N   UNL     1     -42.670 -53.687  12.959  1.00  0.00     0.094 N 
HETATM   20  C   UNL     1     -44.102 -53.766  12.631  1.00  0.00     0.273 C 
HETATM   21  C   UNL     1     -44.756 -54.560  13.761  1.00  0.00     0.032 C 
HETATM   22  C   UNL     1     -43.619 -54.932  14.692  1.00  0.00     0.032 C 
HETATM   23  C   UNL     1     -42.580 -53.867  14.414  1.00  0.00     0.273 C 
ENDBRANCH   8  19
TORSDOF 4
ENDMDL
MODEL 5
REMARK VINA RESULT:      -5.8     10.875     12.395
REMARK  4 active torsions:
REMARK  status: ('A' for Active; 'I' for Inactive)
REMARK       I    between atoms: C_2  and  N_3 
REMARK       I    between atoms: C_2  and  N_12 
REMARK    1  A    between atoms: N_3  and  C_4 
REMARK    2  A    between atoms: C_4  and  C_5 
REMARK    3  A    between atoms: C_5  and  N_6 
REMARK    4  A    between atoms: C_16  and  N_18 
ROOT
HETATM    1  O   UNL     1     -46.010 -55.258  18.311  1.00  0.00    -0.247 OA
HETATM    2  C   UNL     1     -46.406 -54.120  18.558  1.00  0.00     0.318 C 
HETATM    3  N   UNL     1     -46.924 -53.803  19.788  1.00  0.00    -0.341 N 
HETATM    4  N   UNL     1     -46.325 -53.085  17.650  1.00  0.00    -0.332 N 
HETATM    5  C   UNL     1     -46.719 -51.693  17.847  1.00  0.00     0.127 C 
HETATM    6  C   UNL     1     -47.678 -51.274  16.736  1.00  0.00     0.022 C 
HETATM    7  C   UNL     1     -47.065 -51.506  15.350  1.00  0.00     0.039 C 
HETATM    8  C   UNL     1     -46.595 -52.970  15.169  1.00  0.00     0.241 C 
HETATM    9  C   UNL     1     -45.676 -53.344  16.360  1.00  0.00     0.163 C 
HETATM   10  H   UNL     1     -47.689 -53.149  19.754  1.00  0.00     0.164 HD
ENDROOT
BRANCH   3  11
HETATM   11  C   UNL     1     -47.040 -54.834  20.812  1.00  0.00     0.144 C 
BRANCH  11  12
HETATM   12  C   UNL     1     -48.486 -55.202  21.156  1.00  0.00     0.149 C 
BRANCH  12  13
HETATM   13  N   UNL     1     -48.918 -56.415  20.491  1.00  0.00    -0.350 N 
HETATM   14  C   UNL     1     -50.190 -56.910  20.450  1.00  0.00     0.108 A 
HETATM   15  C   UNL     1     -50.082 -58.103  19.773  1.00  0.00     0.106 A 
HETATM   16  N   UNL     1     -48.784 -58.334  19.398  1.00  0.00    -0.361 N 
HETATM   17  C   UNL     1     -48.102 -57.306  19.853  1.00  0.00     0.182 A 
ATOM     18  HN  UNL     1     -48.423 -59.133  18.876  1.00  0.00     0.166 HD
ENDBRANCH  12  13
ENDBRANCH  11  12
ENDBRANCH   3  11
BRANCH   8  19
HETATM   19  N   UNL     1     -45.934 -53.158  13.859  1.00  0.00     0.094 N 
HETATM   20  C   UNL     1     -45.337 -54.492  13.691  1.00  0.00     0.273 C 
HETATM   21  C   UNL     1     -44.113 -54.303  12.796  1.00  0.00     0.032 C 
HETATM   22  C   UNL     1     -44.092 -52.825  12.463  1.00  0.00     0.032 C 
HETATM   23  C   UNL     1     -44.850 -52.198  13.613  1.00  0.00     0.273 C 
ENDBRANCH   8  19
TORSDOF 4
ENDMDL
MODEL 6
REMARK VINA RESULT:      -5.7      4.435      7.769
REMARK  4 active torsions:
REMARK  status: ('A' for Active; 'I' for Inactive)
REMARK       I    between atoms: C_2  and  N_3 
REMARK       I    between atoms: C_2  and  N_12 
REMARK    1  A    between atoms: N_3  and  C_4 
REMARK    2  A    between atoms: C_4  and  C_5 
REMARK    3  A    between atoms: C_5  and  N_6 
REMARK    4  A    between atoms: C_16  and  N_18 
ROOT
HETATM    1  O   UNL     1     -40.799 -50.313  15.547  1.00  0.00    -0.247 OA
HETATM    2  C   UNL     1     -40.341 -51.404  15.210  1.00  0.00     0.318 C 
HETATM    3  N   UNL     1     -38.986 -51.617  15.164  1.00  0.00    -0.341 N 
HETATM    4  N   UNL     1     -41.135 -52.487  14.899  1.00  0.00    -0.332 N 
HETATM    5  C   UNL     1     -40.704 -53.833  14.533  1.00  0.00     0.127 C 
HETATM    6  C   UNL     1     -41.356 -54.235  13.213  1.00  0.00     0.022 C 
HETATM    7  C   UNL     1     -42.884 -54.121  13.286  1.00  0.00     0.039 C 
HETATM    8  C   UNL     1     -43.333 -52.709  13.732  1.00  0.00     0.241 C 
HETATM    9  C   UNL     1     -42.588 -52.344  15.042  1.00  0.00     0.163 C 
HETATM   10  H   UNL     1     -38.691 -52.212  14.407  1.00  0.00     0.164 HD
ENDROOT
BRANCH   3  11
HETATM   11  C   UNL     1     -38.070 -50.529  15.486  1.00  0.00     0.144 C 
BRANCH  11  12
HETATM   12  C   UNL     1     -37.119 -50.165  14.342  1.00  0.00     0.149 C 
BRANCH  12  13
HETATM   13  N   UNL     1     -37.826 -49.773  13.140  1.00  0.00    -0.350 N 
HETATM   14  C   UNL     1     -38.739 -48.764  13.028  1.00  0.00     0.108 A 
HETATM   15  C   UNL     1     -39.178 -48.829  11.726  1.00  0.00     0.106 A 
HETATM   16  N   UNL     1     -38.547 -49.841  11.049  1.00  0.00    -0.361 N 
HETATM   17  C   UNL     1     -37.746 -50.400  11.929  1.00  0.00     0.182 A 
ATOM     18  HN  UNL     1     -38.673 -50.104  10.072  1.00  0.00     0.166 HD
ENDBRANCH  12  13
ENDBRANCH  11  12
ENDBRANCH   3  11
BRANCH   8  19
HETATM   19  N   UNL     1     -44.804 -52.638  13.876  1.00  0.00     0.094 N 
HETATM   20  C   UNL     1     -45.512 -52.500  12.594  1.00  0.00     0.273 C 
HETATM   21  C   UNL     1     -46.768 -51.680  12.885  1.00  0.00     0.032 C 
HETATM   22  C   UNL     1     -46.725 -51.409  14.375  1.00  0.00     0.032 C 
HETATM   23  C   UNL     1     -45.252 -51.513  14.706  1.00  0.00     0.273 C 
ENDBRANCH   8  19
TORSDOF 4
ENDMDL
MODEL 7
REMARK VINA RESULT:      -5.6      4.568      6.452
REMARK  4 active torsions:
REMARK  status: ('A' for Active; 'I' for Inactive)
REMARK       I    between atoms: C_2  and  N_3 
REMARK       I    between atoms: C_2  and  N_12 
REMARK    1  A    between atoms: N_3  and  C_4 
REMARK    2  A    between atoms: C_4  and  C_5 
REMARK    3  A    between atoms: C_5  and  N_6 
REMARK    4  A    between atoms: C_16  and  N_18 
ROOT
HETATM    1  O   UNL     1     -41.698 -51.799  11.824  1.00  0.00    -0.247 OA
HETATM    2  C   UNL     1     -40.667 -51.985  12.468  1.00  0.00     0.318 C 
HETATM    3  N   UNL     1     -40.457 -53.162  13.141  1.00  0.00    -0.341 N 
HETATM    4  N   UNL     1     -39.645 -51.062  12.529  1.00  0.00    -0.332 N 
HETATM    5  C   UNL     1     -38.365 -51.193  13.220  1.00  0.00     0.127 C 
HETATM    6  C   UNL     1     -38.163 -50.000  14.150  1.00  0.00     0.022 C 
HETATM    7  C   UNL     1     -38.272 -48.673  13.389  1.00  0.00     0.039 C 
HETATM    8  C   UNL     1     -39.606 -48.565  12.611  1.00  0.00     0.241 C 
HETATM    9  C   UNL     1     -39.771 -49.834  11.736  1.00  0.00     0.163 C 
HETATM   10  H   UNL     1     -39.978 -53.052  14.020  1.00  0.00     0.164 HD
ENDROOT
BRANCH   3  11
HETATM   11  C   UNL     1     -41.482 -54.199  13.124  1.00  0.00     0.144 C 
BRANCH  11  12
HETATM   12  C   UNL     1     -42.405 -54.174  14.346  1.00  0.00     0.149 C 
BRANCH  12  13
HETATM   13  N   UNL     1     -43.800 -54.034  13.980  1.00  0.00    -0.350 N 
HETATM   14  C   UNL     1     -44.420 -52.892  13.561  1.00  0.00     0.108 A 
HETATM   15  C   UNL     1     -45.741 -53.245  13.407  1.00  0.00     0.106 A 
HETATM   16  N   UNL     1     -45.930 -54.568  13.711  1.00  0.00    -0.361 N 
HETATM   17  C   UNL     1     -44.745 -55.017  14.063  1.00  0.00     0.182 A 
ATOM     18  HN  UNL     1     -46.804 -55.093  13.672  1.00  0.00     0.166 HD
ENDBRANCH  12  13
ENDBRANCH  11  12
ENDBRANCH   3  11
BRANCH   8  19
HETATM   19  N   UNL     1     -39.661 -47.317  11.819  1.00  0.00     0.094 N 
HETATM   20  C   UNL     1     -39.662 -46.098  12.644  1.00  0.00     0.273 C 
HETATM   21  C   UNL     1     -40.481 -45.063  11.876  1.00  0.00     0.032 C 
HETATM   22  C   UNL     1     -40.894 -45.758  10.593  1.00  0.00     0.032 C 
HETATM   23  C   UNL     1     -40.851 -47.225  10.963  1.00  0.00     0.273 C 
ENDBRANCH   8  19
TORSDOF 4
ENDMDL
MODEL 8
REMARK VINA RESULT:      -5.6      4.522      7.671
REMARK  4 active torsions:
REMARK  status: ('A' for Active; 'I' for Inactive)
REMARK       I    between atoms: C_2  and  N_3 
REMARK       I    between atoms: C_2  and  N_12 
REMARK    1  A    between atoms: N_3  and  C_4 
REMARK    2  A    between atoms: C_4  and  C_5 
REMARK    3  A    between atoms: C_5  and  N_6 
REMARK    4  A    between atoms: C_16  and  N_18 
ROOT
HETATM    1  O   UNL     1     -41.488 -49.896  11.768  1.00  0.00    -0.247 OA
HETATM    2  C   UNL     1     -40.909 -50.868  12.250  1.00  0.00     0.318 C 
HETATM    3  N   UNL     1     -39.554 -51.026  12.105  1.00  0.00    -0.341 N 
HETATM    4  N   UNL     1     -41.556 -51.833  12.992  1.00  0.00    -0.332 N 
HETATM    5  C   UNL     1     -40.967 -52.998  13.646  1.00  0.00     0.127 C 
HETATM    6  C   UNL     1     -41.705 -54.258  13.203  1.00  0.00     0.022 C 
HETATM    7  C   UNL     1     -43.211 -54.149  13.471  1.00  0.00     0.039 C 
HETATM    8  C   UNL     1     -43.818 -52.881  12.825  1.00  0.00     0.241 C 
HETATM    9  C   UNL     1     -42.985 -51.651  13.271  1.00  0.00     0.163 C 
HETATM   10  H   UNL     1     -39.264 -51.983  11.984  1.00  0.00     0.164 HD
ENDROOT
BRANCH   3  11
HETATM   11  C   UNL     1     -38.788 -50.048  11.342  1.00  0.00     0.144 C 
BRANCH  11  12
HETATM   12  C   UNL     1     -37.637 -49.416  12.130  1.00  0.00     0.149 C 
BRANCH  12  13
HETATM   13  N   UNL     1     -38.099 -48.701  13.303  1.00  0.00    -0.350 N 
HETATM   14  C   UNL     1     -39.027 -47.699  13.330  1.00  0.00     0.108 A 
HETATM   15  C   UNL     1     -39.072 -47.297  14.645  1.00  0.00     0.106 A 
HETATM   16  N   UNL     1     -38.206 -48.035  15.410  1.00  0.00    -0.361 N 
HETATM   17  C   UNL     1     -37.625 -48.867  14.573  1.00  0.00     0.182 A 
ATOM     18  HN  UNL     1     -38.047 -47.957  16.415  1.00  0.00     0.166 HD
ENDBRANCH  12  13
ENDBRANCH  11  12
ENDBRANCH   3  11
BRANCH   8  19
HETATM   19  N   UNL     1     -45.253 -52.747  13.161  1.00  0.00     0.094 N 
HETATM   20  C   UNL     1     -45.658 -51.365  13.462  1.00  0.00     0.273 C 
HETATM   21  C   UNL     1     -46.782 -51.463  14.491  1.00  0.00     0.032 C 
HETATM   22  C   UNL     1     -46.990 -52.948  14.708  1.00  0.00     0.032 C 
HETATM   23  C   UNL     1     -45.653 -53.546  14.326  1.00  0.00     0.273 C 
ENDBRANCH   8  19
TORSDOF 4
ENDMDL
MODEL 9
REMARK VINA RESULT:      -5.5      5.991      8.385
REMARK  4 active torsions:
REMARK  status: ('A' for Active; 'I' for Inactive)
REMARK       I    between atoms: C_2  and  N_3 
REMARK       I    between atoms: C_2  and  N_12 
REMARK    1  A    between atoms: N_3  and  C_4 
REMARK    2  A    between atoms: C_4  and  C_5 
REMARK    3  A    between atoms: C_5  and  N_6 
REMARK    4  A    between atoms: C_16  and  N_18 
ROOT
HETATM    1  O   UNL     1     -42.045 -51.920  14.417  1.00  0.00    -0.247 OA
HETATM    2  C   UNL     1     -42.869 -52.127  13.527  1.00  0.00     0.318 C 
HETATM    3  N   UNL     1     -42.476 -52.267  12.220  1.00  0.00    -0.341 N 
HETATM    4  N   UNL     1     -44.217 -52.274  13.773  1.00  0.00    -0.332 N 
HETATM    5  C   UNL     1     -45.273 -52.565  12.809  1.00  0.00     0.127 C 
HETATM    6  C   UNL     1     -46.377 -51.518  12.930  1.00  0.00     0.022 C 
HETATM    7  C   UNL     1     -46.915 -51.435  14.363  1.00  0.00     0.039 C 
HETATM    8  C   UNL     1     -45.783 -51.184  15.388  1.00  0.00     0.241 C 
HETATM    9  C   UNL     1     -44.674 -52.246  15.167  1.00  0.00     0.163 C 
HETATM   10  H   UNL     1     -43.120 -51.870  11.555  1.00  0.00     0.164 HD
ENDROOT
BRANCH   3  11
HETATM   11  C   UNL     1     -41.067 -52.136  11.868  1.00  0.00     0.144 C 
BRANCH  11  12
HETATM   12  C   UNL     1     -40.631 -50.693  11.597  1.00  0.00     0.149 C 
BRANCH  12  13
HETATM   13  N   UNL     1     -39.423 -50.338  12.314  1.00  0.00    -0.350 N 
HETATM   14  C   UNL     1     -38.670 -51.167  13.096  1.00  0.00     0.108 A 
HETATM   15  C   UNL     1     -37.681 -50.361  13.611  1.00  0.00     0.106 A 
HETATM   16  N   UNL     1     -37.812 -49.075  13.153  1.00  0.00    -0.361 N 
HETATM   17  C   UNL     1     -38.877 -49.088  12.382  1.00  0.00     0.182 A 
ATOM     18  HN  UNL     1     -37.211 -48.279  13.365  1.00  0.00     0.166 HD
ENDBRANCH  12  13
ENDBRANCH  11  12
ENDBRANCH   3  11
BRANCH   8  19
HETATM   19  N   UNL     1     -46.306 -51.188  16.772  1.00  0.00     0.094 N 
HETATM   20  C   UNL     1     -47.776 -51.203  16.842  1.00  0.00     0.273 C 
HETATM   21  C   UNL     1     -48.151 -50.435  18.108  1.00  0.00     0.032 C 
HETATM   22  C   UNL     1     -46.830 -50.034  18.733  1.00  0.00     0.032 C 
HETATM   23  C   UNL     1     -45.878 -50.023  17.556  1.00  0.00     0.273 C 
ENDBRANCH   8  19
TORSDOF 4
ENDMDL
