MODEL 1
REMARK VINA RESULT:      -5.6      0.000      0.000
REMARK  5 active torsions:
REMARK  status: ('A' for Active; 'I' for Inactive)
REMARK    1  A    between atoms: C_2  and  C_4 
REMARK    2  A    between atoms: C_7  and  C_8 
REMARK    3  A    between atoms: C_8  and  C_9 
REMARK    4  A    between atoms: C_9  and  N_10 
REMARK       I    between atoms: N_10  and  C_11 
REMARK    5  A    between atoms: C_11  and  C_13 
ROOT
HETATM    1  C   UNL     1     -44.763 -50.938  13.827  1.00  0.00     0.054 A 
HETATM    2  N   UNL     1     -44.188 -50.492  12.728  1.00  0.00    -0.356 N 
ATOM      3  HN  UNL     1     -44.490 -50.717  11.780  1.00  0.00     0.166 HD
HETATM    4  C   UNL     1     -43.115 -49.673  13.045  1.00  0.00     0.018 A 
HETATM    5  C   UNL     1     -42.881 -49.530  14.399  1.00  0.00     0.076 A 
HETATM    6  S   UNL     1     -44.038 -50.416  15.297  1.00  0.00    -0.086 SA
ENDROOT
BRANCH   4   7
HETATM    7  C   UNL     1     -42.315 -49.049  11.945  1.00  0.00     0.077 C 
BRANCH   7   8
HETATM    8  C   UNL     1     -42.950 -47.767  11.398  1.00  0.00     0.128 C 
BRANCH   8   9
HETATM    9  N   UNL     1     -44.014 -48.011  10.437  1.00  0.00    -0.360 N 
HETATM   10  C   UNL     1     -44.261 -47.137   9.408  1.00  0.00     0.221 C 
HETATM   11  O   UNL     1     -43.577 -46.156   9.156  1.00  0.00    -0.273 OA
HETATM   12  H   UNL     1     -44.717 -48.698  10.671  1.00  0.00     0.162 HD
BRANCH  10  13
HETATM   13  C   UNL     1     -45.480 -47.451   8.613  1.00  0.00     0.078 A 
HETATM   14  C   UNL     1     -46.838 -46.981   9.084  1.00  0.00     0.015 A 
HETATM   15  C   UNL     1     -46.485 -48.438   9.161  1.00  0.00     0.015 A 
ENDBRANCH  10  13
ENDBRANCH   8   9
ENDBRANCH   7   8
ENDBRANCH   4   7
BRANCH   1  16
HETATM   16  C   UNL     1     -45.956 -51.856  13.853  1.00  0.00     0.035 C 
HETATM   17  C   UNL     1     -46.910 -51.474  14.985  1.00  0.00     0.016 C 
HETATM   18  C   UNL     1     -46.679 -51.823  12.506  1.00  0.00     0.016 C 
ENDBRANCH   1  16
TORSDOF 5
ENDMDL
MODEL 2
REMARK VINA RESULT:      -5.3      3.876      5.481
REMARK  5 active torsions:
REMARK  status: ('A' for Active; 'I' for Inactive)
REMARK    1  A    between atoms: C_2  and  C_4 
REMARK    2  A    between atoms: C_7  and  C_8 
REMARK    3  A    between atoms: C_8  and  C_9 
REMARK    4  A    between atoms: C_9  and  N_10 
REMARK       I    between atoms: N_10  and  C_11 
REMARK    5  A    between atoms: C_11  and  C_13 
ROOT
HETATM    1  C   UNL     1     -44.916 -52.463  13.527  1.00  0.00     0.054 A 
HETATM    2  N   UNL     1     -43.695 -52.309  13.054  1.00  0.00    -0.356 N 
ATOM      3  HN  UNL     1     -43.365 -51.486  12.549  1.00  0.00     0.166 HD
HETATM    4  C   UNL     1     -42.924 -53.425  13.341  1.00  0.00     0.018 A 
HETATM    5  C   UNL     1     -43.593 -54.427  14.018  1.00  0.00     0.076 A 
HETATM    6  S   UNL     1     -45.210 -53.958  14.323  1.00  0.00    -0.086 SA
ENDROOT
BRANCH   4   7
HETATM    7  C   UNL     1     -41.495 -53.466  12.900  1.00  0.00     0.077 C 
BRANCH   7   8
HETATM    8  C   UNL     1     -41.160 -52.396  11.857  1.00  0.00     0.128 C 
BRANCH   8   9
HETATM    9  N   UNL     1     -39.966 -51.629  12.176  1.00  0.00    -0.360 N 
HETATM   10  C   UNL     1     -39.809 -50.338  11.738  1.00  0.00     0.221 C 
HETATM   11  O   UNL     1     -40.665 -49.702  11.141  1.00  0.00    -0.273 OA
HETATM   12  H   UNL     1     -39.157 -52.130  12.515  1.00  0.00     0.162 HD
BRANCH  10  13
HETATM   13  C   UNL     1     -38.468 -49.753  12.015  1.00  0.00     0.078 A 
HETATM   14  C   UNL     1     -37.326 -49.978  11.050  1.00  0.00     0.015 A 
HETATM   15  C   UNL     1     -37.324 -50.670  12.382  1.00  0.00     0.015 A 
ENDBRANCH  10  13
ENDBRANCH   8   9
ENDBRANCH   7   8
ENDBRANCH   4   7
BRANCH   1  16
HETATM   16  C   UNL     1     -46.017 -51.444  13.391  1.00  0.00     0.035 C 
HETATM   17  C   UNL     1     -46.857 -51.719  12.143  1.00  0.00     0.016 C 
HETATM   18  C   UNL     1     -46.895 -51.444  14.642  1.00  0.00     0.016 C 
ENDBRANCH   1  16
TORSDOF 5
ENDMDL
MODEL 3
REMARK VINA RESULT:      -5.2      1.596      1.919
REMARK  5 active torsions:
REMARK  status: ('A' for Active; 'I' for Inactive)
REMARK    1  A    between atoms: C_2  and  C_4 
REMARK    2  A    between atoms: C_7  and  C_8 
REMARK    3  A    between atoms: C_8  and  C_9 
REMARK    4  A    between atoms: C_9  and  N_10 
REMARK       I    between atoms: N_10  and  C_11 
REMARK    5  A    between atoms: C_11  and  C_13 
ROOT
HETATM    1  C   UNL     1     -44.558 -51.685  13.045  1.00  0.00     0.054 A 
HETATM    2  N   UNL     1     -44.135 -50.442  12.926  1.00  0.00    -0.356 N 
ATOM      3  HN  UNL     1     -44.733 -49.616  12.965  1.00  0.00     0.166 HD
HETATM    4  C   UNL     1     -42.762 -50.417  12.742  1.00  0.00     0.018 A 
HETATM    5  C   UNL     1     -42.164 -51.663  12.702  1.00  0.00     0.076 A 
HETATM    6  S   UNL     1     -43.336 -52.889  12.923  1.00  0.00    -0.086 SA
ENDROOT
BRANCH   4   7
HETATM    7  C   UNL     1     -42.062 -49.103  12.587  1.00  0.00     0.077 C 
BRANCH   7   8
HETATM    8  C   UNL     1     -41.339 -48.966  11.245  1.00  0.00     0.128 C 
BRANCH   8   9
HETATM    9  N   UNL     1     -42.185 -48.452  10.179  1.00  0.00    -0.360 N 
HETATM   10  C   UNL     1     -42.364 -47.105   9.996  1.00  0.00     0.221 C 
HETATM   11  O   UNL     1     -41.777 -46.237  10.627  1.00  0.00    -0.273 OA
HETATM   12  H   UNL     1     -42.825 -49.094   9.731  1.00  0.00     0.162 HD
BRANCH  10  13
HETATM   13  C   UNL     1     -43.381 -46.752   8.967  1.00  0.00     0.078 A 
HETATM   14  C   UNL     1     -44.780 -47.319   9.055  1.00  0.00     0.015 A 
HETATM   15  C   UNL     1     -43.841 -47.811   7.992  1.00  0.00     0.015 A 
ENDBRANCH  10  13
ENDBRANCH   8   9
ENDBRANCH   7   8
ENDBRANCH   4   7
BRANCH   1  16
HETATM   16  C   UNL     1     -45.997 -52.079  13.253  1.00  0.00     0.035 C 
HETATM   17  C   UNL     1     -46.583 -51.367  14.472  1.00  0.00     0.016 C 
HETATM   18  C   UNL     1     -46.817 -51.768  12.001  1.00  0.00     0.016 C 
ENDBRANCH   1  16
TORSDOF 5
ENDMDL
MODEL 4
REMARK VINA RESULT:      -5.2      2.715      3.603
REMARK  5 active torsions:
REMARK  status: ('A' for Active; 'I' for Inactive)
REMARK    1  A    between atoms: C_2  and  C_4 
REMARK    2  A    between atoms: C_7  and  C_8 
REMARK    3  A    between atoms: C_8  and  C_9 
REMARK    4  A    between atoms: C_9  and  N_10 
REMARK       I    between atoms: N_10  and  C_11 
REMARK    5  A    between atoms: C_11  and  C_13 
ROOT
HETATM    1  C   UNL     1     -44.630 -52.097  13.290  1.00  0.00     0.054 A 
HETATM    2  N   UNL     1     -43.649 -51.840  12.449  1.00  0.00    -0.356 N 
ATOM      3  HN  UNL     1     -43.663 -51.104  11.742  1.00  0.00     0.166 HD
HETATM    4  C   UNL     1     -42.593 -52.713  12.662  1.00  0.00     0.018 A 
HETATM    5  C   UNL     1     -42.808 -53.643  13.661  1.00  0.00     0.076 A 
HETATM    6  S   UNL     1     -44.349 -53.408  14.367  1.00  0.00    -0.086 SA
ENDROOT
BRANCH   4   7
HETATM    7  C   UNL     1     -41.362 -52.600  11.818  1.00  0.00     0.077 C 
BRANCH   7   8
HETATM    8  C   UNL     1     -40.511 -51.375  12.163  1.00  0.00     0.128 C 
BRANCH   8   9
HETATM    9  N   UNL     1     -40.680 -50.270  11.233  1.00  0.00    -0.360 N 
HETATM   10  C   UNL     1     -41.555 -49.246  11.492  1.00  0.00     0.221 C 
HETATM   11  O   UNL     1     -42.183 -49.121  12.533  1.00  0.00    -0.273 OA
HETATM   12  H   UNL     1     -40.329 -50.385  10.292  1.00  0.00     0.162 HD
BRANCH  10  13
HETATM   13  C   UNL     1     -41.725 -48.282  10.370  1.00  0.00     0.078 A 
HETATM   14  C   UNL     1     -41.446 -46.811  10.583  1.00  0.00     0.015 A 
HETATM   15  C   UNL     1     -42.861 -47.286  10.419  1.00  0.00     0.015 A 
ENDBRANCH  10  13
ENDBRANCH   8   9
ENDBRANCH   7   8
ENDBRANCH   4   7
BRANCH   1  16
HETATM   16  C   UNL     1     -45.933 -51.342  13.335  1.00  0.00     0.035 C 
HETATM   17  C   UNL     1     -46.791 -51.669  12.113  1.00  0.00     0.016 C 
HETATM   18  C   UNL     1     -46.688 -51.666  14.625  1.00  0.00     0.016 C 
ENDBRANCH   1  16
TORSDOF 5
ENDMDL
MODEL 5
REMARK VINA RESULT:      -5.1      4.295      5.731
REMARK  5 active torsions:
REMARK  status: ('A' for Active; 'I' for Inactive)
REMARK    1  A    between atoms: C_2  and  C_4 
REMARK    2  A    between atoms: C_7  and  C_8 
REMARK    3  A    between atoms: C_8  and  C_9 
REMARK    4  A    between atoms: C_9  and  N_10 
REMARK       I    between atoms: N_10  and  C_11 
REMARK    5  A    between atoms: C_11  and  C_13 
ROOT
HETATM    1  C   UNL     1     -44.975 -52.829  13.113  1.00  0.00     0.054 A 
HETATM    2  N   UNL     1     -44.039 -52.188  12.443  1.00  0.00    -0.356 N 
ATOM      3  HN  UNL     1     -44.186 -51.330  11.911  1.00  0.00     0.166 HD
HETATM    4  C   UNL     1     -42.825 -52.846  12.564  1.00  0.00     0.018 A 
HETATM    5  C   UNL     1     -42.871 -54.004  13.317  1.00  0.00     0.076 A 
HETATM    6  S   UNL     1     -44.456 -54.264  13.907  1.00  0.00    -0.086 SA
ENDROOT
BRANCH   4   7
HETATM    7  C   UNL     1     -41.614 -52.289  11.885  1.00  0.00     0.077 C 
BRANCH   7   8
HETATM    8  C   UNL     1     -40.431 -52.094  12.837  1.00  0.00     0.128 C 
BRANCH   8   9
HETATM    9  N   UNL     1     -39.781 -50.800  12.698  1.00  0.00    -0.360 N 
HETATM   10  C   UNL     1     -38.414 -50.685  12.683  1.00  0.00     0.221 C 
HETATM   11  O   UNL     1     -37.641 -51.633  12.689  1.00  0.00    -0.273 OA
HETATM   12  H   UNL     1     -40.338 -49.970  12.855  1.00  0.00     0.162 HD
BRANCH  10  13
HETATM   13  C   UNL     1     -37.913 -49.283  12.695  1.00  0.00     0.078 A 
HETATM   14  C   UNL     1     -37.631 -48.587  14.007  1.00  0.00     0.015 A 
HETATM   15  C   UNL     1     -38.821 -48.179  13.186  1.00  0.00     0.015 A 
ENDBRANCH  10  13
ENDBRANCH   8   9
ENDBRANCH   7   8
ENDBRANCH   4   7
BRANCH   1  16
HETATM   16  C   UNL     1     -46.415 -52.394  13.194  1.00  0.00     0.035 C 
HETATM   17  C   UNL     1     -46.624 -51.429  14.361  1.00  0.00     0.016 C 
HETATM   18  C   UNL     1     -46.848 -51.749  11.877  1.00  0.00     0.016 C 
ENDBRANCH   1  16
TORSDOF 5
ENDMDL
MODEL 6
REMARK VINA RESULT:      -5.1      4.261      6.358
REMARK  5 active torsions:
REMARK  status: ('A' for Active; 'I' for Inactive)
REMARK    1  A    between atoms: C_2  and  C_4 
REMARK    2  A    between atoms: C_7  and  C_8 
REMARK    3  A    between atoms: C_8  and  C_9 
REMARK    4  A    between atoms: C_9  and  N_10 
REMARK       I    between atoms: N_10  and  C_11 
REMARK    5  A    between atoms: C_11  and  C_13 
ROOT
HETATM    1  C   UNL     1     -39.584 -51.099  12.468  1.00  0.00     0.054 A 
HETATM    2  N   UNL     1     -40.509 -51.990  12.169  1.00  0.00    -0.356 N 
ATOM      3  HN  UNL     1     -41.163 -51.913  11.390  1.00  0.00     0.166 HD
HETATM    4  C   UNL     1     -40.464 -53.047  13.064  1.00  0.00     0.018 A 
HETATM    5  C   UNL     1     -39.507 -52.924  14.053  1.00  0.00     0.076 A 
HETATM    6  S   UNL     1     -38.627 -51.471  13.847  1.00  0.00    -0.086 SA
ENDROOT
BRANCH   4   7
HETATM    7  C   UNL     1     -41.427 -54.183  12.911  1.00  0.00     0.077 C 
BRANCH   7   8
HETATM    8  C   UNL     1     -42.508 -54.199  13.995  1.00  0.00     0.128 C 
BRANCH   8   9
HETATM    9  N   UNL     1     -43.392 -53.045  13.950  1.00  0.00    -0.360 N 
HETATM   10  C   UNL     1     -44.525 -53.043  13.177  1.00  0.00     0.221 C 
HETATM   11  O   UNL     1     -44.935 -54.009  12.548  1.00  0.00    -0.273 OA
HETATM   12  H   UNL     1     -43.041 -52.165  14.302  1.00  0.00     0.162 HD
BRANCH  10  13
HETATM   13  C   UNL     1     -45.230 -51.733  13.120  1.00  0.00     0.078 A 
HETATM   14  C   UNL     1     -46.441 -51.482  13.991  1.00  0.00     0.015 A 
HETATM   15  C   UNL     1     -46.612 -51.665  12.510  1.00  0.00     0.015 A 
ENDBRANCH  10  13
ENDBRANCH   8   9
ENDBRANCH   7   8
ENDBRANCH   4   7
BRANCH   1  16
HETATM   16  C   UNL     1     -39.354 -49.821  11.704  1.00  0.00     0.035 C 
HETATM   17  C   UNL     1     -40.677 -49.245  11.200  1.00  0.00     0.016 C 
HETATM   18  C   UNL     1     -38.623 -48.805  12.582  1.00  0.00     0.016 C 
ENDBRANCH   1  16
TORSDOF 5
ENDMDL
MODEL 7
REMARK VINA RESULT:      -4.9      3.106      4.659
REMARK  5 active torsions:
REMARK  status: ('A' for Active; 'I' for Inactive)
REMARK    1  A    between atoms: C_2  and  C_4 
REMARK    2  A    between atoms: C_7  and  C_8 
REMARK    3  A    between atoms: C_8  and  C_9 
REMARK    4  A    between atoms: C_9  and  N_10 
REMARK       I    between atoms: N_10  and  C_11 
REMARK    5  A    between atoms: C_11  and  C_13 
ROOT
HETATM    1  C   UNL     1     -39.192 -49.214  12.883  1.00  0.00     0.054 A 
HETATM    2  N   UNL     1     -39.915 -48.515  12.031  1.00  0.00    -0.356 N 
ATOM      3  HN  UNL     1     -39.586 -48.178  11.126  1.00  0.00     0.166 HD
HETATM    4  C   UNL     1     -41.187 -48.304  12.540  1.00  0.00     0.018 A 
HETATM    5  C   UNL     1     -41.399 -48.836  13.798  1.00  0.00     0.076 A 
HETATM    6  S   UNL     1     -39.990 -49.638  14.346  1.00  0.00    -0.086 SA
ENDROOT
BRANCH   4   7
HETATM    7  C   UNL     1     -42.185 -47.532  11.735  1.00  0.00     0.077 C 
BRANCH   7   8
HETATM    8  C   UNL     1     -42.078 -47.804  10.232  1.00  0.00     0.128 C 
BRANCH   8   9
HETATM    9  N   UNL     1     -43.361 -48.047   9.593  1.00  0.00    -0.360 N 
HETATM   10  C   UNL     1     -43.962 -47.094   8.811  1.00  0.00     0.221 C 
HETATM   11  O   UNL     1     -43.452 -46.024   8.511  1.00  0.00    -0.273 OA
HETATM   12  H   UNL     1     -43.915 -48.827   9.923  1.00  0.00     0.162 HD
BRANCH  10  13
HETATM   13  C   UNL     1     -45.340 -47.442   8.364  1.00  0.00     0.078 A 
HETATM   14  C   UNL     1     -46.540 -46.893   9.103  1.00  0.00     0.015 A 
HETATM   15  C   UNL     1     -46.188 -48.348   9.227  1.00  0.00     0.015 A 
ENDBRANCH  10  13
ENDBRANCH   8   9
ENDBRANCH   7   8
ENDBRANCH   4   7
BRANCH   1  16
HETATM   16  C   UNL     1     -37.760 -49.621  12.652  1.00  0.00     0.035 C 
HETATM   17  C   UNL     1     -37.419 -50.879  13.451  1.00  0.00     0.016 C 
HETATM   18  C   UNL     1     -37.509 -49.846  11.160  1.00  0.00     0.016 C 
ENDBRANCH   1  16
TORSDOF 5
ENDMDL
MODEL 8
REMARK VINA RESULT:      -4.5      3.828      4.404
REMARK  5 active torsions:
REMARK  status: ('A' for Active; 'I' for Inactive)
REMARK    1  A    between atoms: C_2  and  C_4 
REMARK    2  A    between atoms: C_7  and  C_8 
REMARK    3  A    between atoms: C_8  and  C_9 
REMARK    4  A    between atoms: C_9  and  N_10 
REMARK       I    between atoms: N_10  and  C_11 
REMARK    5  A    between atoms: C_11  and  C_13 
ROOT
HETATM    1  C   UNL     1     -42.955 -52.271  12.756  1.00  0.00     0.054 A 
HETATM    2  N   UNL     1     -42.425 -51.335  11.994  1.00  0.00    -0.356 N 
ATOM      3  HN  UNL     1     -42.955 -50.708  11.388  1.00  0.00     0.166 HD
HETATM    4  C   UNL     1     -41.046 -51.324  12.135  1.00  0.00     0.018 A 
HETATM    5  C   UNL     1     -40.548 -52.283  12.997  1.00  0.00     0.076 A 
HETATM    6  S   UNL     1     -41.829 -53.201  13.665  1.00  0.00    -0.086 SA
ENDROOT
BRANCH   4   7
HETATM    7  C   UNL     1     -40.235 -50.332  11.361  1.00  0.00     0.077 C 
BRANCH   7   8
HETATM    8  C   UNL     1     -40.154 -48.965  12.045  1.00  0.00     0.128 C 
BRANCH   8   9
HETATM    9  N   UNL     1     -40.254 -47.847  11.120  1.00  0.00    -0.360 N 
HETATM   10  C   UNL     1     -40.083 -46.553  11.542  1.00  0.00     0.221 C 
HETATM   11  O   UNL     1     -39.750 -46.234  12.674  1.00  0.00    -0.273 OA
HETATM   12  H   UNL     1     -40.685 -48.013  10.221  1.00  0.00     0.162 HD
BRANCH  10  13
HETATM   13  C   UNL     1     -40.375 -45.523  10.507  1.00  0.00     0.078 A 
HETATM   14  C   UNL     1     -39.243 -44.801   9.812  1.00  0.00     0.015 A 
HETATM   15  C   UNL     1     -40.090 -44.070  10.812  1.00  0.00     0.015 A 
ENDBRANCH  10  13
ENDBRANCH   8   9
ENDBRANCH   7   8
ENDBRANCH   4   7
BRANCH   1  16
HETATM   16  C   UNL     1     -44.430 -52.564  12.846  1.00  0.00     0.035 C 
HETATM   17  C   UNL     1     -44.670 -54.018  13.251  1.00  0.00     0.016 C 
HETATM   18  C   UNL     1     -45.098 -51.612  13.838  1.00  0.00     0.016 C 
ENDBRANCH   1  16
TORSDOF 5
ENDMDL
MODEL 9
REMARK VINA RESULT:      -4.5     14.478     15.981
REMARK  5 active torsions:
REMARK  status: ('A' for Active; 'I' for Inactive)
REMARK    1  A    between atoms: C_2  and  C_4 
REMARK    2  A    between atoms: C_7  and  C_8 
REMARK    3  A    between atoms: C_8  and  C_9 
REMARK    4  A    between atoms: C_9  and  N_10 
REMARK       I    between atoms: N_10  and  C_11 
REMARK    5  A    between atoms: C_11  and  C_13 
ROOT
HETATM    1  C   UNL     1     -51.838 -52.265  -0.940  1.00  0.00     0.054 A 
HETATM    2  N   UNL     1     -50.702 -52.909  -1.122  1.00  0.00    -0.356 N 
ATOM      3  HN  UNL     1     -50.624 -53.900  -1.353  1.00  0.00     0.166 HD
HETATM    4  C   UNL     1     -49.629 -52.048  -0.954  1.00  0.00     0.018 A 
HETATM    5  C   UNL     1     -49.977 -50.752  -0.621  1.00  0.00     0.076 A 
HETATM    6  S   UNL     1     -51.680 -50.599  -0.540  1.00  0.00    -0.086 SA
ENDROOT
BRANCH   4   7
HETATM    7  C   UNL     1     -48.235 -52.567  -1.120  1.00  0.00     0.077 C 
BRANCH   7   8
HETATM    8  C   UNL     1     -47.826 -52.723  -2.587  1.00  0.00     0.128 C 
BRANCH   8   9
HETATM    9  N   UNL     1     -48.057 -54.059  -3.114  1.00  0.00    -0.360 N 
HETATM   10  C   UNL     1     -49.184 -54.357  -3.836  1.00  0.00     0.221 C 
HETATM   11  O   UNL     1     -50.026 -53.536  -4.173  1.00  0.00    -0.273 OA
HETATM   12  H   UNL     1     -47.502 -54.818  -2.742  1.00  0.00     0.162 HD
BRANCH  10  13
HETATM   13  C   UNL     1     -49.343 -55.801  -4.164  1.00  0.00     0.078 A 
HETATM   14  C   UNL     1     -50.349 -56.645  -3.415  1.00  0.00     0.015 A 
HETATM   15  C   UNL     1     -48.881 -56.839  -3.168  1.00  0.00     0.015 A 
ENDBRANCH  10  13
ENDBRANCH   8   9
ENDBRANCH   7   8
ENDBRANCH   4   7
BRANCH   1  16
HETATM   16  C   UNL     1     -53.201 -52.896  -1.042  1.00  0.00     0.035 C 
HETATM   17  C   UNL     1     -53.189 -54.309  -0.460  1.00  0.00     0.016 C 
HETATM   18  C   UNL     1     -54.240 -52.029  -0.330  1.00  0.00     0.016 C 
ENDBRANCH   1  16
TORSDOF 5
ENDMDL
