MODEL 1
REMARK VINA RESULT:      -6.2      0.000      0.000
REMARK  7 active torsions:
REMARK  status: ('A' for Active; 'I' for Inactive)
REMARK    1  A    between atoms: C_7  and  O_8 
REMARK    2  A    between atoms: O_8  and  C_9 
REMARK    3  A    between atoms: C_9  and  C_10 
REMARK    4  A    between atoms: C_10  and  N_11 
REMARK    5  A    between atoms: C_12  and  C_13 
REMARK    6  A    between atoms: C_13  and  N_14 
REMARK    7  A    between atoms: N_14  and  C_15 
ROOT
HETATM    1  N   UNL     1     -41.245 -49.212  12.613  1.00  0.00    -0.331 N 
HETATM    2  C   UNL     1     -41.110 -48.384  11.497  1.00  0.00     0.102 A 
HETATM    3  N   UNL     1     -39.886 -48.448  11.014  1.00  0.00    -0.343 N 
ATOM      4  HN  UNL     1     -39.505 -47.910  10.236  1.00  0.00     0.167 HD
HETATM    5  C   UNL     1     -39.231 -49.384  11.765  1.00  0.00     0.060 A 
HETATM    6  C   UNL     1     -37.908 -49.843  11.640  1.00  0.00     0.032 A 
HETATM    7  C   UNL     1     -37.440 -50.828  12.513  1.00  0.00     0.002 A 
HETATM    8  C   UNL     1     -38.281 -51.366  13.479  1.00  0.00     0.002 A 
HETATM    9  C   UNL     1     -39.604 -50.930  13.603  1.00  0.00     0.032 A 
HETATM   10  C   UNL     1     -40.066 -49.914  12.752  1.00  0.00     0.062 A 
ENDROOT
BRANCH   1  11
HETATM   11  C   UNL     1     -42.436 -49.212  13.453  1.00  0.00     0.157 C 
BRANCH  11  12
HETATM   12  C   UNL     1     -43.596 -50.157  13.131  1.00  0.00     0.196 C 
BRANCH  12  13
HETATM   13  O   UNL     1     -43.105 -51.414  12.677  1.00  0.00    -0.348 OA
BRANCH  13  14
HETATM   14  C   UNL     1     -43.652 -52.586  13.133  1.00  0.00     0.090 A 
HETATM   15  C   UNL     1     -44.958 -53.086  13.022  1.00  0.00     0.067 A 
HETATM   16 CL   UNL     1     -46.263 -52.316  12.192  1.00  0.00    -0.081 Cl
HETATM   17  C   UNL     1     -45.291 -54.314  13.621  1.00  0.00     0.026 A 
HETATM   18  C   UNL     1     -44.341 -55.056  14.322  1.00  0.00     0.002 A 
HETATM   19  C   UNL     1     -43.039 -54.583  14.415  1.00  0.00     0.003 A 
HETATM   20  C   UNL     1     -42.703 -53.362  13.825  1.00  0.00     0.038 A 
ENDBRANCH  13  14
ENDBRANCH  12  13
ENDBRANCH  11  12
ENDBRANCH   1  11
BRANCH   2  21
HETATM   21  C   UNL     1     -42.200 -47.553  10.903  1.00  0.00     0.198 C 
BRANCH  21  22
HETATM   22  N   UNL     1     -42.758 -48.227   9.755  1.00  0.00    -0.361 N 
HETATM   23  H   UNL     1     -42.609 -49.225   9.677  1.00  0.00     0.162 HD
BRANCH  22  24
HETATM   24  C   UNL     1     -43.417 -47.560   8.763  1.00  0.00     0.348 C 
HETATM   25  O   UNL     1     -43.410 -47.868   7.578  1.00  0.00    -0.284 OA
ENDBRANCH  22  24
ENDBRANCH  21  22
ENDBRANCH   2  21
TORSDOF 7
ENDMDL
MODEL 2
REMARK VINA RESULT:      -6.1      3.037      4.702
REMARK  7 active torsions:
REMARK  status: ('A' for Active; 'I' for Inactive)
REMARK    1  A    between atoms: C_7  and  O_8 
REMARK    2  A    between atoms: O_8  and  C_9 
REMARK    3  A    between atoms: C_9  and  C_10 
REMARK    4  A    between atoms: C_10  and  N_11 
REMARK    5  A    between atoms: C_12  and  C_13 
REMARK    6  A    between atoms: C_13  and  N_14 
REMARK    7  A    between atoms: N_14  and  C_15 
ROOT
HETATM    1  N   UNL     1     -41.901 -47.235  11.782  1.00  0.00    -0.331 N 
HETATM    2  C   UNL     1     -41.898 -46.944  10.416  1.00  0.00     0.102 A 
HETATM    3  N   UNL     1     -41.082 -45.943  10.155  1.00  0.00    -0.343 N 
ATOM      4  HN  UNL     1     -40.928 -45.497   9.251  1.00  0.00     0.167 HD
HETATM    5  C   UNL     1     -40.482 -45.624  11.342  1.00  0.00     0.060 A 
HETATM    6  C   UNL     1     -39.510 -44.641  11.599  1.00  0.00     0.032 A 
HETATM    7  C   UNL     1     -39.015 -44.492  12.897  1.00  0.00     0.002 A 
HETATM    8  C   UNL     1     -39.462 -45.322  13.917  1.00  0.00     0.002 A 
HETATM    9  C   UNL     1     -40.416 -46.314  13.671  1.00  0.00     0.032 A 
HETATM   10  C   UNL     1     -40.942 -46.442  12.376  1.00  0.00     0.062 A 
ENDROOT
BRANCH   1  11
HETATM   11  C   UNL     1     -42.836 -48.179  12.382  1.00  0.00     0.157 C 
BRANCH  11  12
HETATM   12  C   UNL     1     -42.343 -49.554  12.840  1.00  0.00     0.196 C 
BRANCH  12  13
HETATM   13  O   UNL     1     -41.433 -50.100  11.889  1.00  0.00    -0.348 OA
BRANCH  13  14
HETATM   14  C   UNL     1     -40.156 -50.438  12.257  1.00  0.00     0.090 A 
HETATM   15  C   UNL     1     -39.695 -51.397  13.171  1.00  0.00     0.067 A 
HETATM   16 CL   UNL     1     -40.688 -52.481  14.080  1.00  0.00    -0.081 Cl
HETATM   17  C   UNL     1     -38.316 -51.529  13.412  1.00  0.00     0.026 A 
HETATM   18  C   UNL     1     -37.388 -50.726  12.750  1.00  0.00     0.002 A 
HETATM   19  C   UNL     1     -37.832 -49.793  11.823  1.00  0.00     0.003 A 
HETATM   20  C   UNL     1     -39.201 -49.654  11.582  1.00  0.00     0.038 A 
ENDBRANCH  13  14
ENDBRANCH  12  13
ENDBRANCH  11  12
ENDBRANCH   1  11
BRANCH   2  21
HETATM   21  C   UNL     1     -42.684 -47.673   9.377  1.00  0.00     0.198 C 
BRANCH  21  22
HETATM   22  N   UNL     1     -43.258 -46.730   8.446  1.00  0.00    -0.361 N 
HETATM   23  H   UNL     1     -42.927 -46.752   7.490  1.00  0.00     0.162 HD
BRANCH  22  24
HETATM   24  C   UNL     1     -44.172 -45.790   8.826  1.00  0.00     0.348 C 
HETATM   25  O   UNL     1     -43.921 -44.617   9.068  1.00  0.00    -0.284 OA
ENDBRANCH  22  24
ENDBRANCH  21  22
ENDBRANCH   2  21
TORSDOF 7
ENDMDL
MODEL 3
REMARK VINA RESULT:      -6.1      3.863      5.880
REMARK  7 active torsions:
REMARK  status: ('A' for Active; 'I' for Inactive)
REMARK    1  A    between atoms: C_7  and  O_8 
REMARK    2  A    between atoms: O_8  and  C_9 
REMARK    3  A    between atoms: C_9  and  C_10 
REMARK    4  A    between atoms: C_10  and  N_11 
REMARK    5  A    between atoms: C_12  and  C_13 
REMARK    6  A    between atoms: C_13  and  N_14 
REMARK    7  A    between atoms: N_14  and  C_15 
ROOT
HETATM    1  N   UNL     1     -41.895 -46.924  10.512  1.00  0.00    -0.331 N 
HETATM    2  C   UNL     1     -43.075 -46.391   9.990  1.00  0.00     0.102 A 
HETATM    3  N   UNL     1     -43.166 -45.105  10.263  1.00  0.00    -0.343 N 
ATOM      4  HN  UNL     1     -43.946 -44.485  10.044  1.00  0.00     0.167 HD
HETATM    5  C   UNL     1     -42.003 -44.770  10.899  1.00  0.00     0.060 A 
HETATM    6  C   UNL     1     -41.592 -43.512  11.375  1.00  0.00     0.032 A 
HETATM    7  C   UNL     1     -40.343 -43.387  11.987  1.00  0.00     0.002 A 
HETATM    8  C   UNL     1     -39.505 -44.489  12.102  1.00  0.00     0.002 A 
HETATM    9  C   UNL     1     -39.894 -45.741  11.617  1.00  0.00     0.032 A 
HETATM   10  C   UNL     1     -41.164 -45.878  11.035  1.00  0.00     0.062 A 
ENDROOT
BRANCH   1  11
HETATM   11  C   UNL     1     -41.612 -48.354  10.512  1.00  0.00     0.157 C 
BRANCH  11  12
HETATM   12  C   UNL     1     -41.955 -49.200  11.740  1.00  0.00     0.196 C 
BRANCH  12  13
HETATM   13  O   UNL     1     -40.789 -49.842  12.248  1.00  0.00    -0.348 OA
BRANCH  13  14
HETATM   14  C   UNL     1     -39.864 -49.138  12.975  1.00  0.00     0.090 A 
HETATM   15  C   UNL     1     -38.474 -49.029  12.820  1.00  0.00     0.067 A 
HETATM   16 CL   UNL     1     -37.540 -49.769  11.568  1.00  0.00    -0.081 Cl
HETATM   17  C   UNL     1     -37.725 -48.269  13.735  1.00  0.00     0.026 A 
HETATM   18  C   UNL     1     -38.339 -47.608  14.798  1.00  0.00     0.002 A 
HETATM   19  C   UNL     1     -39.717 -47.687  14.944  1.00  0.00     0.003 A 
HETATM   20  C   UNL     1     -40.467 -48.443  14.041  1.00  0.00     0.038 A 
ENDBRANCH  13  14
ENDBRANCH  12  13
ENDBRANCH  11  12
ENDBRANCH   1  11
BRANCH   2  21
HETATM   21  C   UNL     1     -44.092 -47.151   9.205  1.00  0.00     0.198 C 
BRANCH  21  22
HETATM   22  N   UNL     1     -45.393 -47.001   9.813  1.00  0.00    -0.361 N 
HETATM   23  H   UNL     1     -45.432 -46.890  10.818  1.00  0.00     0.162 HD
BRANCH  22  24
HETATM   24  C   UNL     1     -46.551 -47.065   9.092  1.00  0.00     0.348 C 
HETATM   25  O   UNL     1     -46.883 -47.995   8.370  1.00  0.00    -0.284 OA
ENDBRANCH  22  24
ENDBRANCH  21  22
ENDBRANCH   2  21
TORSDOF 7
ENDMDL
MODEL 4
REMARK VINA RESULT:      -6.1      1.838      2.108
REMARK  7 active torsions:
REMARK  status: ('A' for Active; 'I' for Inactive)
REMARK    1  A    between atoms: C_7  and  O_8 
REMARK    2  A    between atoms: O_8  and  C_9 
REMARK    3  A    between atoms: C_9  and  C_10 
REMARK    4  A    between atoms: C_10  and  N_11 
REMARK    5  A    between atoms: C_12  and  C_13 
REMARK    6  A    between atoms: C_13  and  N_14 
REMARK    7  A    between atoms: N_14  and  C_15 
ROOT
HETATM    1  N   UNL     1     -41.164 -49.155  12.499  1.00  0.00    -0.331 N 
HETATM    2  C   UNL     1     -40.907 -48.346  11.391  1.00  0.00     0.102 A 
HETATM    3  N   UNL     1     -39.648 -48.455  11.017  1.00  0.00    -0.343 N 
ATOM      4  HN  UNL     1     -39.183 -47.938  10.270  1.00  0.00     0.167 HD
HETATM    5  C   UNL     1     -39.091 -49.401  11.831  1.00  0.00     0.060 A 
HETATM    6  C   UNL     1     -37.778 -49.902  11.826  1.00  0.00     0.032 A 
HETATM    7  C   UNL     1     -37.419 -50.891  12.746  1.00  0.00     0.002 A 
HETATM    8  C   UNL     1     -38.357 -51.390  13.641  1.00  0.00     0.002 A 
HETATM    9  C   UNL     1     -39.671 -50.912  13.645  1.00  0.00     0.032 A 
HETATM   10  C   UNL     1     -40.025 -49.892  12.746  1.00  0.00     0.062 A 
ENDROOT
BRANCH   1  11
HETATM   11  C   UNL     1     -42.423 -49.108  13.232  1.00  0.00     0.157 C 
BRANCH  11  12
HETATM   12  C   UNL     1     -43.516 -50.138  12.939  1.00  0.00     0.196 C 
BRANCH  12  13
HETATM   13  O   UNL     1     -43.648 -51.050  14.026  1.00  0.00    -0.348 OA
BRANCH  13  14
HETATM   14  C   UNL     1     -44.813 -51.117  14.746  1.00  0.00     0.090 A 
HETATM   15  C   UNL     1     -46.113 -51.463  14.346  1.00  0.00     0.067 A 
HETATM   16 CL   UNL     1     -46.577 -51.961  12.757  1.00  0.00    -0.081 Cl
HETATM   17  C   UNL     1     -47.167 -51.415  15.274  1.00  0.00     0.026 A 
HETATM   18  C   UNL     1     -46.947 -51.035  16.597  1.00  0.00     0.002 A 
HETATM   19  C   UNL     1     -45.661 -50.717  17.010  1.00  0.00     0.003 A 
HETATM   20  C   UNL     1     -44.609 -50.760  16.092  1.00  0.00     0.038 A 
ENDBRANCH  13  14
ENDBRANCH  12  13
ENDBRANCH  11  12
ENDBRANCH   1  11
BRANCH   2  21
HETATM   21  C   UNL     1     -41.913 -47.489  10.696  1.00  0.00     0.198 C 
BRANCH  21  22
HETATM   22  N   UNL     1     -42.450 -48.193   9.556  1.00  0.00    -0.361 N 
HETATM   23  H   UNL     1     -42.153 -49.149   9.410  1.00  0.00     0.162 HD
BRANCH  22  24
HETATM   24  C   UNL     1     -43.285 -47.597   8.654  1.00  0.00     0.348 C 
HETATM   25  O   UNL     1     -43.398 -47.915   7.478  1.00  0.00    -0.284 OA
ENDBRANCH  22  24
ENDBRANCH  21  22
ENDBRANCH   2  21
TORSDOF 7
ENDMDL
MODEL 5
REMARK VINA RESULT:      -5.9      3.946      6.573
REMARK  7 active torsions:
REMARK  status: ('A' for Active; 'I' for Inactive)
REMARK    1  A    between atoms: C_7  and  O_8 
REMARK    2  A    between atoms: O_8  and  C_9 
REMARK    3  A    between atoms: C_9  and  C_10 
REMARK    4  A    between atoms: C_10  and  N_11 
REMARK    5  A    between atoms: C_12  and  C_13 
REMARK    6  A    between atoms: C_13  and  N_14 
REMARK    7  A    between atoms: N_14  and  C_15 
ROOT
HETATM    1  N   UNL     1     -43.195 -52.953  14.253  1.00  0.00    -0.331 N 
HETATM    2  C   UNL     1     -42.836 -53.450  12.999  1.00  0.00     0.102 A 
HETATM    3  N   UNL     1     -43.836 -53.339  12.149  1.00  0.00    -0.343 N 
ATOM      4  HN  UNL     1     -43.861 -53.669  11.184  1.00  0.00     0.167 HD
HETATM    5  C   UNL     1     -44.835 -52.692  12.822  1.00  0.00     0.060 A 
HETATM    6  C   UNL     1     -46.104 -52.309  12.356  1.00  0.00     0.032 A 
HETATM    7  C   UNL     1     -46.975 -51.634  13.216  1.00  0.00     0.002 A 
HETATM    8  C   UNL     1     -46.581 -51.327  14.512  1.00  0.00     0.002 A 
HETATM    9  C   UNL     1     -45.315 -51.688  14.983  1.00  0.00     0.032 A 
HETATM   10  C   UNL     1     -44.452 -52.398  14.133  1.00  0.00     0.062 A 
ENDROOT
BRANCH   1  11
HETATM   11  C   UNL     1     -42.348 -53.102  15.430  1.00  0.00     0.157 C 
BRANCH  11  12
HETATM   12  C   UNL     1     -42.526 -54.313  16.349  1.00  0.00     0.196 C 
BRANCH  12  13
HETATM   13  O   UNL     1     -41.829 -55.442  15.829  1.00  0.00    -0.348 OA
BRANCH  13  14
HETATM   14  C   UNL     1     -40.623 -55.825  16.357  1.00  0.00     0.090 A 
HETATM   15  C   UNL     1     -39.324 -55.366  16.091  1.00  0.00     0.067 A 
HETATM   16 CL   UNL     1     -38.911 -54.097  14.993  1.00  0.00    -0.081 Cl
HETATM   17  C   UNL     1     -38.227 -55.956  16.742  1.00  0.00     0.026 A 
HETATM   18  C   UNL     1     -38.402 -56.990  17.660  1.00  0.00     0.002 A 
HETATM   19  C   UNL     1     -39.685 -57.432  17.952  1.00  0.00     0.003 A 
HETATM   20  C   UNL     1     -40.780 -56.854  17.306  1.00  0.00     0.038 A 
ENDBRANCH  13  14
ENDBRANCH  12  13
ENDBRANCH  11  12
ENDBRANCH   1  11
BRANCH   2  21
HETATM   21  C   UNL     1     -41.497 -54.010  12.644  1.00  0.00     0.198 C 
BRANCH  21  22
HETATM   22  N   UNL     1     -40.808 -53.103  11.756  1.00  0.00    -0.361 N 
HETATM   23  H   UNL     1     -40.577 -53.438  10.830  1.00  0.00     0.162 HD
BRANCH  22  24
HETATM   24  C   UNL     1     -40.415 -51.855  12.145  1.00  0.00     0.348 C 
HETATM   25  O   UNL     1     -39.281 -51.544  12.482  1.00  0.00    -0.284 OA
ENDBRANCH  22  24
ENDBRANCH  21  22
ENDBRANCH   2  21
TORSDOF 7
ENDMDL
MODEL 6
REMARK VINA RESULT:      -5.9      2.882      4.855
REMARK  7 active torsions:
REMARK  status: ('A' for Active; 'I' for Inactive)
REMARK    1  A    between atoms: C_7  and  O_8 
REMARK    2  A    between atoms: O_8  and  C_9 
REMARK    3  A    between atoms: C_9  and  C_10 
REMARK    4  A    between atoms: C_10  and  N_11 
REMARK    5  A    between atoms: C_12  and  C_13 
REMARK    6  A    between atoms: C_13  and  N_14 
REMARK    7  A    between atoms: N_14  and  C_15 
ROOT
HETATM    1  N   UNL     1     -42.187 -48.056  11.067  1.00  0.00    -0.331 N 
HETATM    2  C   UNL     1     -41.165 -47.129  10.852  1.00  0.00     0.102 A 
HETATM    3  N   UNL     1     -41.560 -46.184  10.023  1.00  0.00    -0.343 N 
ATOM      4  HN  UNL     1     -40.998 -45.415   9.657  1.00  0.00     0.167 HD
HETATM    5  C   UNL     1     -42.874 -46.443   9.751  1.00  0.00     0.060 A 
HETATM    6  C   UNL     1     -43.764 -45.717   8.940  1.00  0.00     0.032 A 
HETATM    7  C   UNL     1     -45.085 -46.154   8.812  1.00  0.00     0.002 A 
HETATM    8  C   UNL     1     -45.520 -47.281   9.498  1.00  0.00     0.002 A 
HETATM    9  C   UNL     1     -44.650 -48.002  10.321  1.00  0.00     0.032 A 
HETATM   10  C   UNL     1     -43.313 -47.587  10.423  1.00  0.00     0.062 A 
ENDROOT
BRANCH   1  11
HETATM   11  C   UNL     1     -41.981 -49.298  11.802  1.00  0.00     0.157 C 
BRANCH  11  12
HETATM   12  C   UNL     1     -42.782 -49.571  13.077  1.00  0.00     0.196 C 
BRANCH  12  13
HETATM   13  O   UNL     1     -43.715 -50.626  12.864  1.00  0.00    -0.348 OA
BRANCH  13  14
HETATM   14  C   UNL     1     -44.698 -50.887  13.784  1.00  0.00     0.090 A 
HETATM   15  C   UNL     1     -45.999 -51.383  13.611  1.00  0.00     0.067 A 
HETATM   16 CL   UNL     1     -46.704 -51.855  12.105  1.00  0.00    -0.081 Cl
HETATM   17  C   UNL     1     -46.848 -51.526  14.723  1.00  0.00     0.026 A 
HETATM   18  C   UNL     1     -46.418 -51.190  16.006  1.00  0.00     0.002 A 
HETATM   19  C   UNL     1     -45.124 -50.725  16.192  1.00  0.00     0.003 A 
HETATM   20  C   UNL     1     -44.277 -50.577  15.091  1.00  0.00     0.038 A 
ENDBRANCH  13  14
ENDBRANCH  12  13
ENDBRANCH  11  12
ENDBRANCH   1  11
BRANCH   2  21
HETATM   21  C   UNL     1     -39.814 -47.172  11.487  1.00  0.00     0.198 C 
BRANCH  21  22
HETATM   22  N   UNL     1     -39.872 -46.576  12.800  1.00  0.00    -0.361 N 
HETATM   23  H   UNL     1     -40.056 -47.186  13.586  1.00  0.00     0.162 HD
BRANCH  22  24
HETATM   24  C   UNL     1     -39.746 -45.231  13.000  1.00  0.00     0.348 C 
HETATM   25  O   UNL     1     -39.151 -44.459  12.260  1.00  0.00    -0.284 OA
ENDBRANCH  22  24
ENDBRANCH  21  22
ENDBRANCH   2  21
TORSDOF 7
ENDMDL
MODEL 7
REMARK VINA RESULT:      -5.8      1.455      1.801
REMARK  7 active torsions:
REMARK  status: ('A' for Active; 'I' for Inactive)
REMARK    1  A    between atoms: C_7  and  O_8 
REMARK    2  A    between atoms: O_8  and  C_9 
REMARK    3  A    between atoms: C_9  and  C_10 
REMARK    4  A    between atoms: C_10  and  N_11 
REMARK    5  A    between atoms: C_12  and  C_13 
REMARK    6  A    between atoms: C_13  and  N_14 
REMARK    7  A    between atoms: N_14  and  C_15 
ROOT
HETATM    1  N   UNL     1     -41.043 -49.017  12.584  1.00  0.00    -0.331 N 
HETATM    2  C   UNL     1     -40.819 -48.153  11.510  1.00  0.00     0.102 A 
HETATM    3  N   UNL     1     -39.586 -48.276  11.062  1.00  0.00    -0.343 N 
ATOM      4  HN  UNL     1     -39.146 -47.731  10.321  1.00  0.00     0.167 HD
HETATM    5  C   UNL     1     -39.018 -49.284  11.790  1.00  0.00     0.060 A 
HETATM    6  C   UNL     1     -37.723 -49.822  11.685  1.00  0.00     0.032 A 
HETATM    7  C   UNL     1     -37.348 -50.872  12.526  1.00  0.00     0.002 A 
HETATM    8  C   UNL     1     -38.252 -51.394  13.442  1.00  0.00     0.002 A 
HETATM    9  C   UNL     1     -39.549 -50.879  13.545  1.00  0.00     0.032 A 
HETATM   10  C   UNL     1     -39.917 -49.800  12.726  1.00  0.00     0.062 A 
ENDROOT
BRANCH   1  11
HETATM   11  C   UNL     1     -42.260 -48.975  13.386  1.00  0.00     0.157 C 
BRANCH  11  12
HETATM   12  C   UNL     1     -43.386 -49.975  13.116  1.00  0.00     0.196 C 
BRANCH  12  13
HETATM   13  O   UNL     1     -43.377 -51.014  14.091  1.00  0.00    -0.348 OA
BRANCH  13  14
HETATM   14  C   UNL     1     -44.453 -51.853  14.229  1.00  0.00     0.090 A 
HETATM   15  C   UNL     1     -44.580 -53.224  13.961  1.00  0.00     0.067 A 
HETATM   16 CL   UNL     1     -43.317 -54.260  13.396  1.00  0.00    -0.081 Cl
HETATM   17  C   UNL     1     -45.819 -53.862  14.146  1.00  0.00     0.026 A 
HETATM   18  C   UNL     1     -46.932 -53.158  14.603  1.00  0.00     0.002 A 
HETATM   19  C   UNL     1     -46.810 -51.807  14.897  1.00  0.00     0.003 A 
HETATM   20  C   UNL     1     -45.583 -51.166  14.712  1.00  0.00     0.038 A 
ENDBRANCH  13  14
ENDBRANCH  12  13
ENDBRANCH  11  12
ENDBRANCH   1  11
BRANCH   2  21
HETATM   21  C   UNL     1     -41.833 -47.229  10.921  1.00  0.00     0.198 C 
BRANCH  21  22
HETATM   22  N   UNL     1     -42.198 -47.681   9.600  1.00  0.00    -0.361 N 
HETATM   23  H   UNL     1     -41.464 -48.050   9.009  1.00  0.00     0.162 HD
BRANCH  22  24
HETATM   24  C   UNL     1     -43.470 -47.573   9.113  1.00  0.00     0.348 C 
HETATM   25  O   UNL     1     -44.485 -47.521   9.795  1.00  0.00    -0.284 OA
ENDBRANCH  22  24
ENDBRANCH  21  22
ENDBRANCH   2  21
TORSDOF 7
ENDMDL
MODEL 8
REMARK VINA RESULT:      -5.7      3.122      6.290
REMARK  7 active torsions:
REMARK  status: ('A' for Active; 'I' for Inactive)
REMARK    1  A    between atoms: C_7  and  O_8 
REMARK    2  A    between atoms: O_8  and  C_9 
REMARK    3  A    between atoms: C_9  and  C_10 
REMARK    4  A    between atoms: C_10  and  N_11 
REMARK    5  A    between atoms: C_12  and  C_13 
REMARK    6  A    between atoms: C_13  and  N_14 
REMARK    7  A    between atoms: N_14  and  C_15 
ROOT
HETATM    1  N   UNL     1     -42.686 -51.464  13.828  1.00  0.00    -0.331 N 
HETATM    2  C   UNL     1     -42.274 -52.123  12.668  1.00  0.00     0.102 A 
HETATM    3  N   UNL     1     -43.296 -52.708  12.077  1.00  0.00    -0.343 N 
ATOM      4  HN  UNL     1     -43.268 -53.296  11.244  1.00  0.00     0.167 HD
HETATM    5  C   UNL     1     -44.401 -52.367  12.806  1.00  0.00     0.060 A 
HETATM    6  C   UNL     1     -45.745 -52.713  12.579  1.00  0.00     0.032 A 
HETATM    7  C   UNL     1     -46.730 -52.238  13.448  1.00  0.00     0.002 A 
HETATM    8  C   UNL     1     -46.388 -51.413  14.512  1.00  0.00     0.002 A 
HETATM    9  C   UNL     1     -45.057 -51.047  14.738  1.00  0.00     0.032 A 
HETATM   10  C   UNL     1     -44.061 -51.553  13.888  1.00  0.00     0.062 A 
ENDROOT
BRANCH   1  11
HETATM   11  C   UNL     1     -41.745 -50.876  14.774  1.00  0.00     0.157 C 
BRANCH  11  12
HETATM   12  C   UNL     1     -41.425 -49.381  14.702  1.00  0.00     0.196 C 
BRANCH  12  13
HETATM   13  O   UNL     1     -42.567 -48.646  14.270  1.00  0.00    -0.348 OA
BRANCH  13  14
HETATM   14  C   UNL     1     -42.503 -47.843  13.160  1.00  0.00     0.090 A 
HETATM   15  C   UNL     1     -41.875 -46.602  12.969  1.00  0.00     0.067 A 
HETATM   16 CL   UNL     1     -40.937 -45.757  14.148  1.00  0.00    -0.081 Cl
HETATM   17  C   UNL     1     -41.990 -45.943  11.732  1.00  0.00     0.026 A 
HETATM   18  C   UNL     1     -42.713 -46.504  10.680  1.00  0.00     0.002 A 
HETATM   19  C   UNL     1     -43.314 -47.743  10.850  1.00  0.00     0.003 A 
HETATM   20  C   UNL     1     -43.207 -48.402  12.077  1.00  0.00     0.038 A 
ENDBRANCH  13  14
ENDBRANCH  12  13
ENDBRANCH  11  12
ENDBRANCH   1  11
BRANCH   2  21
HETATM   21  C   UNL     1     -40.877 -52.150  12.141  1.00  0.00     0.198 C 
BRANCH  21  22
HETATM   22  N   UNL     1     -40.690 -51.073  11.197  1.00  0.00    -0.361 N 
HETATM   23  H   UNL     1     -41.106 -51.174  10.280  1.00  0.00     0.162 HD
BRANCH  22  24
HETATM   24  C   UNL     1     -39.933 -49.973  11.482  1.00  0.00     0.348 C 
HETATM   25  O   UNL     1     -38.719 -49.897  11.351  1.00  0.00    -0.284 OA
ENDBRANCH  22  24
ENDBRANCH  21  22
ENDBRANCH   2  21
TORSDOF 7
ENDMDL
MODEL 9
REMARK VINA RESULT:      -5.7      2.670      5.858
REMARK  7 active torsions:
REMARK  status: ('A' for Active; 'I' for Inactive)
REMARK    1  A    between atoms: C_7  and  O_8 
REMARK    2  A    between atoms: O_8  and  C_9 
REMARK    3  A    between atoms: C_9  and  C_10 
REMARK    4  A    between atoms: C_10  and  N_11 
REMARK    5  A    between atoms: C_12  and  C_13 
REMARK    6  A    between atoms: C_13  and  N_14 
REMARK    7  A    between atoms: N_14  and  C_15 
ROOT
HETATM    1  N   UNL     1     -40.908 -53.022  13.345  1.00  0.00    -0.331 N 
HETATM    2  C   UNL     1     -41.083 -52.145  12.272  1.00  0.00     0.102 A 
HETATM    3  N   UNL     1     -42.301 -52.250  11.780  1.00  0.00    -0.343 N 
ATOM      4  HN  UNL     1     -42.677 -51.764  10.966  1.00  0.00     0.167 HD
HETATM    5  C   UNL     1     -42.958 -53.142  12.581  1.00  0.00     0.060 A 
HETATM    6  C   UNL     1     -44.291 -53.581  12.498  1.00  0.00     0.032 A 
HETATM    7  C   UNL     1     -44.770 -54.495  13.440  1.00  0.00     0.002 A 
HETATM    8  C   UNL     1     -43.944 -54.947  14.461  1.00  0.00     0.002 A 
HETATM    9  C   UNL     1     -42.621 -54.505  14.565  1.00  0.00     0.032 A 
HETATM   10  C   UNL     1     -42.127 -53.615  13.598  1.00  0.00     0.062 A 
ENDROOT
BRANCH   1  11
HETATM   11  C   UNL     1     -39.611 -53.245  13.973  1.00  0.00     0.157 C 
BRANCH  11  12
HETATM   12  C   UNL     1     -39.419 -52.929  15.458  1.00  0.00     0.196 C 
BRANCH  12  13
HETATM   13  O   UNL     1     -38.487 -51.864  15.626  1.00  0.00    -0.348 OA
BRANCH  13  14
HETATM   14  C   UNL     1     -38.747 -50.619  15.114  1.00  0.00     0.090 A 
HETATM   15  C   UNL     1     -39.898 -49.821  15.199  1.00  0.00     0.067 A 
HETATM   16 CL   UNL     1     -41.340 -50.223  16.062  1.00  0.00    -0.081 Cl
HETATM   17  C   UNL     1     -39.938 -48.579  14.542  1.00  0.00     0.026 A 
HETATM   18  C   UNL     1     -38.847 -48.115  13.807  1.00  0.00     0.002 A 
HETATM   19  C   UNL     1     -37.694 -48.885  13.740  1.00  0.00     0.003 A 
HETATM   20  C   UNL     1     -37.649 -50.122  14.387  1.00  0.00     0.038 A 
ENDBRANCH  13  14
ENDBRANCH  12  13
ENDBRANCH  11  12
ENDBRANCH   1  11
BRANCH   2  21
HETATM   21  C   UNL     1     -40.054 -51.194  11.758  1.00  0.00     0.198 C 
BRANCH  21  22
HETATM   22  N   UNL     1     -40.633 -50.348  10.742  1.00  0.00    -0.361 N 
HETATM   23  H   UNL     1     -40.619 -50.682   9.787  1.00  0.00     0.162 HD
BRANCH  22  24
HETATM   24  C   UNL     1     -41.136 -49.109  11.020  1.00  0.00     0.348 C 
HETATM   25  O   UNL     1     -42.266 -48.880  11.430  1.00  0.00    -0.284 OA
ENDBRANCH  22  24
ENDBRANCH  21  22
ENDBRANCH   2  21
TORSDOF 7
ENDMDL
