MODEL 1
REMARK VINA RESULT:      -6.4      0.000      0.000
REMARK  5 active torsions:
REMARK  status: ('A' for Active; 'I' for Inactive)
REMARK    1  A    between atoms: C_2  and  C_5 
REMARK    2  A    between atoms: C_9  and  N_10 
REMARK       I    between atoms: N_10  and  C_11 
REMARK       I    between atoms: C_11  and  N_13 
REMARK    3  A    between atoms: N_13  and  C_14 
REMARK    4  A    between atoms: C_16  and  C_17 
REMARK    5  A    between atoms: C_17  and  O_18 
ROOT
HETATM    1  N   UNL     1     -41.470 -50.354  11.416  1.00  0.00    -0.306 N 
HETATM    2  C   UNL     1     -42.106 -50.872  12.519  1.00  0.00     0.321 C 
HETATM    3  O   UNL     1     -42.440 -50.228  13.508  1.00  0.00    -0.247 OA
HETATM    4  N   UNL     1     -42.345 -52.226  12.453  1.00  0.00    -0.335 N 
HETATM    5  H   UNL     1     -41.257 -50.980  10.655  1.00  0.00     0.171 HD
HETATM    6  H   UNL     1     -42.407 -52.681  11.555  1.00  0.00     0.164 HD
ENDROOT
BRANCH   1   7
HETATM    7  C   UNL     1     -41.096 -48.990  11.287  1.00  0.00     0.067 A 
HETATM    8  C   UNL     1     -41.698 -48.086  10.433  1.00  0.00     0.120 A 
HETATM    9  N   UNL     1     -41.342 -46.788  10.316  1.00  0.00    -0.353 N 
HETATM   10  C   UNL     1     -40.352 -46.344  11.106  1.00  0.00     0.088 A 
ATOM     11  HN  UNL     1     -41.807 -46.169   9.652  1.00  0.00     0.166 HD
HETATM   12  N   UNL     1     -39.681 -47.138  11.967  1.00  0.00    -0.353 N 
HETATM   13  C   UNL     1     -40.075 -48.438  12.039  1.00  0.00     0.120 A 
ATOM     14  HN  UNL     1     -38.914 -46.779  12.537  1.00  0.00     0.166 HD
BRANCH  10  15
HETATM   15  C   UNL     1     -40.012 -44.859  10.997  1.00  0.00     0.007 C 
HETATM   16  C   UNL     1     -41.318 -44.033  10.951  1.00  0.00     0.022 C 
HETATM   17  C   UNL     1     -39.217 -44.603   9.705  1.00  0.00     0.022 C 
HETATM   18  C   UNL     1     -39.188 -44.376  12.203  1.00  0.00     0.022 C 
ENDBRANCH  10  15
ENDBRANCH   1   7
BRANCH   4  19
HETATM   19  C   UNL     1     -43.020 -52.817  13.585  1.00  0.00     0.109 C 
HETATM   20  C   UNL     1     -44.433 -53.329  13.270  1.00  0.00     0.040 C 
HETATM   21  C   UNL     1     -44.667 -54.439  14.299  1.00  0.00     0.034 C 
HETATM   22  C   UNL     1     -43.261 -54.958  14.475  1.00  0.00    -0.022 C 
HETATM   23  C   UNL     1     -42.351 -54.065  14.058  1.00  0.00    -0.005 C 
BRANCH  21  24
HETATM   24  C   UNL     1     -45.686 -55.467  13.813  1.00  0.00     0.172 C 
BRANCH  24  25
HETATM   25  O   UNL     1     -46.891 -55.373  14.569  1.00  0.00    -0.400 OA
HETATM   26  H   UNL     1     -47.216 -56.277  14.713  1.00  0.00     0.209 HD
ENDBRANCH  24  25
ENDBRANCH  21  24
ENDBRANCH   4  19
TORSDOF 5
ENDMDL
MODEL 2
REMARK VINA RESULT:      -6.1      3.275      4.421
REMARK  5 active torsions:
REMARK  status: ('A' for Active; 'I' for Inactive)
REMARK    1  A    between atoms: C_2  and  C_5 
REMARK    2  A    between atoms: C_9  and  N_10 
REMARK       I    between atoms: N_10  and  C_11 
REMARK       I    between atoms: C_11  and  N_13 
REMARK    3  A    between atoms: N_13  and  C_14 
REMARK    4  A    between atoms: C_16  and  C_17 
REMARK    5  A    between atoms: C_17  and  O_18 
ROOT
HETATM    1  N   UNL     1     -41.045 -50.053  12.951  1.00  0.00    -0.306 N 
HETATM    2  C   UNL     1     -41.110 -51.420  13.070  1.00  0.00     0.321 C 
HETATM    3  O   UNL     1     -41.748 -52.162  12.331  1.00  0.00    -0.247 OA
HETATM    4  N   UNL     1     -40.396 -51.934  14.128  1.00  0.00    -0.335 N 
HETATM    5  H   UNL     1     -40.475 -49.547  13.611  1.00  0.00     0.171 HD
HETATM    6  H   UNL     1     -39.618 -51.415  14.505  1.00  0.00     0.164 HD
ENDROOT
BRANCH   1   7
HETATM    7  C   UNL     1     -41.732 -49.311  11.953  1.00  0.00     0.067 A 
HETATM    8  C   UNL     1     -41.197 -48.947  10.733  1.00  0.00     0.120 A 
HETATM    9  N   UNL     1     -41.855 -48.245   9.785  1.00  0.00    -0.353 N 
HETATM   10  C   UNL     1     -43.128 -47.904  10.040  1.00  0.00     0.088 A 
ATOM     11  HN  UNL     1     -41.403 -47.985   8.909  1.00  0.00     0.166 HD
HETATM   12  N   UNL     1     -43.752 -48.191  11.202  1.00  0.00    -0.353 N 
HETATM   13  C   UNL     1     -43.039 -48.893  12.125  1.00  0.00     0.120 A 
ATOM     14  HN  UNL     1     -44.712 -47.896  11.380  1.00  0.00     0.166 HD
BRANCH  10  15
HETATM   15  C   UNL     1     -43.868 -47.165   8.926  1.00  0.00     0.007 C 
HETATM   16  C   UNL     1     -45.391 -47.362   9.100  1.00  0.00     0.022 C 
HETATM   17  C   UNL     1     -43.446 -47.731   7.560  1.00  0.00     0.022 C 
HETATM   18  C   UNL     1     -43.579 -45.655   8.960  1.00  0.00     0.022 C 
ENDBRANCH  10  15
ENDBRANCH   1   7
BRANCH   4  19
HETATM   19  C   UNL     1     -40.426 -53.369  14.291  1.00  0.00     0.109 C 
HETATM   20  C   UNL     1     -39.105 -53.966  14.794  1.00  0.00     0.040 C 
HETATM   21  C   UNL     1     -39.524 -55.255  15.506  1.00  0.00     0.034 C 
HETATM   22  C   UNL     1     -40.886 -54.860  16.023  1.00  0.00    -0.022 C 
HETATM   23  C   UNL     1     -41.373 -53.800  15.360  1.00  0.00    -0.005 C 
BRANCH  21  24
HETATM   24  C   UNL     1     -38.518 -55.676  16.575  1.00  0.00     0.172 C 
BRANCH  24  25
HETATM   25  O   UNL     1     -37.304 -56.118  15.973  1.00  0.00    -0.400 OA
HETATM   26  H   UNL     1     -37.090 -55.496  15.257  1.00  0.00     0.209 HD
ENDBRANCH  24  25
ENDBRANCH  21  24
ENDBRANCH   4  19
TORSDOF 5
ENDMDL
MODEL 3
REMARK VINA RESULT:      -6.1      4.984      7.178
REMARK  5 active torsions:
REMARK  status: ('A' for Active; 'I' for Inactive)
REMARK    1  A    between atoms: C_2  and  C_5 
REMARK    2  A    between atoms: C_9  and  N_10 
REMARK       I    between atoms: N_10  and  C_11 
REMARK       I    between atoms: C_11  and  N_13 
REMARK    3  A    between atoms: N_13  and  C_14 
REMARK    4  A    between atoms: C_16  and  C_17 
REMARK    5  A    between atoms: C_17  and  O_18 
ROOT
HETATM    1  N   UNL     1     -40.945 -48.460  13.652  1.00  0.00    -0.306 N 
HETATM    2  C   UNL     1     -39.577 -48.340  13.700  1.00  0.00     0.321 C 
HETATM    3  O   UNL     1     -38.874 -47.913  12.790  1.00  0.00    -0.247 OA
HETATM    4  N   UNL     1     -39.010 -48.763  14.881  1.00  0.00    -0.335 N 
HETATM    5  H   UNL     1     -41.418 -48.813  14.469  1.00  0.00     0.171 HD
HETATM    6  H   UNL     1     -39.561 -48.774  15.725  1.00  0.00     0.164 HD
ENDROOT
BRANCH   1   7
HETATM    7  C   UNL     1     -41.730 -48.117  12.520  1.00  0.00     0.067 A 
HETATM    8  C   UNL     1     -41.704 -48.785  11.311  1.00  0.00     0.120 A 
HETATM    9  N   UNL     1     -42.456 -48.459  10.238  1.00  0.00    -0.353 N 
HETATM   10  C   UNL     1     -43.307 -47.429  10.369  1.00  0.00     0.088 A 
ATOM     11  HN  UNL     1     -42.380 -48.975   9.361  1.00  0.00     0.166 HD
HETATM   12  N   UNL     1     -43.409 -46.693  11.495  1.00  0.00    -0.353 N 
HETATM   13  C   UNL     1     -42.623 -47.061  12.543  1.00  0.00     0.120 A 
ATOM     14  HN  UNL     1     -44.046 -45.899  11.558  1.00  0.00     0.166 HD
BRANCH  10  15
HETATM   15  C   UNL     1     -44.189 -47.121   9.160  1.00  0.00     0.007 C 
HETATM   16  C   UNL     1     -44.226 -45.594   8.924  1.00  0.00     0.022 C 
HETATM   17  C   UNL     1     -45.621 -47.618   9.423  1.00  0.00     0.022 C 
HETATM   18  C   UNL     1     -43.649 -47.785   7.882  1.00  0.00     0.022 C 
ENDBRANCH  10  15
ENDBRANCH   1   7
BRANCH   4  19
HETATM   19  C   UNL     1     -37.573 -48.649  14.983  1.00  0.00     0.109 C 
HETATM   20  C   UNL     1     -37.103 -47.658  16.057  1.00  0.00     0.040 C 
HETATM   21  C   UNL     1     -35.713 -48.166  16.451  1.00  0.00     0.034 C 
HETATM   22  C   UNL     1     -35.888 -49.650  16.245  1.00  0.00    -0.022 C 
HETATM   23  C   UNL     1     -36.934 -49.915  15.448  1.00  0.00    -0.005 C 
BRANCH  21  24
HETATM   24  C   UNL     1     -35.328 -47.744  17.868  1.00  0.00     0.172 C 
BRANCH  24  25
HETATM   25  O   UNL     1     -34.103 -47.016  17.858  1.00  0.00    -0.400 OA
HETATM   26  H   UNL     1     -34.023 -46.592  16.987  1.00  0.00     0.209 HD
ENDBRANCH  24  25
ENDBRANCH  21  24
ENDBRANCH   4  19
TORSDOF 5
ENDMDL
MODEL 4
REMARK VINA RESULT:      -6.1      4.602      6.747
REMARK  5 active torsions:
REMARK  status: ('A' for Active; 'I' for Inactive)
REMARK    1  A    between atoms: C_2  and  C_5 
REMARK    2  A    between atoms: C_9  and  N_10 
REMARK       I    between atoms: N_10  and  C_11 
REMARK       I    between atoms: C_11  and  N_13 
REMARK    3  A    between atoms: N_13  and  C_14 
REMARK    4  A    between atoms: C_16  and  C_17 
REMARK    5  A    between atoms: C_17  and  O_18 
ROOT
HETATM    1  N   UNL     1     -38.994 -48.249  12.123  1.00  0.00    -0.306 N 
HETATM    2  C   UNL     1     -38.918 -48.289  13.495  1.00  0.00     0.321 C 
HETATM    3  O   UNL     1     -39.857 -48.093  14.259  1.00  0.00    -0.247 OA
HETATM    4  N   UNL     1     -37.662 -48.561  13.987  1.00  0.00    -0.335 N 
HETATM    5  H   UNL     1     -38.156 -48.441  11.597  1.00  0.00     0.171 HD
HETATM    6  H   UNL     1     -36.996 -49.057  13.414  1.00  0.00     0.164 HD
ENDROOT
BRANCH   1   7
HETATM    7  C   UNL     1     -40.182 -47.951  11.405  1.00  0.00     0.067 A 
HETATM    8  C   UNL     1     -40.488 -46.717  10.863  1.00  0.00     0.120 A 
HETATM    9  N   UNL     1     -41.617 -46.440  10.176  1.00  0.00    -0.353 N 
HETATM   10  C   UNL     1     -42.488 -47.443   9.986  1.00  0.00     0.088 A 
ATOM     11  HN  UNL     1     -41.801 -45.503   9.816  1.00  0.00     0.166 HD
HETATM   12  N   UNL     1     -42.305 -48.685  10.480  1.00  0.00    -0.353 N 
HETATM   13  C   UNL     1     -41.154 -48.908  11.171  1.00  0.00     0.120 A 
ATOM     14  HN  UNL     1     -42.997 -49.422  10.343  1.00  0.00     0.166 HD
BRANCH  10  15
HETATM   15  C   UNL     1     -43.727 -47.116   9.154  1.00  0.00     0.007 C 
HETATM   16  C   UNL     1     -44.985 -47.664   9.864  1.00  0.00     0.022 C 
HETATM   17  C   UNL     1     -43.611 -47.776   7.770  1.00  0.00     0.022 C 
HETATM   18  C   UNL     1     -43.906 -45.598   8.978  1.00  0.00     0.022 C 
ENDBRANCH  10  15
ENDBRANCH   1   7
BRANCH   4  19
HETATM   19  C   UNL     1     -37.532 -48.623  15.424  1.00  0.00     0.109 C 
HETATM   20  C   UNL     1     -37.203 -50.024  15.959  1.00  0.00     0.040 C 
HETATM   21  C   UNL     1     -36.478 -49.758  17.282  1.00  0.00     0.034 C 
HETATM   22  C   UNL     1     -35.795 -48.449  16.969  1.00  0.00    -0.022 C 
HETATM   23  C   UNL     1     -36.369 -47.833  15.925  1.00  0.00    -0.005 C 
BRANCH  21  24
HETATM   24  C   UNL     1     -35.546 -50.905  17.667  1.00  0.00     0.172 C 
BRANCH  24  25
HETATM   25  O   UNL     1     -34.491 -50.434  18.502  1.00  0.00    -0.400 OA
HETATM   26  H   UNL     1     -33.669 -50.853  18.197  1.00  0.00     0.209 HD
ENDBRANCH  24  25
ENDBRANCH  21  24
ENDBRANCH   4  19
TORSDOF 5
ENDMDL
MODEL 5
REMARK VINA RESULT:      -5.5      1.608      2.030
REMARK  5 active torsions:
REMARK  status: ('A' for Active; 'I' for Inactive)
REMARK    1  A    between atoms: C_2  and  C_5 
REMARK    2  A    between atoms: C_9  and  N_10 
REMARK       I    between atoms: N_10  and  C_11 
REMARK       I    between atoms: C_11  and  N_13 
REMARK    3  A    between atoms: N_13  and  C_14 
REMARK    4  A    between atoms: C_16  and  C_17 
REMARK    5  A    between atoms: C_17  and  O_18 
ROOT
HETATM    1  N   UNL     1     -43.261 -49.322  12.213  1.00  0.00    -0.306 N 
HETATM    2  C   UNL     1     -42.707 -50.543  12.516  1.00  0.00     0.321 C 
HETATM    3  O   UNL     1     -41.506 -50.765  12.626  1.00  0.00    -0.247 OA
HETATM    4  N   UNL     1     -43.623 -51.557  12.681  1.00  0.00    -0.335 N 
HETATM    5  H   UNL     1     -44.265 -49.257  12.162  1.00  0.00     0.171 HD
HETATM    6  H   UNL     1     -44.572 -51.337  12.941  1.00  0.00     0.164 HD
ENDROOT
BRANCH   1   7
HETATM    7  C   UNL     1     -42.501 -48.148  11.967  1.00  0.00     0.067 A 
HETATM    8  C   UNL     1     -42.236 -47.169  12.906  1.00  0.00     0.120 A 
HETATM    9  N   UNL     1     -41.510 -46.056  12.669  1.00  0.00    -0.353 N 
HETATM   10  C   UNL     1     -40.986 -45.907  11.442  1.00  0.00     0.088 A 
ATOM     11  HN  UNL     1     -41.364 -45.354  13.395  1.00  0.00     0.166 HD
HETATM   12  N   UNL     1     -41.189 -46.789  10.440  1.00  0.00    -0.353 N 
HETATM   13  C   UNL     1     -41.936 -47.889  10.731  1.00  0.00     0.120 A 
ATOM     14  HN  UNL     1     -40.801 -46.637   9.509  1.00  0.00     0.166 HD
BRANCH  10  15
HETATM   15  C   UNL     1     -40.118 -44.670  11.221  1.00  0.00     0.007 C 
HETATM   16  C   UNL     1     -41.019 -43.418  11.122  1.00  0.00     0.022 C 
HETATM   17  C   UNL     1     -39.329 -44.818   9.909  1.00  0.00     0.022 C 
HETATM   18  C   UNL     1     -39.134 -44.454  12.383  1.00  0.00     0.022 C 
ENDBRANCH  10  15
ENDBRANCH   1   7
BRANCH   4  19
HETATM   19  C   UNL     1     -43.091 -52.859  13.010  1.00  0.00     0.109 C 
HETATM   20  C   UNL     1     -42.678 -53.010  14.481  1.00  0.00     0.040 C 
HETATM   21  C   UNL     1     -42.802 -54.512  14.751  1.00  0.00     0.034 C 
HETATM   22  C   UNL     1     -43.940 -54.870  13.827  1.00  0.00    -0.022 C 
HETATM   23  C   UNL     1     -44.110 -53.941  12.875  1.00  0.00    -0.005 C 
BRANCH  21  24
HETATM   24  C   UNL     1     -43.044 -54.811  16.229  1.00  0.00     0.172 C 
BRANCH  24  25
HETATM   25  O   UNL     1     -42.740 -56.173  16.521  1.00  0.00    -0.400 OA
HETATM   26  H   UNL     1     -42.499 -56.222  17.461  1.00  0.00     0.209 HD
ENDBRANCH  24  25
ENDBRANCH  21  24
ENDBRANCH   4  19
TORSDOF 5
ENDMDL
MODEL 6
REMARK VINA RESULT:      -5.3      2.231      3.090
REMARK  5 active torsions:
REMARK  status: ('A' for Active; 'I' for Inactive)
REMARK    1  A    between atoms: C_2  and  C_5 
REMARK    2  A    between atoms: C_9  and  N_10 
REMARK       I    between atoms: N_10  and  C_11 
REMARK       I    between atoms: C_11  and  N_13 
REMARK    3  A    between atoms: N_13  and  C_14 
REMARK    4  A    between atoms: C_16  and  C_17 
REMARK    5  A    between atoms: C_17  and  O_18 
ROOT
HETATM    1  N   UNL     1     -40.772 -51.112  10.987  1.00  0.00    -0.306 N 
HETATM    2  C   UNL     1     -40.825 -51.957  12.070  1.00  0.00     0.321 C 
HETATM    3  O   UNL     1     -40.796 -51.602  13.243  1.00  0.00    -0.247 OA
HETATM    4  N   UNL     1     -40.900 -53.292  11.746  1.00  0.00    -0.335 N 
HETATM    5  H   UNL     1     -40.817 -51.519  10.066  1.00  0.00     0.171 HD
HETATM    6  H   UNL     1     -41.271 -53.570  10.850  1.00  0.00     0.164 HD
ENDROOT
BRANCH   1   7
HETATM    7  C   UNL     1     -40.656 -49.700  11.090  1.00  0.00     0.067 A 
HETATM    8  C   UNL     1     -41.693 -48.808  10.893  1.00  0.00     0.120 A 
HETATM    9  N   UNL     1     -41.580 -47.467  10.996  1.00  0.00    -0.353 N 
HETATM   10  C   UNL     1     -40.382 -46.971  11.341  1.00  0.00     0.088 A 
ATOM     11  HN  UNL     1     -42.376 -46.853  10.818  1.00  0.00     0.166 HD
HETATM   12  N   UNL     1     -39.293 -47.743  11.545  1.00  0.00    -0.353 N 
HETATM   13  C   UNL     1     -39.461 -49.087  11.420  1.00  0.00     0.120 A 
ATOM     14  HN  UNL     1     -38.388 -47.337  11.781  1.00  0.00     0.166 HD
BRANCH  10  15
HETATM   15  C   UNL     1     -40.299 -45.455  11.511  1.00  0.00     0.007 C 
HETATM   16  C   UNL     1     -39.603 -44.835  10.278  1.00  0.00     0.022 C 
HETATM   17  C   UNL     1     -39.477 -45.118  12.766  1.00  0.00     0.022 C 
HETATM   18  C   UNL     1     -41.695 -44.822  11.634  1.00  0.00     0.022 C 
ENDBRANCH  10  15
ENDBRANCH   1   7
BRANCH   4  19
HETATM   19  C   UNL     1     -40.967 -54.221  12.850  1.00  0.00     0.109 C 
HETATM   20  C   UNL     1     -39.898 -53.986  13.926  1.00  0.00     0.040 C 
HETATM   21  C   UNL     1     -40.524 -54.553  15.204  1.00  0.00     0.034 C 
HETATM   22  C   UNL     1     -41.985 -54.279  14.946  1.00  0.00    -0.022 C 
HETATM   23  C   UNL     1     -42.223 -54.074  13.642  1.00  0.00    -0.005 C 
BRANCH  21  24
HETATM   24  C   UNL     1     -39.950 -53.904  16.461  1.00  0.00     0.172 C 
BRANCH  24  25
HETATM   25  O   UNL     1     -38.991 -52.907  16.118  1.00  0.00    -0.400 OA
HETATM   26  H   UNL     1     -38.200 -53.064  16.662  1.00  0.00     0.209 HD
ENDBRANCH  24  25
ENDBRANCH  21  24
ENDBRANCH   4  19
TORSDOF 5
ENDMDL
MODEL 7
REMARK VINA RESULT:      -5.3      3.339      5.466
REMARK  5 active torsions:
REMARK  status: ('A' for Active; 'I' for Inactive)
REMARK    1  A    between atoms: C_2  and  C_5 
REMARK    2  A    between atoms: C_9  and  N_10 
REMARK       I    between atoms: N_10  and  C_11 
REMARK       I    between atoms: C_11  and  N_13 
REMARK    3  A    between atoms: N_13  and  C_14 
REMARK    4  A    between atoms: C_16  and  C_17 
REMARK    5  A    between atoms: C_17  and  O_18 
ROOT
HETATM    1  N   UNL     1     -40.840 -45.606  10.697  1.00  0.00    -0.306 N 
HETATM    2  C   UNL     1     -40.558 -46.528  11.677  1.00  0.00     0.321 C 
HETATM    3  O   UNL     1     -40.639 -46.321  12.883  1.00  0.00    -0.247 OA
HETATM    4  N   UNL     1     -40.145 -47.752  11.204  1.00  0.00    -0.335 N 
HETATM    5  H   UNL     1     -40.750 -45.895   9.735  1.00  0.00     0.171 HD
HETATM    6  H   UNL     1     -40.405 -48.044  10.274  1.00  0.00     0.164 HD
ENDROOT
BRANCH   1   7
HETATM    7  C   UNL     1     -41.248 -44.272  10.959  1.00  0.00     0.067 A 
HETATM    8  C   UNL     1     -40.389 -43.205  11.136  1.00  0.00     0.120 A 
HETATM    9  N   UNL     1     -40.781 -41.936  11.382  1.00  0.00    -0.353 N 
HETATM   10  C   UNL     1     -42.101 -41.694  11.428  1.00  0.00     0.088 A 
ATOM     11  HN  UNL     1     -40.101 -41.189  11.526  1.00  0.00     0.166 HD
HETATM   12  N   UNL     1     -43.034 -42.659  11.285  1.00  0.00    -0.353 N 
HETATM   13  C   UNL     1     -42.583 -43.920  11.048  1.00  0.00     0.120 A 
ATOM     14  HN  UNL     1     -44.031 -42.451  11.352  1.00  0.00     0.166 HD
BRANCH  10  15
HETATM   15  C   UNL     1     -42.516 -40.240  11.646  1.00  0.00     0.007 C 
HETATM   16  C   UNL     1     -44.055 -40.125  11.556  1.00  0.00     0.022 C 
HETATM   17  C   UNL     1     -41.888 -39.354  10.558  1.00  0.00     0.022 C 
HETATM   18  C   UNL     1     -42.082 -39.729  13.030  1.00  0.00     0.022 C 
ENDBRANCH  10  15
ENDBRANCH   1   7
BRANCH   4  19
HETATM   19  C   UNL     1     -39.844 -48.759  12.195  1.00  0.00     0.109 C 
HETATM   20  C   UNL     1     -40.874 -49.896  12.259  1.00  0.00     0.040 C 
HETATM   21  C   UNL     1     -40.082 -51.087  12.806  1.00  0.00     0.034 C 
HETATM   22  C   UNL     1     -38.713 -50.796  12.240  1.00  0.00    -0.022 C 
HETATM   23  C   UNL     1     -38.593 -49.509  11.883  1.00  0.00    -0.005 C 
BRANCH  21  24
HETATM   24  C   UNL     1     -40.691 -52.423  12.387  1.00  0.00     0.172 C 
BRANCH  24  25
HETATM   25  O   UNL     1     -41.155 -52.362  11.041  1.00  0.00    -0.400 OA
HETATM   26  H   UNL     1     -41.916 -52.962  10.968  1.00  0.00     0.209 HD
ENDBRANCH  24  25
ENDBRANCH  21  24
ENDBRANCH   4  19
TORSDOF 5
ENDMDL
MODEL 8
REMARK VINA RESULT:      -5.2     14.463     15.365
REMARK  5 active torsions:
REMARK  status: ('A' for Active; 'I' for Inactive)
REMARK    1  A    between atoms: C_2  and  C_5 
REMARK    2  A    between atoms: C_9  and  N_10 
REMARK       I    between atoms: N_10  and  C_11 
REMARK       I    between atoms: C_11  and  N_13 
REMARK    3  A    between atoms: N_13  and  C_14 
REMARK    4  A    between atoms: C_16  and  C_17 
REMARK    5  A    between atoms: C_17  and  O_18 
ROOT
HETATM    1  N   UNL     1     -50.255 -50.155   1.139  1.00  0.00    -0.306 N 
HETATM    2  C   UNL     1     -50.634 -50.698  -0.065  1.00  0.00     0.321 C 
HETATM    3  O   UNL     1     -51.069 -50.062  -1.019  1.00  0.00    -0.247 OA
HETATM    4  N   UNL     1     -50.507 -52.066  -0.137  1.00  0.00    -0.335 N 
HETATM    5  H   UNL     1     -49.899 -50.777   1.848  1.00  0.00     0.171 HD
HETATM    6  H   UNL     1     -49.850 -52.540   0.464  1.00  0.00     0.164 HD
ENDROOT
BRANCH   1   7
HETATM    7  C   UNL     1     -50.337 -48.770   1.444  1.00  0.00     0.067 A 
HETATM    8  C   UNL     1     -49.269 -47.893   1.417  1.00  0.00     0.120 A 
HETATM    9  N   UNL     1     -49.352 -46.576   1.703  1.00  0.00    -0.353 N 
HETATM   10  C   UNL     1     -50.562 -46.083   2.008  1.00  0.00     0.088 A 
ATOM     11  HN  UNL     1     -48.525 -45.978   1.688  1.00  0.00     0.166 HD
HETATM   12  N   UNL     1     -51.674 -46.846   2.080  1.00  0.00    -0.353 N 
HETATM   13  C   UNL     1     -51.533 -48.167   1.790  1.00  0.00     0.120 A 
ATOM     14  HN  UNL     1     -52.577 -46.449   2.340  1.00  0.00     0.166 HD
BRANCH  10  15
HETATM   15  C   UNL     1     -50.636 -44.579   2.266  1.00  0.00     0.007 C 
HETATM   16  C   UNL     1     -50.402 -43.816   0.943  1.00  0.00     0.022 C 
HETATM   17  C   UNL     1     -49.547 -44.173   3.273  1.00  0.00     0.022 C 
HETATM   18  C   UNL     1     -52.013 -44.167   2.814  1.00  0.00     0.022 C 
ENDBRANCH  10  15
ENDBRANCH   1   7
BRANCH   4  19
HETATM   19  C   UNL     1     -50.885 -52.684  -1.387  1.00  0.00     0.109 C 
HETATM   20  C   UNL     1     -49.811 -53.612  -1.972  1.00  0.00     0.040 C 
HETATM   21  C   UNL     1     -50.603 -54.610  -2.823  1.00  0.00     0.034 C 
HETATM   22  C   UNL     1     -51.893 -54.681  -2.044  1.00  0.00    -0.022 C 
HETATM   23  C   UNL     1     -52.036 -53.622  -1.233  1.00  0.00    -0.005 C 
BRANCH  21  24
HETATM   24  C   UNL     1     -49.866 -55.937  -2.987  1.00  0.00     0.172 C 
BRANCH  24  25
HETATM   25  O   UNL     1     -48.676 -55.949  -2.203  1.00  0.00    -0.400 OA
HETATM   26  H   UNL     1     -48.103 -56.653  -2.553  1.00  0.00     0.209 HD
ENDBRANCH  24  25
ENDBRANCH  21  24
ENDBRANCH   4  19
TORSDOF 5
ENDMDL
MODEL 9
REMARK VINA RESULT:      -5.2      2.138      2.793
REMARK  5 active torsions:
REMARK  status: ('A' for Active; 'I' for Inactive)
REMARK    1  A    between atoms: C_2  and  C_5 
REMARK    2  A    between atoms: C_9  and  N_10 
REMARK       I    between atoms: N_10  and  C_11 
REMARK       I    between atoms: C_11  and  N_13 
REMARK    3  A    between atoms: N_13  and  C_14 
REMARK    4  A    between atoms: C_16  and  C_17 
REMARK    5  A    between atoms: C_17  and  O_18 
ROOT
HETATM    1  N   UNL     1     -42.776 -48.414  14.119  1.00  0.00    -0.306 N 
HETATM    2  C   UNL     1     -43.413 -49.363  13.356  1.00  0.00     0.321 C 
HETATM    3  O   UNL     1     -43.577 -49.298  12.142  1.00  0.00    -0.247 OA
HETATM    4  N   UNL     1     -43.895 -50.436  14.070  1.00  0.00    -0.335 N 
HETATM    5  H   UNL     1     -42.689 -48.582  15.108  1.00  0.00     0.171 HD
HETATM    6  H   UNL     1     -43.479 -50.675  14.957  1.00  0.00     0.164 HD
ENDROOT
BRANCH   1   7
HETATM    7  C   UNL     1     -42.234 -47.210  13.594  1.00  0.00     0.067 A 
HETATM    8  C   UNL     1     -40.904 -47.021  13.270  1.00  0.00     0.120 A 
HETATM    9  N   UNL     1     -40.393 -45.876  12.767  1.00  0.00    -0.353 N 
HETATM   10  C   UNL     1     -41.246 -44.864  12.543  1.00  0.00     0.088 A 
ATOM     11  HN  UNL     1     -39.397 -45.784  12.566  1.00  0.00     0.166 HD
HETATM   12  N   UNL     1     -42.562 -44.927  12.834  1.00  0.00    -0.353 N 
HETATM   13  C   UNL     1     -43.022 -46.101  13.346  1.00  0.00     0.120 A 
ATOM     14  HN  UNL     1     -43.182 -44.133  12.678  1.00  0.00     0.166 HD
BRANCH  10  15
HETATM   15  C   UNL     1     -40.651 -43.603  11.917  1.00  0.00     0.007 C 
HETATM   16  C   UNL     1     -39.907 -43.976  10.615  1.00  0.00     0.022 C 
HETATM   17  C   UNL     1     -39.652 -42.961  12.894  1.00  0.00     0.022 C 
HETATM   18  C   UNL     1     -41.742 -42.579  11.562  1.00  0.00     0.022 C 
ENDBRANCH  10  15
ENDBRANCH   1   7
BRANCH   4  19
HETATM   19  C   UNL     1     -44.566 -51.466  13.311  1.00  0.00     0.109 C 
HETATM   20  C   UNL     1     -44.168 -52.894  13.713  1.00  0.00     0.040 C 
HETATM   21  C   UNL     1     -45.385 -53.742  13.332  1.00  0.00     0.034 C 
HETATM   22  C   UNL     1     -46.499 -52.747  13.549  1.00  0.00    -0.022 C 
HETATM   23  C   UNL     1     -46.038 -51.487  13.558  1.00  0.00    -0.005 C 
BRANCH  21  24
HETATM   24  C   UNL     1     -45.479 -55.019  14.165  1.00  0.00     0.172 C 
BRANCH  24  25
HETATM   25  O   UNL     1     -46.832 -55.281  14.528  1.00  0.00    -0.400 OA
HETATM   26  H   UNL     1     -47.400 -54.842  13.873  1.00  0.00     0.209 HD
ENDBRANCH  24  25
ENDBRANCH  21  24
ENDBRANCH   4  19
TORSDOF 5
ENDMDL
