MODEL 1
REMARK VINA RESULT:      -7.0      0.000      0.000
REMARK  6 active torsions:
REMARK  status: ('A' for Active; 'I' for Inactive)
REMARK    1  A    between atoms: C_2  and  N_7 
REMARK    2  A    between atoms: N_3  and  C_13 
REMARK    3  A    between atoms: C_13  and  C_14 
REMARK    4  A    between atoms: C_14  and  C_18 
REMARK    5  A    between atoms: C_14  and  O_22 
REMARK    6  A    between atoms: C_17  and  C_24 
ROOT
HETATM    1  C   UNL     1     -43.045 -50.853  13.208  1.00  0.00     0.122 A 
HETATM    2  C   UNL     1     -43.351 -52.218  12.967  1.00  0.00     0.136 A 
HETATM    3  N   UNL     1     -41.941 -48.997  12.861  1.00  0.00    -0.325 N 
HETATM    4  C   UNL     1     -41.944 -50.330  12.550  1.00  0.00     0.140 A 
HETATM    5  N   UNL     1     -43.651 -49.866  13.970  1.00  0.00    -0.346 N 
ATOM      6  HN  UNL     1     -44.468 -49.966  14.573  1.00  0.00     0.167 HD
HETATM    7  C   UNL     1     -42.952 -48.776  13.751  1.00  0.00     0.185 A 
HETATM    8  N   UNL     1     -42.486 -52.901  12.163  1.00  0.00    -0.337 N 
ATOM      9  HN  UNL     1     -42.640 -53.891  11.971  1.00  0.00     0.168 HD
HETATM   10  N   UNL     1     -41.088 -50.971  11.739  1.00  0.00    -0.336 N 
ATOM     11  HN  UNL     1     -40.291 -50.535  11.274  1.00  0.00     0.168 HD
HETATM   12  C   UNL     1     -41.429 -52.267  11.623  1.00  0.00     0.183 A 
ENDROOT
BRANCH   3  13
HETATM   13  C   UNL     1     -41.057 -47.990  12.322  1.00  0.00     0.165 C 
BRANCH  13  14
HETATM   14  C   UNL     1     -41.182 -47.764  10.813  1.00  0.00     0.165 C 
BRANCH  14  15
HETATM   15  C   UNL     1     -42.576 -47.328  10.331  1.00  0.00     0.151 C 
HETATM   16  O   UNL     1     -42.828 -47.958   9.051  1.00  0.00    -0.383 OA
HETATM   17  C   UNL     1     -43.704 -47.108   8.294  1.00  0.00     0.168 C 
HETATM   18  C   UNL     1     -43.926 -45.848   9.106  1.00  0.00     0.029 C 
HETATM   19  C   UNL     1     -42.749 -45.843  10.053  1.00  0.00     0.036 C 
ENDBRANCH  14  15
BRANCH  14  20
HETATM   20  O   UNL     1     -40.226 -46.756  10.439  1.00  0.00    -0.391 OA
HETATM   21  H   UNL     1     -40.690 -45.904  10.567  1.00  0.00     0.210 HD
ENDBRANCH  14  20
ENDBRANCH  13  14
ENDBRANCH   3  13
BRANCH   2  22
HETATM   22  N   UNL     1     -44.456 -52.876  13.471  1.00  0.00    -0.356 N 
HETATM   23  C   UNL     1     -44.474 -54.320  13.726  1.00  0.00     0.082 C 
HETATM   24  C   UNL     1     -45.914 -54.593  14.220  1.00  0.00     0.027 C 
HETATM   25  C   UNL     1     -43.461 -54.769  14.774  1.00  0.00     0.032 C 
HETATM   26  C   UNL     1     -46.559 -53.216  14.373  1.00  0.00     0.027 C 
HETATM   27  C   UNL     1     -45.813 -52.339  13.357  1.00  0.00     0.086 C 
BRANCH  27  28
HETATM   28  C   UNL     1     -46.438 -52.526  11.954  1.00  0.00     0.021 C 
HETATM   29  C   UNL     1     -47.266 -51.368  11.420  1.00  0.00     0.007 C 
ENDBRANCH  27  28
ENDBRANCH   2  22
TORSDOF 6
ENDMDL
MODEL 2
REMARK VINA RESULT:      -6.9      2.582      4.010
REMARK  6 active torsions:
REMARK  status: ('A' for Active; 'I' for Inactive)
REMARK    1  A    between atoms: C_2  and  N_7 
REMARK    2  A    between atoms: N_3  and  C_13 
REMARK    3  A    between atoms: C_13  and  C_14 
REMARK    4  A    between atoms: C_14  and  C_18 
REMARK    5  A    between atoms: C_14  and  O_22 
REMARK    6  A    between atoms: C_17  and  C_24 
ROOT
HETATM    1  C   UNL     1     -42.641 -50.754  12.930  1.00  0.00     0.122 A 
HETATM    2  C   UNL     1     -43.443 -51.920  13.029  1.00  0.00     0.136 A 
HETATM    3  N   UNL     1     -40.976 -49.576  12.137  1.00  0.00    -0.325 N 
HETATM    4  C   UNL     1     -41.493 -50.843  12.159  1.00  0.00     0.140 A 
HETATM    5  N   UNL     1     -42.771 -49.468  13.433  1.00  0.00    -0.346 N 
ATOM      6  HN  UNL     1     -43.506 -49.116  14.047  1.00  0.00     0.167 HD
HETATM    7  C   UNL     1     -41.747 -48.799  12.953  1.00  0.00     0.185 A 
HETATM    8  N   UNL     1     -42.968 -53.039  12.410  1.00  0.00    -0.337 N 
ATOM      9  HN  UNL     1     -43.489 -53.914  12.465  1.00  0.00     0.168 HD
HETATM   10  N   UNL     1     -41.011 -51.922  11.523  1.00  0.00    -0.336 N 
ATOM     11  HN  UNL     1     -40.159 -51.934  10.962  1.00  0.00     0.168 HD
HETATM   12  C   UNL     1     -41.809 -52.986  11.727  1.00  0.00     0.183 A 
ENDROOT
BRANCH   3  13
HETATM   13  C   UNL     1     -39.843 -49.123  11.366  1.00  0.00     0.165 C 
BRANCH  13  14
HETATM   14  C   UNL     1     -38.477 -49.529  11.926  1.00  0.00     0.165 C 
BRANCH  14  15
HETATM   15  C   UNL     1     -38.348 -49.447  13.457  1.00  0.00     0.151 C 
HETATM   16  O   UNL     1     -37.807 -48.147  13.795  1.00  0.00    -0.383 OA
HETATM   17  C   UNL     1     -37.064 -48.271  15.018  1.00  0.00     0.168 C 
HETATM   18  C   UNL     1     -37.065 -49.737  15.402  1.00  0.00     0.029 C 
HETATM   19  C   UNL     1     -37.380 -50.430  14.097  1.00  0.00     0.036 C 
ENDBRANCH  14  15
BRANCH  14  20
HETATM   20  O   UNL     1     -38.217 -50.883  11.512  1.00  0.00    -0.391 OA
HETATM   21  H   UNL     1     -39.099 -51.303  11.445  1.00  0.00     0.210 HD
ENDBRANCH  14  20
ENDBRANCH  13  14
ENDBRANCH   3  13
BRANCH   2  22
HETATM   22  N   UNL     1     -44.658 -51.984  13.684  1.00  0.00    -0.356 N 
HETATM   23  C   UNL     1     -44.970 -53.011  14.683  1.00  0.00     0.082 C 
HETATM   24  C   UNL     1     -46.434 -52.711  15.082  1.00  0.00     0.027 C 
HETATM   25  C   UNL     1     -44.067 -52.962  15.912  1.00  0.00     0.032 C 
HETATM   26  C   UNL     1     -46.784 -51.398  14.382  1.00  0.00     0.027 C 
HETATM   27  C   UNL     1     -45.877 -51.381  13.142  1.00  0.00     0.086 C 
BRANCH  27  28
HETATM   28  C   UNL     1     -46.531 -52.210  12.013  1.00  0.00     0.021 C 
HETATM   29  C   UNL     1     -47.459 -51.459  11.070  1.00  0.00     0.007 C 
ENDBRANCH  27  28
ENDBRANCH   2  22
TORSDOF 6
ENDMDL
MODEL 3
REMARK VINA RESULT:      -6.7      3.489      7.129
REMARK  6 active torsions:
REMARK  status: ('A' for Active; 'I' for Inactive)
REMARK    1  A    between atoms: C_2  and  N_7 
REMARK    2  A    between atoms: N_3  and  C_13 
REMARK    3  A    between atoms: C_13  and  C_14 
REMARK    4  A    between atoms: C_14  and  C_18 
REMARK    5  A    between atoms: C_14  and  O_22 
REMARK    6  A    between atoms: C_17  and  C_24 
ROOT
HETATM    1  C   UNL     1     -41.605 -52.032  13.709  1.00  0.00     0.122 A 
HETATM    2  C   UNL     1     -41.020 -50.743  13.610  1.00  0.00     0.136 A 
HETATM    3  N   UNL     1     -43.203 -53.494  13.397  1.00  0.00    -0.325 N 
HETATM    4  C   UNL     1     -42.926 -52.156  13.309  1.00  0.00     0.140 A 
HETATM    5  N   UNL     1     -41.117 -53.267  14.109  1.00  0.00    -0.346 N 
ATOM      6  HN  UNL     1     -40.186 -53.475  14.470  1.00  0.00     0.167 HD
HETATM    7  C   UNL     1     -42.106 -54.111  13.926  1.00  0.00     0.185 A 
HETATM    8  N   UNL     1     -41.839 -49.735  13.193  1.00  0.00    -0.337 N 
ATOM      9  HN  UNL     1     -41.482 -48.782  13.123  1.00  0.00     0.168 HD
HETATM   10  N   UNL     1     -43.749 -51.189  12.877  1.00  0.00    -0.336 N 
ATOM     11  HN  UNL     1     -44.717 -51.335  12.590  1.00  0.00     0.168 HD
HETATM   12  C   UNL     1     -43.120 -50.000  12.876  1.00  0.00     0.183 A 
ENDROOT
BRANCH   3  13
HETATM   13  C   UNL     1     -44.417 -54.150  12.974  1.00  0.00     0.165 C 
BRANCH  13  14
HETATM   14  C   UNL     1     -45.318 -54.635  14.113  1.00  0.00     0.165 C 
BRANCH  14  15
HETATM   15  C   UNL     1     -46.351 -53.610  14.611  1.00  0.00     0.151 C 
HETATM   16  O   UNL     1     -46.494 -52.584  13.598  1.00  0.00    -0.383 OA
HETATM   17  C   UNL     1     -46.856 -51.356  14.248  1.00  0.00     0.168 C 
HETATM   18  C   UNL     1     -46.841 -51.610  15.741  1.00  0.00     0.029 C 
HETATM   19  C   UNL     1     -45.972 -52.840  15.867  1.00  0.00     0.036 C 
ENDBRANCH  14  15
BRANCH  14  20
HETATM   20  O   UNL     1     -46.014 -55.808  13.654  1.00  0.00    -0.391 OA
HETATM   21  H   UNL     1     -45.339 -56.517  13.642  1.00  0.00     0.210 HD
ENDBRANCH  14  20
ENDBRANCH  13  14
ENDBRANCH   3  13
BRANCH   2  22
HETATM   22  N   UNL     1     -39.696 -50.458  13.884  1.00  0.00    -0.356 N 
HETATM   23  C   UNL     1     -39.287 -49.431  14.848  1.00  0.00     0.082 C 
HETATM   24  C   UNL     1     -37.742 -49.441  14.769  1.00  0.00     0.027 C 
HETATM   25  C   UNL     1     -39.746 -49.715  16.275  1.00  0.00     0.032 C 
HETATM   26  C   UNL     1     -37.389 -50.625  13.869  1.00  0.00     0.027 C 
HETATM   27  C   UNL     1     -38.613 -50.776  12.953  1.00  0.00     0.086 C 
BRANCH  27  28
HETATM   28  C   UNL     1     -38.499 -49.785  11.771  1.00  0.00     0.021 C 
HETATM   29  C   UNL     1     -37.263 -49.912  10.895  1.00  0.00     0.007 C 
ENDBRANCH  27  28
ENDBRANCH   2  22
TORSDOF 6
ENDMDL
MODEL 4
REMARK VINA RESULT:      -6.7      2.826      7.023
REMARK  6 active torsions:
REMARK  status: ('A' for Active; 'I' for Inactive)
REMARK    1  A    between atoms: C_2  and  N_7 
REMARK    2  A    between atoms: N_3  and  C_13 
REMARK    3  A    between atoms: C_13  and  C_14 
REMARK    4  A    between atoms: C_14  and  C_18 
REMARK    5  A    between atoms: C_14  and  O_22 
REMARK    6  A    between atoms: C_17  and  C_24 
ROOT
HETATM    1  C   UNL     1     -40.163 -49.354  12.656  1.00  0.00     0.122 A 
HETATM    2  C   UNL     1     -39.448 -48.331  11.982  1.00  0.00     0.136 A 
HETATM    3  N   UNL     1     -40.415 -51.375  13.456  1.00  0.00    -0.325 N 
HETATM    4  C   UNL     1     -39.600 -50.620  12.657  1.00  0.00     0.140 A 
HETATM    5  N   UNL     1     -41.346 -49.365  13.380  1.00  0.00    -0.346 N 
ATOM      6  HN  UNL     1     -41.984 -48.584  13.533  1.00  0.00     0.167 HD
HETATM    7  C   UNL     1     -41.472 -50.595  13.826  1.00  0.00     0.185 A 
HETATM    8  N   UNL     1     -38.307 -48.711  11.338  1.00  0.00    -0.337 N 
ATOM      9  HN  UNL     1     -37.762 -48.025  10.817  1.00  0.00     0.168 HD
HETATM   10  N   UNL     1     -38.471 -51.019  12.051  1.00  0.00    -0.336 N 
ATOM     11  HN  UNL     1     -38.096 -51.967  12.086  1.00  0.00     0.168 HD
HETATM   12  C   UNL     1     -37.902 -49.993  11.392  1.00  0.00     0.183 A 
ENDROOT
BRANCH   3  13
HETATM   13  C   UNL     1     -40.190 -52.740  13.870  1.00  0.00     0.165 C 
BRANCH  13  14
HETATM   14  C   UNL     1     -40.731 -53.803  12.911  1.00  0.00     0.165 C 
BRANCH  14  15
HETATM   15  C   UNL     1     -42.187 -54.229  13.161  1.00  0.00     0.151 C 
HETATM   16  O   UNL     1     -43.054 -53.317  12.443  1.00  0.00    -0.383 OA
HETATM   17  C   UNL     1     -44.302 -53.230  13.149  1.00  0.00     0.168 C 
HETATM   18  C   UNL     1     -44.165 -54.052  14.415  1.00  0.00     0.029 C 
HETATM   19  C   UNL     1     -42.668 -54.141  14.601  1.00  0.00     0.036 C 
ENDBRANCH  14  15
BRANCH  14  20
HETATM   20  O   UNL     1     -40.624 -53.282  11.573  1.00  0.00    -0.391 OA
HETATM   21  H   UNL     1     -41.388 -53.659  11.091  1.00  0.00     0.210 HD
ENDBRANCH  14  20
ENDBRANCH  13  14
ENDBRANCH   3  13
BRANCH   2  22
HETATM   22  N   UNL     1     -39.819 -47.000  11.954  1.00  0.00    -0.356 N 
HETATM   23  C   UNL     1     -39.966 -46.191  13.168  1.00  0.00     0.082 C 
HETATM   24  C   UNL     1     -40.441 -44.816  12.643  1.00  0.00     0.027 C 
HETATM   25  C   UNL     1     -38.672 -46.037  13.960  1.00  0.00     0.032 C 
HETATM   26  C   UNL     1     -40.356 -44.911  11.120  1.00  0.00     0.027 C 
HETATM   27  C   UNL     1     -40.542 -46.407  10.828  1.00  0.00     0.086 C 
BRANCH  27  28
HETATM   28  C   UNL     1     -42.051 -46.747  10.811  1.00  0.00     0.021 C 
HETATM   29  C   UNL     1     -42.484 -47.865   9.875  1.00  0.00     0.007 C 
ENDBRANCH  27  28
ENDBRANCH   2  22
TORSDOF 6
ENDMDL
MODEL 5
REMARK VINA RESULT:      -6.6      0.728      2.275
REMARK  6 active torsions:
REMARK  status: ('A' for Active; 'I' for Inactive)
REMARK    1  A    between atoms: C_2  and  N_7 
REMARK    2  A    between atoms: N_3  and  C_13 
REMARK    3  A    between atoms: C_13  and  C_14 
REMARK    4  A    between atoms: C_14  and  C_18 
REMARK    5  A    between atoms: C_14  and  O_22 
REMARK    6  A    between atoms: C_17  and  C_24 
ROOT
HETATM    1  C   UNL     1     -43.032 -51.056  13.104  1.00  0.00     0.122 A 
HETATM    2  C   UNL     1     -43.223 -52.438  12.843  1.00  0.00     0.136 A 
HETATM    3  N   UNL     1     -42.092 -49.108  12.781  1.00  0.00    -0.325 N 
HETATM    4  C   UNL     1     -41.984 -50.431  12.448  1.00  0.00     0.140 A 
HETATM    5  N   UNL     1     -43.714 -50.137  13.886  1.00  0.00    -0.346 N 
ATOM      6  HN  UNL     1     -44.515 -50.314  14.493  1.00  0.00     0.167 HD
HETATM    7  C   UNL     1     -43.111 -48.987  13.681  1.00  0.00     0.185 A 
HETATM    8  N   UNL     1     -42.310 -53.032  12.022  1.00  0.00    -0.337 N 
ATOM      9  HN  UNL     1     -42.382 -54.028  11.815  1.00  0.00     0.168 HD
HETATM   10  N   UNL     1     -41.084 -50.984  11.621  1.00  0.00    -0.336 N 
ATOM     11  HN  UNL     1     -40.331 -50.475  11.158  1.00  0.00     0.168 HD
HETATM   12  C   UNL     1     -41.315 -52.302  11.486  1.00  0.00     0.183 A 
ENDROOT
BRANCH   3  13
HETATM   13  C   UNL     1     -41.301 -48.021  12.253  1.00  0.00     0.165 C 
BRANCH  13  14
HETATM   14  C   UNL     1     -41.580 -47.673  10.789  1.00  0.00     0.165 C 
BRANCH  14  15
HETATM   15  C   UNL     1     -42.904 -46.934  10.533  1.00  0.00     0.151 C 
HETATM   16  O   UNL     1     -43.941 -47.924  10.327  1.00  0.00    -0.383 OA
HETATM   17  C   UNL     1     -44.937 -47.361   9.459  1.00  0.00     0.168 C 
HETATM   18  C   UNL     1     -44.444 -45.994   9.030  1.00  0.00     0.029 C 
HETATM   19  C   UNL     1     -42.956 -46.076   9.278  1.00  0.00     0.036 C 
ENDBRANCH  14  15
BRANCH  14  20
HETATM   20  O   UNL     1     -40.494 -46.855  10.317  1.00  0.00    -0.391 OA
HETATM   21  H   UNL     1     -39.793 -46.947  10.994  1.00  0.00     0.210 HD
ENDBRANCH  14  20
ENDBRANCH  13  14
ENDBRANCH   3  13
BRANCH   2  22
HETATM   22  N   UNL     1     -44.265 -53.195  13.343  1.00  0.00    -0.356 N 
HETATM   23  C   UNL     1     -45.561 -52.618  13.714  1.00  0.00     0.082 C 
HETATM   24  C   UNL     1     -46.362 -53.822  14.262  1.00  0.00     0.027 C 
HETATM   25  C   UNL     1     -46.303 -51.979  12.543  1.00  0.00     0.032 C 
HETATM   26  C   UNL     1     -45.490 -55.047  13.990  1.00  0.00     0.027 C 
HETATM   27  C   UNL     1     -44.057 -54.493  13.986  1.00  0.00     0.086 C 
BRANCH  27  28
HETATM   28  C   UNL     1     -43.539 -54.390  15.440  1.00  0.00     0.021 C 
HETATM   29  C   UNL     1     -42.543 -55.451  15.882  1.00  0.00     0.007 C 
ENDBRANCH  27  28
ENDBRANCH   2  22
TORSDOF 6
ENDMDL
MODEL 6
REMARK VINA RESULT:      -6.6      1.252      1.954
REMARK  6 active torsions:
REMARK  status: ('A' for Active; 'I' for Inactive)
REMARK    1  A    between atoms: C_2  and  N_7 
REMARK    2  A    between atoms: N_3  and  C_13 
REMARK    3  A    between atoms: C_13  and  C_14 
REMARK    4  A    between atoms: C_14  and  C_18 
REMARK    5  A    between atoms: C_14  and  O_22 
REMARK    6  A    between atoms: C_17  and  C_24 
ROOT
HETATM    1  C   UNL     1     -42.915 -51.106  13.256  1.00  0.00     0.122 A 
HETATM    2  C   UNL     1     -43.341 -52.432  12.985  1.00  0.00     0.136 A 
HETATM    3  N   UNL     1     -41.679 -49.333  12.921  1.00  0.00    -0.325 N 
HETATM    4  C   UNL     1     -41.803 -50.649  12.568  1.00  0.00     0.140 A 
HETATM    5  N   UNL     1     -43.407 -50.101  14.076  1.00  0.00    -0.346 N 
ATOM      6  HN  UNL     1     -44.204 -50.157  14.710  1.00  0.00     0.167 HD
HETATM    7  C   UNL     1     -42.631 -49.063  13.862  1.00  0.00     0.185 A 
HETATM    8  N   UNL     1     -42.569 -53.153  12.122  1.00  0.00    -0.337 N 
ATOM      9  HN  UNL     1     -42.811 -54.120  11.905  1.00  0.00     0.168 HD
HETATM   10  N   UNL     1     -41.037 -51.327  11.699  1.00  0.00    -0.336 N 
ATOM     11  HN  UNL     1     -40.227 -50.940  11.215  1.00  0.00     0.168 HD
HETATM   12  C   UNL     1     -41.487 -52.586  11.557  1.00  0.00     0.183 A 
ENDROOT
BRANCH   3  13
HETATM   13  C   UNL     1     -40.739 -48.381  12.377  1.00  0.00     0.165 C 
BRANCH  13  14
HETATM   14  C   UNL     1     -41.248 -47.593  11.167  1.00  0.00     0.165 C 
BRANCH  14  15
HETATM   15  C   UNL     1     -40.457 -46.314  10.840  1.00  0.00     0.151 C 
HETATM   16  O   UNL     1     -39.649 -45.976  11.994  1.00  0.00    -0.383 OA
HETATM   17  C   UNL     1     -39.467 -44.552  12.017  1.00  0.00     0.168 C 
HETATM   18  C   UNL     1     -40.283 -43.973  10.879  1.00  0.00     0.029 C 
HETATM   19  C   UNL     1     -41.287 -45.064  10.591  1.00  0.00     0.036 C 
ENDBRANCH  14  15
BRANCH  14  20
HETATM   20  O   UNL     1     -41.208 -48.467  10.025  1.00  0.00    -0.391 OA
HETATM   21  H   UNL     1     -41.584 -47.942   9.289  1.00  0.00     0.210 HD
ENDBRANCH  14  20
ENDBRANCH  13  14
ENDBRANCH   3  13
BRANCH   2  22
HETATM   22  N   UNL     1     -44.475 -53.017  13.516  1.00  0.00    -0.356 N 
HETATM   23  C   UNL     1     -44.571 -54.454  13.797  1.00  0.00     0.082 C 
HETATM   24  C   UNL     1     -46.016 -54.635  14.316  1.00  0.00     0.027 C 
HETATM   25  C   UNL     1     -43.569 -54.941  14.840  1.00  0.00     0.032 C 
HETATM   26  C   UNL     1     -46.580 -53.221  14.452  1.00  0.00     0.027 C 
HETATM   27  C   UNL     1     -45.800 -52.406  13.410  1.00  0.00     0.086 C 
BRANCH  27  28
HETATM   28  C   UNL     1     -46.455 -52.582  12.020  1.00  0.00     0.021 C 
HETATM   29  C   UNL     1     -47.218 -51.386  11.472  1.00  0.00     0.007 C 
ENDBRANCH  27  28
ENDBRANCH   2  22
TORSDOF 6
ENDMDL
MODEL 7
REMARK VINA RESULT:      -6.5      3.443      7.267
REMARK  6 active torsions:
REMARK  status: ('A' for Active; 'I' for Inactive)
REMARK    1  A    between atoms: C_2  and  N_7 
REMARK    2  A    between atoms: N_3  and  C_13 
REMARK    3  A    between atoms: C_13  and  C_14 
REMARK    4  A    between atoms: C_14  and  C_18 
REMARK    5  A    between atoms: C_14  and  O_22 
REMARK    6  A    between atoms: C_17  and  C_24 
ROOT
HETATM    1  C   UNL     1     -41.228 -49.877  11.972  1.00  0.00     0.122 A 
HETATM    2  C   UNL     1     -40.634 -48.611  11.730  1.00  0.00     0.136 A 
HETATM    3  N   UNL     1     -41.176 -52.033  12.341  1.00  0.00    -0.325 N 
HETATM    4  C   UNL     1     -40.385 -50.976  11.979  1.00  0.00     0.140 A 
HETATM    5  N   UNL     1     -42.526 -50.278  12.247  1.00  0.00    -0.346 N 
ATOM      6  HN  UNL     1     -43.359 -49.690  12.288  1.00  0.00     0.167 HD
HETATM    7  C   UNL     1     -42.458 -51.575  12.443  1.00  0.00     0.185 A 
HETATM    8  N   UNL     1     -39.297 -48.609  11.460  1.00  0.00    -0.337 N 
ATOM      9  HN  UNL     1     -38.818 -47.732  11.256  1.00  0.00     0.168 HD
HETATM   10  N   UNL     1     -39.065 -51.003  11.737  1.00  0.00    -0.336 N 
ATOM     11  HN  UNL     1     -38.487 -51.843  11.759  1.00  0.00     0.168 HD
HETATM   12  C   UNL     1     -38.611 -49.767  11.462  1.00  0.00     0.183 A 
ENDROOT
BRANCH   3  13
HETATM   13  C   UNL     1     -40.739 -53.383  12.607  1.00  0.00     0.165 C 
BRANCH  13  14
HETATM   14  C   UNL     1     -39.849 -53.540  13.843  1.00  0.00     0.165 C 
BRANCH  14  15
HETATM   15  C   UNL     1     -40.577 -53.993  15.120  1.00  0.00     0.151 C 
HETATM   16  O   UNL     1     -39.785 -55.031  15.748  1.00  0.00    -0.383 OA
HETATM   17  C   UNL     1     -40.671 -55.903  16.466  1.00  0.00     0.168 C 
HETATM   18  C   UNL     1     -42.086 -55.439  16.189  1.00  0.00     0.029 C 
HETATM   19  C   UNL     1     -41.938 -54.638  14.917  1.00  0.00     0.036 C 
ENDBRANCH  14  15
BRANCH  14  20
HETATM   20  O   UNL     1     -38.826 -54.502  13.527  1.00  0.00    -0.391 OA
HETATM   21  H   UNL     1     -39.093 -54.886  12.667  1.00  0.00     0.210 HD
ENDBRANCH  14  20
ENDBRANCH  13  14
ENDBRANCH   3  13
BRANCH   2  22
HETATM   22  N   UNL     1     -41.309 -47.406  11.771  1.00  0.00    -0.356 N 
HETATM   23  C   UNL     1     -41.914 -46.875  12.997  1.00  0.00     0.082 C 
HETATM   24  C   UNL     1     -42.590 -45.561  12.540  1.00  0.00     0.027 C 
HETATM   25  C   UNL     1     -40.904 -46.593  14.105  1.00  0.00     0.032 C 
HETATM   26  C   UNL     1     -42.153 -45.364  11.088  1.00  0.00     0.027 C 
HETATM   27  C   UNL     1     -41.893 -46.789  10.579  1.00  0.00     0.086 C 
BRANCH  27  28
HETATM   28  C   UNL     1     -43.229 -47.433  10.138  1.00  0.00     0.021 C 
HETATM   29  C   UNL     1     -43.472 -47.532   8.640  1.00  0.00     0.007 C 
ENDBRANCH  27  28
ENDBRANCH   2  22
TORSDOF 6
ENDMDL
MODEL 8
REMARK VINA RESULT:      -6.5      2.059      3.056
REMARK  6 active torsions:
REMARK  status: ('A' for Active; 'I' for Inactive)
REMARK    1  A    between atoms: C_2  and  N_7 
REMARK    2  A    between atoms: N_3  and  C_13 
REMARK    3  A    between atoms: C_13  and  C_14 
REMARK    4  A    between atoms: C_14  and  C_18 
REMARK    5  A    between atoms: C_14  and  O_22 
REMARK    6  A    between atoms: C_17  and  C_24 
ROOT
HETATM    1  C   UNL     1     -42.446 -48.611  12.420  1.00  0.00     0.122 A 
HETATM    2  C   UNL     1     -42.171 -49.953  12.788  1.00  0.00     0.136 A 
HETATM    3  N   UNL     1     -42.425 -46.906  11.049  1.00  0.00    -0.325 N 
HETATM    4  C   UNL     1     -41.925 -48.169  11.214  1.00  0.00     0.140 A 
HETATM    5  N   UNL     1     -43.185 -47.598  13.013  1.00  0.00    -0.346 N 
ATOM      6  HN  UNL     1     -43.666 -47.629  13.911  1.00  0.00     0.167 HD
HETATM    7  C   UNL     1     -43.133 -46.589  12.172  1.00  0.00     0.185 A 
HETATM    8  N   UNL     1     -41.359 -50.658  11.949  1.00  0.00    -0.337 N 
ATOM      9  HN  UNL     1     -41.107 -51.621  12.172  1.00  0.00     0.168 HD
HETATM   10  N   UNL     1     -41.142 -48.845  10.360  1.00  0.00    -0.336 N 
ATOM     11  HN  UNL     1     -40.787 -48.473   9.479  1.00  0.00     0.168 HD
HETATM   12  C   UNL     1     -40.892 -50.082  10.826  1.00  0.00     0.183 A 
ENDROOT
BRANCH   3  13
HETATM   13  C   UNL     1     -42.270 -46.065   9.885  1.00  0.00     0.165 C 
BRANCH  13  14
HETATM   14  C   UNL     1     -43.481 -46.029   8.950  1.00  0.00     0.165 C 
BRANCH  14  15
HETATM   15  C   UNL     1     -44.501 -47.162   9.157  1.00  0.00     0.151 C 
HETATM   16  O   UNL     1     -44.505 -47.989   7.968  1.00  0.00    -0.383 OA
HETATM   17  C   UNL     1     -45.812 -48.566   7.824  1.00  0.00     0.168 C 
HETATM   18  C   UNL     1     -46.685 -47.992   8.922  1.00  0.00     0.029 C 
HETATM   19  C   UNL     1     -45.951 -46.731   9.314  1.00  0.00     0.036 C 
ENDBRANCH  14  15
BRANCH  14  20
HETATM   20  O   UNL     1     -44.146 -44.767   9.140  1.00  0.00    -0.391 OA
HETATM   21  H   UNL     1     -44.425 -44.488   8.244  1.00  0.00     0.210 HD
ENDBRANCH  14  20
ENDBRANCH  13  14
ENDBRANCH   3  13
BRANCH   2  22
HETATM   22  N   UNL     1     -42.679 -50.580  13.910  1.00  0.00    -0.356 N 
HETATM   23  C   UNL     1     -41.994 -51.690  14.580  1.00  0.00     0.082 C 
HETATM   24  C   UNL     1     -42.956 -52.086  15.723  1.00  0.00     0.027 C 
HETATM   25  C   UNL     1     -40.628 -51.313  15.144  1.00  0.00     0.032 C 
HETATM   26  C   UNL     1     -44.058 -51.027  15.713  1.00  0.00     0.027 C 
HETATM   27  C   UNL     1     -44.101 -50.547  14.254  1.00  0.00     0.086 C 
BRANCH  27  28
HETATM   28  C   UNL     1     -44.965 -51.519  13.416  1.00  0.00     0.021 C 
HETATM   29  C   UNL     1     -46.457 -51.524  13.708  1.00  0.00     0.007 C 
ENDBRANCH  27  28
ENDBRANCH   2  22
TORSDOF 6
ENDMDL
MODEL 9
REMARK VINA RESULT:      -6.4      2.099      2.951
REMARK  6 active torsions:
REMARK  status: ('A' for Active; 'I' for Inactive)
REMARK    1  A    between atoms: C_2  and  N_7 
REMARK    2  A    between atoms: N_3  and  C_13 
REMARK    3  A    between atoms: C_13  and  C_14 
REMARK    4  A    between atoms: C_14  and  C_18 
REMARK    5  A    between atoms: C_14  and  O_22 
REMARK    6  A    between atoms: C_17  and  C_24 
ROOT
HETATM    1  C   UNL     1     -41.737 -49.889  12.858  1.00  0.00     0.122 A 
HETATM    2  C   UNL     1     -41.855 -50.888  13.859  1.00  0.00     0.136 A 
HETATM    3  N   UNL     1     -40.793 -48.157  11.913  1.00  0.00    -0.325 N 
HETATM    4  C   UNL     1     -40.775 -48.912  13.055  1.00  0.00     0.140 A 
HETATM    5  N   UNL     1     -42.383 -49.678  11.649  1.00  0.00    -0.346 N 
ATOM      6  HN  UNL     1     -43.146 -50.226  11.252  1.00  0.00     0.167 HD
HETATM    7  C   UNL     1     -41.803 -48.623  11.123  1.00  0.00     0.185 A 
HETATM    8  N   UNL     1     -41.053 -50.749  14.954  1.00  0.00    -0.337 N 
ATOM      9  HN  UNL     1     -41.108 -51.423  15.717  1.00  0.00     0.168 HD
HETATM   10  N   UNL     1     -39.959 -48.760  14.109  1.00  0.00    -0.336 N 
ATOM     11  HN  UNL     1     -39.262 -48.022  14.203  1.00  0.00     0.168 HD
HETATM   12  C   UNL     1     -40.189 -49.719  15.025  1.00  0.00     0.183 A 
ENDROOT
BRANCH   3  13
HETATM   13  C   UNL     1     -39.887 -47.083  11.578  1.00  0.00     0.165 C 
BRANCH  13  14
HETATM   14  C   UNL     1     -40.483 -45.994  10.682  1.00  0.00     0.165 C 
BRANCH  14  15
HETATM   15  C   UNL     1     -41.031 -44.763  11.424  1.00  0.00     0.151 C 
HETATM   16  O   UNL     1     -42.421 -44.594  11.052  1.00  0.00    -0.383 OA
HETATM   17  C   UNL     1     -42.744 -43.198  11.134  1.00  0.00     0.168 C 
HETATM   18  C   UNL     1     -41.468 -42.457  11.479  1.00  0.00     0.029 C 
HETATM   19  C   UNL     1     -40.388 -43.432  11.069  1.00  0.00     0.036 C 
ENDBRANCH  14  15
BRANCH  14  20
HETATM   20  O   UNL     1     -39.455 -45.566   9.770  1.00  0.00    -0.391 OA
HETATM   21  H   UNL     1     -38.835 -46.320   9.712  1.00  0.00     0.210 HD
ENDBRANCH  14  20
ENDBRANCH  13  14
ENDBRANCH   3  13
BRANCH   2  22
HETATM   22  N   UNL     1     -42.699 -51.980  13.784  1.00  0.00    -0.356 N 
HETATM   23  C   UNL     1     -42.567 -53.018  12.756  1.00  0.00     0.082 C 
HETATM   24  C   UNL     1     -43.746 -53.977  13.042  1.00  0.00     0.027 C 
HETATM   25  C   UNL     1     -41.243 -53.774  12.817  1.00  0.00     0.032 C 
HETATM   26  C   UNL     1     -44.363 -53.483  14.350  1.00  0.00     0.027 C 
HETATM   27  C   UNL     1     -44.038 -51.981  14.373  1.00  0.00     0.086 C 
BRANCH  27  28
HETATM   28  C   UNL     1     -45.086 -51.213  13.535  1.00  0.00     0.021 C 
HETATM   29  C   UNL     1     -46.547 -51.524  13.823  1.00  0.00     0.007 C 
ENDBRANCH  27  28
ENDBRANCH   2  22
TORSDOF 6
ENDMDL
