MODEL 1
REMARK VINA RESULT:      -6.4      0.000      0.000
REMARK  3 active torsions:
REMARK  status: ('A' for Active; 'I' for Inactive)
REMARK       I    between atoms: C_2  and  N_3 
REMARK       I    between atoms: C_2  and  N_13 
REMARK    1  A    between atoms: N_3  and  C_4 
REMARK    2  A    between atoms: C_8  and  C_10 
REMARK    3  A    between atoms: N_13  and  C_14 
ROOT
HETATM    1  O   UNL     1     -42.584 -44.448  10.289  1.00  0.00    -0.247 OA
HETATM    2  C   UNL     1     -43.264 -45.466  10.159  1.00  0.00     0.322 C 
HETATM    3  N   UNL     1     -43.115 -46.586  10.916  1.00  0.00    -0.338 N 
HETATM    4  N   UNL     1     -44.148 -45.582   9.115  1.00  0.00    -0.294 N 
HETATM    5  H   UNL     1     -43.849 -47.278  10.821  1.00  0.00     0.164 HD
HETATM    6  H   UNL     1     -43.976 -44.915   8.376  1.00  0.00     0.172 HD
ENDROOT
BRANCH   3   7
HETATM    7  C   UNL     1     -42.162 -46.780  11.996  1.00  0.00     0.090 C 
HETATM    8  C   UNL     1     -40.883 -47.416  11.430  1.00  0.00     0.051 C 
HETATM    9  C   UNL     1     -41.095 -48.894  11.101  1.00  0.00     0.170 C 
HETATM   10  O   UNL     1     -41.610 -49.594  12.232  1.00  0.00    -0.385 OA
HETATM   11  C   UNL     1     -42.893 -49.086  12.619  1.00  0.00     0.127 C 
HETATM   12  C   UNL     1     -42.730 -47.650  13.114  1.00  0.00     0.057 C 
BRANCH  11  13
HETATM   13  C   UNL     1     -43.458 -49.974  13.689  1.00  0.00     0.015 A 
HETATM   14  C   UNL     1     -43.254 -51.467  13.619  1.00  0.00     0.007 A 
HETATM   15  C   UNL     1     -44.617 -50.886  13.363  1.00  0.00     0.007 A 
ENDBRANCH  11  13
ENDBRANCH   3   7
BRANCH   4  16
HETATM   16  C   UNL     1     -44.879 -46.746   8.845  1.00  0.00     0.123 A 
HETATM   17  C   UNL     1     -46.133 -46.884   9.401  1.00  0.00     0.051 A 
HETATM   18  C   UNL     1     -46.950 -47.900   8.917  1.00  0.00     0.022 A 
HETATM   19  C   UNL     1     -46.443 -48.761   7.962  1.00  0.00     0.107 A 
HETATM   20  N   UNL     1     -45.194 -48.641   7.474  1.00  0.00    -0.310 N 
HETATM   21  N   UNL     1     -44.416 -47.611   7.910  1.00  0.00    -0.286 N 
ATOM     22  HN  UNL     1     -44.837 -49.309   6.791  1.00  0.00     0.186 HD
ATOM     23  HN  UNL     1     -43.478 -47.490   7.528  1.00  0.00     0.188 HD
ENDBRANCH   4  16
TORSDOF 3
ENDMDL
MODEL 2
REMARK VINA RESULT:      -6.0      3.135      5.746
REMARK  3 active torsions:
REMARK  status: ('A' for Active; 'I' for Inactive)
REMARK       I    between atoms: C_2  and  N_3 
REMARK       I    between atoms: C_2  and  N_13 
REMARK    1  A    between atoms: N_3  and  C_4 
REMARK    2  A    between atoms: C_8  and  C_10 
REMARK    3  A    between atoms: N_13  and  C_14 
ROOT
HETATM    1  O   UNL     1     -38.165 -49.202  11.515  1.00  0.00    -0.247 OA
HETATM    2  C   UNL     1     -39.257 -49.720  11.748  1.00  0.00     0.322 C 
HETATM    3  N   UNL     1     -40.389 -49.022  12.036  1.00  0.00    -0.338 N 
HETATM    4  N   UNL     1     -39.366 -51.084  11.871  1.00  0.00    -0.294 N 
HETATM    5  H   UNL     1     -41.247 -49.562  12.034  1.00  0.00     0.164 HD
HETATM    6  H   UNL     1     -38.477 -51.538  12.021  1.00  0.00     0.172 HD
ENDROOT
BRANCH   3   7
HETATM    7  C   UNL     1     -40.519 -47.577  12.108  1.00  0.00     0.090 C 
HETATM    8  C   UNL     1     -41.492 -47.215  13.241  1.00  0.00     0.051 C 
HETATM    9  C   UNL     1     -42.939 -47.514  12.848  1.00  0.00     0.170 C 
HETATM   10  O   UNL     1     -43.267 -46.883  11.612  1.00  0.00    -0.385 OA
HETATM   11  C   UNL     1     -42.455 -47.381  10.542  1.00  0.00     0.127 C 
HETATM   12  C   UNL     1     -41.003 -46.978  10.790  1.00  0.00     0.057 C 
BRANCH  11  13
HETATM   13  C   UNL     1     -42.967 -46.817   9.248  1.00  0.00     0.015 A 
HETATM   14  C   UNL     1     -44.450 -46.647   9.031  1.00  0.00     0.007 A 
HETATM   15  C   UNL     1     -43.703 -47.716   8.284  1.00  0.00     0.007 A 
ENDBRANCH  11  13
ENDBRANCH   3   7
BRANCH   4  16
HETATM   16  C   UNL     1     -40.552 -51.735  12.235  1.00  0.00     0.123 A 
HETATM   17  C   UNL     1     -40.983 -51.646  13.541  1.00  0.00     0.051 A 
HETATM   18  C   UNL     1     -42.279 -52.058  13.827  1.00  0.00     0.022 A 
HETATM   19  C   UNL     1     -43.042 -52.602  12.811  1.00  0.00     0.107 A 
HETATM   20  N   UNL     1     -42.580 -52.731  11.553  1.00  0.00    -0.310 N 
HETATM   21  N   UNL     1     -41.330 -52.275  11.264  1.00  0.00    -0.286 N 
ATOM     22  HN  UNL     1     -43.155 -53.163  10.830  1.00  0.00     0.186 HD
ATOM     23  HN  UNL     1     -40.976 -52.340  10.310  1.00  0.00     0.188 HD
ENDBRANCH   4  16
TORSDOF 3
ENDMDL
MODEL 3
REMARK VINA RESULT:      -5.9      3.994      5.894
REMARK  3 active torsions:
REMARK  status: ('A' for Active; 'I' for Inactive)
REMARK       I    between atoms: C_2  and  N_3 
REMARK       I    between atoms: C_2  and  N_13 
REMARK    1  A    between atoms: N_3  and  C_4 
REMARK    2  A    between atoms: C_8  and  C_10 
REMARK    3  A    between atoms: N_13  and  C_14 
ROOT
HETATM    1  O   UNL     1     -39.062 -52.816  13.405  1.00  0.00    -0.247 OA
HETATM    2  C   UNL     1     -39.826 -51.905  13.089  1.00  0.00     0.322 C 
HETATM    3  N   UNL     1     -41.140 -51.854  13.439  1.00  0.00    -0.338 N 
HETATM    4  N   UNL     1     -39.416 -50.926  12.218  1.00  0.00    -0.294 N 
HETATM    5  H   UNL     1     -41.604 -50.970  13.262  1.00  0.00     0.164 HD
HETATM    6  H   UNL     1     -38.591 -51.182  11.696  1.00  0.00     0.172 HD
ENDROOT
BRANCH   3   7
HETATM    7  C   UNL     1     -41.861 -52.829  14.238  1.00  0.00     0.090 C 
HETATM    8  C   UNL     1     -42.322 -53.981  13.331  1.00  0.00     0.051 C 
HETATM    9  C   UNL     1     -43.497 -53.558  12.449  1.00  0.00     0.170 C 
HETATM   10  O   UNL     1     -44.553 -53.016  13.239  1.00  0.00    -0.385 OA
HETATM   11  C   UNL     1     -44.132 -51.835  13.932  1.00  0.00     0.127 C 
HETATM   12  C   UNL     1     -43.061 -52.212  14.953  1.00  0.00     0.057 C 
BRANCH  11  13
HETATM   13  C   UNL     1     -45.328 -51.216  14.596  1.00  0.00     0.015 A 
HETATM   14  C   UNL     1     -46.383 -52.091  15.222  1.00  0.00     0.007 A 
HETATM   15  C   UNL     1     -46.687 -51.347  13.952  1.00  0.00     0.007 A 
ENDBRANCH  11  13
ENDBRANCH   3   7
BRANCH   4  16
HETATM   16  C   UNL     1     -40.260 -49.917  11.734  1.00  0.00     0.123 A 
HETATM   17  C   UNL     1     -40.538 -48.840  12.548  1.00  0.00     0.051 A 
HETATM   18  C   UNL     1     -41.144 -47.729  11.973  1.00  0.00     0.022 A 
HETATM   19  C   UNL     1     -41.503 -47.786  10.639  1.00  0.00     0.107 A 
HETATM   20  N   UNL     1     -41.272 -48.872   9.877  1.00  0.00    -0.310 N 
HETATM   21  N   UNL     1     -40.628 -49.936  10.430  1.00  0.00    -0.286 N 
ATOM     22  HN  UNL     1     -41.575 -48.896   8.903  1.00  0.00     0.186 HD
ATOM     23  HN  UNL     1     -40.420 -50.755   9.857  1.00  0.00     0.188 HD
ENDBRANCH   4  16
TORSDOF 3
ENDMDL
MODEL 4
REMARK VINA RESULT:      -5.9      2.037      2.872
REMARK  3 active torsions:
REMARK  status: ('A' for Active; 'I' for Inactive)
REMARK       I    between atoms: C_2  and  N_3 
REMARK       I    between atoms: C_2  and  N_13 
REMARK    1  A    between atoms: N_3  and  C_4 
REMARK    2  A    between atoms: C_8  and  C_10 
REMARK    3  A    between atoms: N_13  and  C_14 
ROOT
HETATM    1  O   UNL     1     -42.812 -46.615  13.781  1.00  0.00    -0.247 OA
HETATM    2  C   UNL     1     -43.042 -47.252  12.753  1.00  0.00     0.322 C 
HETATM    3  N   UNL     1     -42.826 -48.588  12.619  1.00  0.00    -0.338 N 
HETATM    4  N   UNL     1     -43.410 -46.602  11.601  1.00  0.00    -0.294 N 
HETATM    5  H   UNL     1     -43.219 -49.012  11.786  1.00  0.00     0.164 HD
HETATM    6  H   UNL     1     -43.205 -45.613  11.623  1.00  0.00     0.172 HD
ENDROOT
BRANCH   3   7
HETATM    7  C   UNL     1     -42.312 -49.489  13.637  1.00  0.00     0.090 C 
HETATM    8  C   UNL     1     -41.569 -50.648  12.954  1.00  0.00     0.051 C 
HETATM    9  C   UNL     1     -42.546 -51.633  12.311  1.00  0.00     0.170 C 
HETATM   10  O   UNL     1     -43.515 -52.075  13.259  1.00  0.00    -0.385 OA
HETATM   11  C   UNL     1     -44.310 -50.984  13.739  1.00  0.00     0.127 C 
HETATM   12  C   UNL     1     -43.420 -50.033  14.535  1.00  0.00     0.057 C 
BRANCH  11  13
HETATM   13  C   UNL     1     -45.419 -51.535  14.587  1.00  0.00     0.015 A 
HETATM   14  C   UNL     1     -46.196 -52.743  14.126  1.00  0.00     0.007 A 
HETATM   15  C   UNL     1     -46.850 -51.390  14.127  1.00  0.00     0.007 A 
ENDBRANCH  11  13
ENDBRANCH   3   7
BRANCH   4  16
HETATM   16  C   UNL     1     -43.588 -47.248  10.372  1.00  0.00     0.123 A 
HETATM   17  C   UNL     1     -44.870 -47.432   9.900  1.00  0.00     0.051 A 
HETATM   18  C   UNL     1     -45.027 -47.822   8.575  1.00  0.00     0.022 A 
HETATM   19  C   UNL     1     -43.896 -48.076   7.821  1.00  0.00     0.107 A 
HETATM   20  N   UNL     1     -42.653 -47.944   8.320  1.00  0.00    -0.310 N 
HETATM   21  N   UNL     1     -42.503 -47.508   9.601  1.00  0.00    -0.286 N 
ATOM     22  HN  UNL     1     -41.838 -48.166   7.748  1.00  0.00     0.186 HD
ATOM     23  HN  UNL     1     -41.567 -47.375   9.984  1.00  0.00     0.188 HD
ENDBRANCH   4  16
TORSDOF 3
ENDMDL
MODEL 5
REMARK VINA RESULT:      -5.8      5.509      7.771
REMARK  3 active torsions:
REMARK  status: ('A' for Active; 'I' for Inactive)
REMARK       I    between atoms: C_2  and  N_3 
REMARK       I    between atoms: C_2  and  N_13 
REMARK    1  A    between atoms: N_3  and  C_4 
REMARK    2  A    between atoms: C_8  and  C_10 
REMARK    3  A    between atoms: N_13  and  C_14 
ROOT
HETATM    1  O   UNL     1     -43.805 -55.574  14.795  1.00  0.00    -0.247 OA
HETATM    2  C   UNL     1     -43.472 -54.509  14.274  1.00  0.00     0.322 C 
HETATM    3  N   UNL     1     -44.344 -53.626  13.717  1.00  0.00    -0.338 N 
HETATM    4  N   UNL     1     -42.144 -54.208  14.097  1.00  0.00    -0.294 N 
HETATM    5  H   UNL     1     -43.957 -52.719  13.483  1.00  0.00     0.164 HD
HETATM    6  H   UNL     1     -41.543 -55.015  14.175  1.00  0.00     0.172 HD
ENDROOT
BRANCH   3   7
HETATM    7  C   UNL     1     -45.789 -53.765  13.645  1.00  0.00     0.090 C 
HETATM    8  C   UNL     1     -46.347 -52.716  12.670  1.00  0.00     0.051 C 
HETATM    9  C   UNL     1     -46.325 -51.317  13.286  1.00  0.00     0.170 C 
HETATM   10  O   UNL     1     -46.987 -51.310  14.549  1.00  0.00    -0.385 OA
HETATM   11  C   UNL     1     -46.327 -52.168  15.488  1.00  0.00     0.127 C 
HETATM   12  C   UNL     1     -46.449 -53.614  15.012  1.00  0.00     0.057 C 
BRANCH  11  13
HETATM   13  C   UNL     1     -46.958 -51.979  16.837  1.00  0.00     0.015 A 
HETATM   14  C   UNL     1     -48.000 -50.908  17.042  1.00  0.00     0.007 A 
HETATM   15  C   UNL     1     -46.633 -50.746  17.645  1.00  0.00     0.007 A 
ENDBRANCH  11  13
ENDBRANCH   3   7
BRANCH   4  16
HETATM   16  C   UNL     1     -41.694 -53.066  13.423  1.00  0.00     0.123 A 
HETATM   17  C   UNL     1     -41.180 -52.020  14.161  1.00  0.00     0.051 A 
HETATM   18  C   UNL     1     -40.494 -51.020  13.482  1.00  0.00     0.022 A 
HETATM   19  C   UNL     1     -40.423 -51.083  12.103  1.00  0.00     0.107 A 
HETATM   20  N   UNL     1     -40.981 -52.086  11.398  1.00  0.00    -0.310 N 
HETATM   21  N   UNL     1     -41.604 -53.092  12.071  1.00  0.00    -0.286 N 
ATOM     22  HN  UNL     1     -40.938 -52.090  10.379  1.00  0.00     0.186 HD
ATOM     23  HN  UNL     1     -42.006 -53.873  11.552  1.00  0.00     0.188 HD
ENDBRANCH   4  16
TORSDOF 3
ENDMDL
MODEL 6
REMARK VINA RESULT:      -5.8      4.138      5.990
REMARK  3 active torsions:
REMARK  status: ('A' for Active; 'I' for Inactive)
REMARK       I    between atoms: C_2  and  N_3 
REMARK       I    between atoms: C_2  and  N_13 
REMARK    1  A    between atoms: N_3  and  C_4 
REMARK    2  A    between atoms: C_8  and  C_10 
REMARK    3  A    between atoms: N_13  and  C_14 
ROOT
HETATM    1  O   UNL     1     -37.260 -51.971  12.751  1.00  0.00    -0.247 OA
HETATM    2  C   UNL     1     -38.243 -51.234  12.659  1.00  0.00     0.322 C 
HETATM    3  N   UNL     1     -39.374 -51.374  13.401  1.00  0.00    -0.338 N 
HETATM    4  N   UNL     1     -38.308 -50.284  11.670  1.00  0.00    -0.294 N 
HETATM    5  H   UNL     1     -40.029 -50.602  13.347  1.00  0.00     0.164 HD
HETATM    6  H   UNL     1     -37.645 -50.444  10.925  1.00  0.00     0.172 HD
ENDROOT
BRANCH   3   7
HETATM    7  C   UNL     1     -39.623 -52.380  14.419  1.00  0.00     0.090 C 
HETATM    8  C   UNL     1     -39.890 -53.731  13.738  1.00  0.00     0.051 C 
HETATM    9  C   UNL     1     -41.279 -53.766  13.099  1.00  0.00     0.170 C 
HETATM   10  O   UNL     1     -42.282 -53.415  14.050  1.00  0.00    -0.385 OA
HETATM   11  C   UNL     1     -42.100 -52.077  14.530  1.00  0.00     0.127 C 
HETATM   12  C   UNL     1     -40.796 -52.006  15.321  1.00  0.00     0.057 C 
BRANCH  11  13
HETATM   13  C   UNL     1     -43.279 -51.708  15.381  1.00  0.00     0.015 A 
HETATM   14  C   UNL     1     -44.676 -52.051  14.929  1.00  0.00     0.007 A 
HETATM   15  C   UNL     1     -44.218 -50.619  14.919  1.00  0.00     0.007 A 
ENDBRANCH  11  13
ENDBRANCH   3   7
BRANCH   4  16
HETATM   16  C   UNL     1     -39.433 -49.482  11.440  1.00  0.00     0.123 A 
HETATM   17  C   UNL     1     -39.489 -48.236  12.028  1.00  0.00     0.051 A 
HETATM   18  C   UNL     1     -40.464 -47.350  11.584  1.00  0.00     0.022 A 
HETATM   19  C   UNL     1     -41.370 -47.783  10.634  1.00  0.00     0.107 A 
HETATM   20  N   UNL     1     -41.330 -49.025  10.114  1.00  0.00    -0.310 N 
HETATM   21  N   UNL     1     -40.339 -49.870  10.510  1.00  0.00    -0.286 N 
ATOM     22  HN  UNL     1     -42.030 -49.326   9.435  1.00  0.00     0.186 HD
ATOM     23  HN  UNL     1     -40.279 -50.804  10.104  1.00  0.00     0.188 HD
ENDBRANCH   4  16
TORSDOF 3
ENDMDL
MODEL 7
REMARK VINA RESULT:      -5.6      3.660      6.002
REMARK  3 active torsions:
REMARK  status: ('A' for Active; 'I' for Inactive)
REMARK       I    between atoms: C_2  and  N_3 
REMARK       I    between atoms: C_2  and  N_13 
REMARK    1  A    between atoms: N_3  and  C_4 
REMARK    2  A    between atoms: C_8  and  C_10 
REMARK    3  A    between atoms: N_13  and  C_14 
ROOT
HETATM    1  O   UNL     1     -42.749 -47.984   9.632  1.00  0.00    -0.247 OA
HETATM    2  C   UNL     1     -41.738 -48.111  10.323  1.00  0.00     0.322 C 
HETATM    3  N   UNL     1     -40.907 -47.087  10.658  1.00  0.00    -0.338 N 
HETATM    4  N   UNL     1     -41.301 -49.360  10.690  1.00  0.00    -0.294 N 
HETATM    5  H   UNL     1     -40.217 -47.301  11.368  1.00  0.00     0.164 HD
HETATM    6  H   UNL     1     -41.707 -50.100  10.134  1.00  0.00     0.172 HD
ENDROOT
BRANCH   3   7
HETATM    7  C   UNL     1     -41.061 -45.692  10.285  1.00  0.00     0.090 C 
HETATM    8  C   UNL     1     -39.715 -44.972  10.464  1.00  0.00     0.051 C 
HETATM    9  C   UNL     1     -39.403 -44.737  11.942  1.00  0.00     0.170 C 
HETATM   10  O   UNL     1     -40.483 -44.064  12.586  1.00  0.00    -0.385 OA
HETATM   11  C   UNL     1     -41.680 -44.850  12.554  1.00  0.00     0.127 C 
HETATM   12  C   UNL     1     -42.142 -44.994  11.105  1.00  0.00     0.057 C 
BRANCH  11  13
HETATM   13  C   UNL     1     -42.722 -44.174  13.397  1.00  0.00     0.015 A 
HETATM   14  C   UNL     1     -42.320 -43.441  14.652  1.00  0.00     0.007 A 
HETATM   15  C   UNL     1     -43.065 -44.743  14.753  1.00  0.00     0.007 A 
ENDBRANCH  11  13
ENDBRANCH   3   7
BRANCH   4  16
HETATM   16  C   UNL     1     -40.107 -49.589  11.386  1.00  0.00     0.123 A 
HETATM   17  C   UNL     1     -40.142 -49.631  12.763  1.00  0.00     0.051 A 
HETATM   18  C   UNL     1     -39.023 -50.122  13.428  1.00  0.00     0.022 A 
HETATM   19  C   UNL     1     -37.911 -50.471  12.684  1.00  0.00     0.107 A 
HETATM   20  N   UNL     1     -37.880 -50.368  11.342  1.00  0.00    -0.310 N 
HETATM   21  N   UNL     1     -38.997 -49.940  10.692  1.00  0.00    -0.286 N 
ATOM     22  HN  UNL     1     -37.035 -50.606  10.823  1.00  0.00     0.186 HD
ATOM     23  HN  UNL     1     -38.998 -49.884   9.673  1.00  0.00     0.188 HD
ENDBRANCH   4  16
TORSDOF 3
ENDMDL
MODEL 8
REMARK VINA RESULT:      -5.6      3.001      5.607
REMARK  3 active torsions:
REMARK  status: ('A' for Active; 'I' for Inactive)
REMARK       I    between atoms: C_2  and  N_3 
REMARK       I    between atoms: C_2  and  N_13 
REMARK    1  A    between atoms: N_3  and  C_4 
REMARK    2  A    between atoms: C_8  and  C_10 
REMARK    3  A    between atoms: N_13  and  C_14 
ROOT
HETATM    1  O   UNL     1     -40.046 -51.785  12.247  1.00  0.00    -0.247 OA
HETATM    2  C   UNL     1     -41.250 -51.554  12.358  1.00  0.00     0.322 C 
HETATM    3  N   UNL     1     -41.803 -50.315  12.261  1.00  0.00    -0.338 N 
HETATM    4  N   UNL     1     -42.115 -52.550  12.739  1.00  0.00    -0.294 N 
HETATM    5  H   UNL     1     -42.814 -50.292  12.200  1.00  0.00     0.164 HD
HETATM    6  H   UNL     1     -41.647 -53.342  13.156  1.00  0.00     0.172 HD
ENDROOT
BRANCH   3   7
HETATM    7  C   UNL     1     -41.099 -49.071  12.003  1.00  0.00     0.090 C 
HETATM    8  C   UNL     1     -41.483 -48.042  13.077  1.00  0.00     0.051 C 
HETATM    9  C   UNL     1     -42.897 -47.505  12.853  1.00  0.00     0.170 C 
HETATM   10  O   UNL     1     -43.042 -47.004  11.526  1.00  0.00    -0.385 OA
HETATM   11  C   UNL     1     -42.852 -48.039  10.554  1.00  0.00     0.127 C 
HETATM   12  C   UNL     1     -41.403 -48.517  10.613  1.00  0.00     0.057 C 
BRANCH  11  13
HETATM   13  C   UNL     1     -43.194 -47.493   9.198  1.00  0.00     0.015 A 
HETATM   14  C   UNL     1     -44.079 -46.279   9.072  1.00  0.00     0.007 A 
HETATM   15  C   UNL     1     -44.604 -47.630   8.675  1.00  0.00     0.007 A 
ENDBRANCH  11  13
ENDBRANCH   3   7
BRANCH   4  16
HETATM   16  C   UNL     1     -43.478 -52.339  12.985  1.00  0.00     0.123 A 
HETATM   17  C   UNL     1     -43.844 -51.565  14.065  1.00  0.00     0.051 A 
HETATM   18  C   UNL     1     -45.165 -51.140  14.143  1.00  0.00     0.022 A 
HETATM   19  C   UNL     1     -46.059 -51.572  13.180  1.00  0.00     0.107 A 
HETATM   20  N   UNL     1     -45.690 -52.375  12.164  1.00  0.00    -0.310 N 
HETATM   21  N   UNL     1     -44.384 -52.743  12.060  1.00  0.00    -0.286 N 
ATOM     22  HN  UNL     1     -46.378 -52.701  11.485  1.00  0.00     0.186 HD
ATOM     23  HN  UNL     1     -44.084 -53.327  11.280  1.00  0.00     0.188 HD
ENDBRANCH   4  16
TORSDOF 3
ENDMDL
MODEL 9
REMARK VINA RESULT:      -5.5      4.563      6.353
REMARK  3 active torsions:
REMARK  status: ('A' for Active; 'I' for Inactive)
REMARK       I    between atoms: C_2  and  N_3 
REMARK       I    between atoms: C_2  and  N_13 
REMARK    1  A    between atoms: N_3  and  C_4 
REMARK    2  A    between atoms: C_8  and  C_10 
REMARK    3  A    between atoms: N_13  and  C_14 
ROOT
HETATM    1  O   UNL     1     -41.444 -48.468  11.044  1.00  0.00    -0.247 OA
HETATM    2  C   UNL     1     -41.202 -49.505  11.662  1.00  0.00     0.322 C 
HETATM    3  N   UNL     1     -39.988 -49.814  12.190  1.00  0.00    -0.338 N 
HETATM    4  N   UNL     1     -42.141 -50.505  11.734  1.00  0.00    -0.294 N 
HETATM    5  H   UNL     1     -39.974 -50.611  12.817  1.00  0.00     0.164 HD
HETATM    6  H   UNL     1     -42.870 -50.413  11.042  1.00  0.00     0.172 HD
ENDROOT
BRANCH   3   7
HETATM    7  C   UNL     1     -38.788 -48.997  12.136  1.00  0.00     0.090 C 
HETATM    8  C   UNL     1     -37.676 -49.781  11.422  1.00  0.00     0.051 C 
HETATM    9  C   UNL     1     -37.110 -50.884  12.317  1.00  0.00     0.170 C 
HETATM   10  O   UNL     1     -36.695 -50.353  13.573  1.00  0.00    -0.385 OA
HETATM   11  C   UNL     1     -37.800 -49.788  14.290  1.00  0.00     0.127 C 
HETATM   12  C   UNL     1     -38.320 -48.573  13.526  1.00  0.00     0.057 C 
BRANCH  11  13
HETATM   13  C   UNL     1     -37.337 -49.413  15.668  1.00  0.00     0.015 A 
HETATM   14  C   UNL     1     -36.094 -50.041  16.245  1.00  0.00     0.007 A 
HETATM   15  C   UNL     1     -37.443 -50.420  16.788  1.00  0.00     0.007 A 
ENDBRANCH  11  13
ENDBRANCH   3   7
BRANCH   4  16
HETATM   16  C   UNL     1     -41.901 -51.750  12.330  1.00  0.00     0.123 A 
HETATM   17  C   UNL     1     -42.510 -52.037  13.533  1.00  0.00     0.051 A 
HETATM   18  C   UNL     1     -42.487 -53.354  13.976  1.00  0.00     0.022 A 
HETATM   19  C   UNL     1     -41.796 -54.292  13.232  1.00  0.00     0.107 A 
HETATM   20  N   UNL     1     -41.160 -53.977  12.088  1.00  0.00    -0.310 N 
HETATM   21  N   UNL     1     -41.232 -52.698  11.628  1.00  0.00    -0.286 N 
ATOM     22  HN  UNL     1     -40.634 -54.685  11.575  1.00  0.00     0.186 HD
ATOM     23  HN  UNL     1     -40.780 -52.451  10.748  1.00  0.00     0.188 HD
ENDBRANCH   4  16
TORSDOF 3
ENDMDL
