MODEL 1
REMARK VINA RESULT:      -5.0      0.000      0.000
REMARK  2 active torsions:
REMARK  status: ('A' for Active; 'I' for Inactive)
REMARK    1  A    between atoms: O_1  and  C_2 
REMARK    2  A    between atoms: C_6  and  C_7 
ROOT
HETATM    1  C   UNL     1     -46.534 -52.664  12.999  1.00  0.00     0.126 C 
HETATM    2  C   UNL     1     -46.473 -51.401  13.859  1.00  0.00     0.032 C 
HETATM    3  C   UNL     1     -46.304 -51.884  15.299  1.00  0.00     0.003 C 
HETATM    4  C   UNL     1     -46.386 -53.409  15.248  1.00  0.00     0.012 C 
HETATM    5  C   UNL     1     -45.899 -53.785  13.843  1.00  0.00     0.049 C 
ENDROOT
BRANCH   5   6
HETATM    6  C   UNL     1     -44.395 -53.978  13.790  1.00  0.00    -0.036 A 
HETATM    7  C   UNL     1     -43.624 -54.496  14.832  1.00  0.00     0.010 A 
HETATM    8  C   UNL     1     -42.242 -54.605  14.697  1.00  0.00     0.018 A 
HETATM    9  C   UNL     1     -41.663 -54.200  13.508  1.00  0.00     0.087 A 
HETATM   10  N   UNL     1     -42.365 -53.715  12.465  1.00  0.00    -0.375 N 
HETATM   11  C   UNL     1     -43.704 -53.615  12.632  1.00  0.00     0.095 A 
ATOM     12  HN  UNL     1     -41.910 -53.438  11.595  1.00  0.00     0.164 HD
ENDBRANCH   5   6
BRANCH   1  13
HETATM   13  O   UNL     1     -45.940 -52.494  11.728  1.00  0.00    -0.395 OA
HETATM   14  H   UNL     1     -46.425 -53.048  11.095  1.00  0.00     0.210 HD
ENDBRANCH   1  13
TORSDOF 2
ENDMDL
MODEL 2
REMARK VINA RESULT:      -4.9      2.441      2.953
REMARK  2 active torsions:
REMARK  status: ('A' for Active; 'I' for Inactive)
REMARK    1  A    between atoms: O_1  and  C_2 
REMARK    2  A    between atoms: C_6  and  C_7 
ROOT
HETATM    1  C   UNL     1     -45.892 -52.654  13.180  1.00  0.00     0.126 C 
HETATM    2  C   UNL     1     -46.772 -51.607  13.863  1.00  0.00     0.032 C 
HETATM    3  C   UNL     1     -46.047 -51.231  15.155  1.00  0.00     0.003 C 
HETATM    4  C   UNL     1     -44.829 -52.149  15.242  1.00  0.00     0.012 C 
HETATM    5  C   UNL     1     -44.485 -52.489  13.786  1.00  0.00     0.049 C 
ENDROOT
BRANCH   5   6
HETATM    6  C   UNL     1     -43.537 -51.479  13.169  1.00  0.00    -0.036 A 
HETATM    7  C   UNL     1     -43.632 -50.096  13.336  1.00  0.00     0.010 A 
HETATM    8  C   UNL     1     -42.728 -49.247  12.700  1.00  0.00     0.018 A 
HETATM    9  C   UNL     1     -41.738 -49.809  11.916  1.00  0.00     0.087 A 
HETATM   10  N   UNL     1     -41.590 -51.137  11.740  1.00  0.00    -0.375 N 
HETATM   11  C   UNL     1     -42.489 -51.933  12.365  1.00  0.00     0.095 A 
ATOM     12  HN  UNL     1     -40.840 -51.522  11.166  1.00  0.00     0.164 HD
ENDBRANCH   5   6
BRANCH   1  13
HETATM   13  O   UNL     1     -45.925 -52.566  11.770  1.00  0.00    -0.395 OA
HETATM   14  H   UNL     1     -45.042 -52.794  11.436  1.00  0.00     0.210 HD
ENDBRANCH   1  13
TORSDOF 2
ENDMDL
MODEL 3
REMARK VINA RESULT:      -4.9      4.210      6.012
REMARK  2 active torsions:
REMARK  status: ('A' for Active; 'I' for Inactive)
REMARK    1  A    between atoms: O_1  and  C_2 
REMARK    2  A    between atoms: C_6  and  C_7 
ROOT
HETATM    1  C   UNL     1     -39.630 -49.531  11.506  1.00  0.00     0.126 C 
HETATM    2  C   UNL     1     -38.115 -49.730  11.552  1.00  0.00     0.032 C 
HETATM    3  C   UNL     1     -37.758 -49.883  13.029  1.00  0.00     0.003 C 
HETATM    4  C   UNL     1     -39.054 -49.656  13.806  1.00  0.00     0.012 C 
HETATM    5  C   UNL     1     -40.172 -50.076  12.842  1.00  0.00     0.049 C 
ENDROOT
BRANCH   5   6
HETATM    6  C   UNL     1     -40.499 -51.553  12.950  1.00  0.00    -0.036 A 
HETATM    7  C   UNL     1     -39.731 -52.487  13.647  1.00  0.00     0.010 A 
HETATM    8  C   UNL     1     -40.099 -53.830  13.661  1.00  0.00     0.018 A 
HETATM    9  C   UNL     1     -41.243 -54.206  12.981  1.00  0.00     0.087 A 
HETATM   10  N   UNL     1     -42.030 -53.340  12.312  1.00  0.00    -0.375 N 
HETATM   11  C   UNL     1     -41.639 -52.044  12.312  1.00  0.00     0.095 A 
ATOM     12  HN  UNL     1     -42.876 -53.646  11.831  1.00  0.00     0.164 HD
ENDBRANCH   5   6
BRANCH   1  13
HETATM   13  O   UNL     1     -40.227 -50.111  10.363  1.00  0.00    -0.395 OA
HETATM   14  H   UNL     1     -40.127 -51.074  10.431  1.00  0.00     0.210 HD
ENDBRANCH   1  13
TORSDOF 2
ENDMDL
MODEL 4
REMARK VINA RESULT:      -4.8      2.482      4.611
REMARK  2 active torsions:
REMARK  status: ('A' for Active; 'I' for Inactive)
REMARK    1  A    between atoms: O_1  and  C_2 
REMARK    2  A    between atoms: C_6  and  C_7 
ROOT
HETATM    1  C   UNL     1     -40.157 -53.236  13.083  1.00  0.00     0.126 C 
HETATM    2  C   UNL     1     -39.663 -54.493  13.799  1.00  0.00     0.032 C 
HETATM    3  C   UNL     1     -40.157 -54.374  15.240  1.00  0.00     0.003 C 
HETATM    4  C   UNL     1     -40.824 -53.004  15.349  1.00  0.00     0.012 C 
HETATM    5  C   UNL     1     -41.322 -52.692  13.932  1.00  0.00     0.049 C 
ENDROOT
BRANCH   5   6
HETATM    6  C   UNL     1     -42.719 -53.226  13.683  1.00  0.00    -0.036 A 
HETATM    7  C   UNL     1     -43.275 -54.329  14.334  1.00  0.00     0.010 A 
HETATM    8  C   UNL     1     -44.559 -54.762  14.012  1.00  0.00     0.018 A 
HETATM    9  C   UNL     1     -45.265 -54.067  13.048  1.00  0.00     0.087 A 
HETATM   10  N   UNL     1     -44.783 -52.984  12.407  1.00  0.00    -0.375 N 
HETATM   11  C   UNL     1     -43.530 -52.595  12.738  1.00  0.00     0.095 A 
ATOM     12  HN  UNL     1     -45.334 -52.484  11.710  1.00  0.00     0.164 HD
ENDBRANCH   5   6
BRANCH   1  13
HETATM   13  O   UNL     1     -40.491 -53.469  11.729  1.00  0.00    -0.395 OA
HETATM   14  H   UNL     1     -40.469 -52.616  11.265  1.00  0.00     0.210 HD
ENDBRANCH   1  13
TORSDOF 2
ENDMDL
MODEL 5
REMARK VINA RESULT:      -4.8      4.350      6.093
REMARK  2 active torsions:
REMARK  status: ('A' for Active; 'I' for Inactive)
REMARK    1  A    between atoms: O_1  and  C_2 
REMARK    2  A    between atoms: C_6  and  C_7 
ROOT
HETATM    1  C   UNL     1     -39.925 -53.880  13.892  1.00  0.00     0.126 C 
HETATM    2  C   UNL     1     -41.046 -54.230  12.913  1.00  0.00     0.032 C 
HETATM    3  C   UNL     1     -42.025 -53.058  12.963  1.00  0.00     0.003 C 
HETATM    4  C   UNL     1     -41.507 -52.117  14.048  1.00  0.00     0.012 C 
HETATM    5  C   UNL     1     -39.992 -52.353  14.087  1.00  0.00     0.049 C 
ENDROOT
BRANCH   5   6
HETATM    6  C   UNL     1     -39.246 -51.458  13.116  1.00  0.00    -0.036 A 
HETATM    7  C   UNL     1     -37.875 -51.199  13.167  1.00  0.00     0.010 A 
HETATM    8  C   UNL     1     -37.287 -50.336  12.245  1.00  0.00     0.018 A 
HETATM    9  C   UNL     1     -38.091 -49.758  11.280  1.00  0.00     0.087 A 
HETATM   10  N   UNL     1     -39.414 -49.993  11.174  1.00  0.00    -0.375 N 
HETATM   11  C   UNL     1     -39.955 -50.830  12.090  1.00  0.00     0.095 A 
ATOM     12  HN  UNL     1     -39.978 -49.562  10.441  1.00  0.00     0.164 HD
ENDBRANCH   5   6
BRANCH   1  13
HETATM   13  O   UNL     1     -38.660 -54.352  13.472  1.00  0.00    -0.395 OA
HETATM   14  H   UNL     1     -38.005 -53.662  13.668  1.00  0.00     0.210 HD
ENDBRANCH   1  13
TORSDOF 2
ENDMDL
MODEL 6
REMARK VINA RESULT:      -4.8      3.139      5.278
REMARK  2 active torsions:
REMARK  status: ('A' for Active; 'I' for Inactive)
REMARK    1  A    between atoms: O_1  and  C_2 
REMARK    2  A    between atoms: C_6  and  C_7 
ROOT
HETATM    1  C   UNL     1     -39.005 -54.227  14.418  1.00  0.00     0.126 C 
HETATM    2  C   UNL     1     -39.365 -55.093  15.625  1.00  0.00     0.032 C 
HETATM    3  C   UNL     1     -40.156 -54.188  16.568  1.00  0.00     0.003 C 
HETATM    4  C   UNL     1     -40.137 -52.797  15.938  1.00  0.00     0.012 C 
HETATM    5  C   UNL     1     -39.995 -53.046  14.431  1.00  0.00     0.049 C 
ENDROOT
BRANCH   5   6
HETATM    6  C   UNL     1     -41.339 -53.212  13.747  1.00  0.00    -0.036 A 
HETATM    7  C   UNL     1     -42.398 -53.969  14.252  1.00  0.00     0.010 A 
HETATM    8  C   UNL     1     -43.585 -54.085  13.532  1.00  0.00     0.018 A 
HETATM    9  C   UNL     1     -43.687 -53.427  12.321  1.00  0.00     0.087 A 
HETATM   10  N   UNL     1     -42.703 -52.667  11.800  1.00  0.00    -0.375 N 
HETATM   11  C   UNL     1     -41.560 -52.581  12.521  1.00  0.00     0.095 A 
ATOM     12  HN  UNL     1     -42.813 -52.182  10.910  1.00  0.00     0.164 HD
ENDBRANCH   5   6
BRANCH   1  13
HETATM   13  O   UNL     1     -38.989 -54.952  13.205  1.00  0.00    -0.395 OA
HETATM   14  H   UNL     1     -39.910 -55.127  12.950  1.00  0.00     0.210 HD
ENDBRANCH   1  13
TORSDOF 2
ENDMDL
MODEL 7
REMARK VINA RESULT:      -4.8      3.881      5.346
REMARK  2 active torsions:
REMARK  status: ('A' for Active; 'I' for Inactive)
REMARK    1  A    between atoms: O_1  and  C_2 
REMARK    2  A    between atoms: C_6  and  C_7 
ROOT
HETATM    1  C   UNL     1     -40.804 -53.291  12.697  1.00  0.00     0.126 C 
HETATM    2  C   UNL     1     -42.183 -53.726  13.194  1.00  0.00     0.032 C 
HETATM    3  C   UNL     1     -42.489 -52.843  14.404  1.00  0.00     0.003 C 
HETATM    4  C   UNL     1     -41.237 -52.001  14.643  1.00  0.00     0.012 C 
HETATM    5  C   UNL     1     -40.574 -51.877  13.265  1.00  0.00     0.049 C 
ENDROOT
BRANCH   5   6
HETATM    6  C   UNL     1     -41.089 -50.682  12.486  1.00  0.00    -0.036 A 
HETATM    7  C   UNL     1     -42.265 -49.989  12.781  1.00  0.00     0.010 A 
HETATM    8  C   UNL     1     -42.670 -48.921  11.984  1.00  0.00     0.018 A 
HETATM    9  C   UNL     1     -41.877 -48.564  10.909  1.00  0.00     0.087 A 
HETATM   10  N   UNL     1     -40.724 -49.186  10.595  1.00  0.00    -0.375 N 
HETATM   11  C   UNL     1     -40.363 -50.224  11.385  1.00  0.00     0.095 A 
ATOM     12  HN  UNL     1     -40.153 -48.890   9.803  1.00  0.00     0.164 HD
ENDBRANCH   5   6
BRANCH   1  13
HETATM   13  O   UNL     1     -40.674 -53.374  11.292  1.00  0.00    -0.395 OA
HETATM   14  H   UNL     1     -39.884 -52.872  11.035  1.00  0.00     0.210 HD
ENDBRANCH   1  13
TORSDOF 2
ENDMDL
MODEL 8
REMARK VINA RESULT:      -4.7      2.416      4.394
REMARK  2 active torsions:
REMARK  status: ('A' for Active; 'I' for Inactive)
REMARK    1  A    between atoms: O_1  and  C_2 
REMARK    2  A    between atoms: C_6  and  C_7 
ROOT
HETATM    1  C   UNL     1     -45.134 -52.778  12.602  1.00  0.00     0.126 C 
HETATM    2  C   UNL     1     -43.798 -53.388  13.025  1.00  0.00     0.032 C 
HETATM    3  C   UNL     1     -42.918 -52.213  13.451  1.00  0.00     0.003 C 
HETATM    4  C   UNL     1     -43.725 -50.949  13.157  1.00  0.00     0.012 C 
HETATM    5  C   UNL     1     -45.192 -51.384  13.257  1.00  0.00     0.049 C 
ENDROOT
BRANCH   5   6
HETATM    6  C   UNL     1     -45.732 -51.262  14.669  1.00  0.00    -0.036 A 
HETATM    7  C   UNL     1     -47.049 -51.537  15.042  1.00  0.00     0.010 A 
HETATM    8  C   UNL     1     -47.457 -51.364  16.363  1.00  0.00     0.018 A 
HETATM    9  C   UNL     1     -46.525 -50.928  17.287  1.00  0.00     0.087 A 
HETATM   10  N   UNL     1     -45.238 -50.670  16.983  1.00  0.00    -0.375 N 
HETATM   11  C   UNL     1     -44.877 -50.841  15.689  1.00  0.00     0.095 A 
ATOM     12  HN  UNL     1     -44.570 -50.363  17.690  1.00  0.00     0.164 HD
ENDBRANCH   5   6
BRANCH   1  13
HETATM   13  O   UNL     1     -46.239 -53.604  12.908  1.00  0.00    -0.395 OA
HETATM   14  H   UNL     1     -46.354 -54.232  12.176  1.00  0.00     0.210 HD
ENDBRANCH   1  13
TORSDOF 2
ENDMDL
MODEL 9
REMARK VINA RESULT:      -4.7      3.031      4.721
REMARK  2 active torsions:
REMARK  status: ('A' for Active; 'I' for Inactive)
REMARK    1  A    between atoms: O_1  and  C_2 
REMARK    2  A    between atoms: C_6  and  C_7 
ROOT
HETATM    1  C   UNL     1     -46.210 -53.907  14.350  1.00  0.00     0.126 C 
HETATM    2  C   UNL     1     -44.847 -53.683  13.696  1.00  0.00     0.032 C 
HETATM    3  C   UNL     1     -44.957 -52.358  12.943  1.00  0.00     0.003 C 
HETATM    4  C   UNL     1     -46.410 -51.908  13.084  1.00  0.00     0.012 C 
HETATM    5  C   UNL     1     -46.889 -52.524  14.405  1.00  0.00     0.049 C 
ENDROOT
BRANCH   5   6
HETATM    6  C   UNL     1     -46.613 -51.622  15.593  1.00  0.00    -0.036 A 
HETATM    7  C   UNL     1     -45.403 -50.965  15.826  1.00  0.00     0.010 A 
HETATM    8  C   UNL     1     -45.237 -50.180  16.965  1.00  0.00     0.018 A 
HETATM    9  C   UNL     1     -46.299 -50.064  17.844  1.00  0.00     0.087 A 
HETATM   10  N   UNL     1     -47.493 -50.659  17.653  1.00  0.00    -0.375 N 
HETATM   11  C   UNL     1     -47.618 -51.420  16.541  1.00  0.00     0.095 A 
ATOM     12  HN  UNL     1     -48.262 -50.542  18.313  1.00  0.00     0.164 HD
ENDBRANCH   5   6
BRANCH   1  13
HETATM   13  O   UNL     1     -46.121 -54.555  15.603  1.00  0.00    -0.395 OA
HETATM   14  H   UNL     1     -45.697 -55.417  15.463  1.00  0.00     0.210 HD
ENDBRANCH   1  13
TORSDOF 2
ENDMDL
