MODEL 1
REMARK VINA RESULT:      -6.0      0.000      0.000
REMARK  3 active torsions:
REMARK  status: ('A' for Active; 'I' for Inactive)
REMARK    1  A    between atoms: C_2  and  C_3 
REMARK    2  A    between atoms: C_2  and  N_15 
REMARK       I    between atoms: C_3  and  N_5 
REMARK    3  A    between atoms: N_5  and  C_6 
ROOT
HETATM    1  C   UNL     1     -42.846 -48.356  11.726  1.00  0.00     0.242 C 
HETATM    2  O   UNL     1     -43.182 -47.677  12.694  1.00  0.00    -0.271 OA
HETATM    3  N   UNL     1     -42.674 -49.724  11.798  1.00  0.00    -0.352 N 
HETATM    4  H   UNL     1     -42.261 -50.207  11.004  1.00  0.00     0.163 HD
ENDROOT
BRANCH   1   5
HETATM    5  C   UNL     1     -42.550 -47.752  10.356  1.00  0.00     0.197 C 
HETATM    6  C   UNL     1     -41.482 -46.664  10.414  1.00  0.00     0.044 C 
BRANCH   5   7
HETATM    7  N   UNL     1     -43.777 -47.258   9.755  1.00  0.00    -0.273 N 
HETATM    8  C   UNL     1     -43.986 -46.078   9.110  1.00  0.00     0.202 A 
HETATM    9  N   UNL     1     -45.252 -45.983   8.773  1.00  0.00    -0.346 N 
HETATM   10  C   UNL     1     -45.790 -47.143   9.254  1.00  0.00     0.198 A 
ATOM     11  HN  UNL     1     -45.720 -45.226   8.274  1.00  0.00     0.167 HD
HETATM   12  N   UNL     1     -44.932 -47.944   9.890  1.00  0.00    -0.292 N 
ATOM     13  HN  UNL     1     -45.103 -48.836  10.354  1.00  0.00     0.188 HD
ENDBRANCH   5   7
ENDBRANCH   1   5
BRANCH   3  14
HETATM   14  C   UNL     1     -42.858 -50.476  13.032  1.00  0.00     0.119 C 
HETATM   15  C   UNL     1     -44.345 -50.751  13.306  1.00  0.00     0.057 C 
HETATM   16  C   UNL     1     -44.455 -52.258  13.552  1.00  0.00     0.275 C 
HETATM   17  N   UNL     1     -43.089 -52.655  13.864  1.00  0.00     0.095 N 
HETATM   18  C   UNL     1     -42.821 -54.084  13.738  1.00  0.00     0.273 C 
HETATM   19  C   UNL     1     -42.245 -51.877  12.949  1.00  0.00     0.245 C 
HETATM   20  C   UNL     1     -41.352 -54.364  14.090  1.00  0.00     0.030 C 
HETATM   21  C   UNL     1     -40.377 -53.476  13.310  1.00  0.00     0.004 C 
HETATM   22  C   UNL     1     -40.787 -52.001  13.376  1.00  0.00     0.038 C 
ENDBRANCH   3  14
TORSDOF 3
ENDMDL
MODEL 2
REMARK VINA RESULT:      -6.0      1.546      2.477
REMARK  3 active torsions:
REMARK  status: ('A' for Active; 'I' for Inactive)
REMARK    1  A    between atoms: C_2  and  C_3 
REMARK    2  A    between atoms: C_2  and  N_15 
REMARK       I    between atoms: C_3  and  N_5 
REMARK    3  A    between atoms: N_5  and  C_6 
ROOT
HETATM    1  C   UNL     1     -41.733 -49.158  11.347  1.00  0.00     0.242 C 
HETATM    2  O   UNL     1     -40.703 -49.464  10.752  1.00  0.00    -0.271 OA
HETATM    3  N   UNL     1     -42.413 -50.039  12.165  1.00  0.00    -0.352 N 
HETATM    4  H   UNL     1     -43.329 -49.773  12.516  1.00  0.00     0.163 HD
ENDROOT
BRANCH   1   5
HETATM    5  C   UNL     1     -42.385 -47.784  11.216  1.00  0.00     0.197 C 
HETATM    6  C   UNL     1     -43.267 -47.439  12.412  1.00  0.00     0.044 C 
BRANCH   5   7
HETATM    7  N   UNL     1     -43.127 -47.702   9.970  1.00  0.00    -0.273 N 
HETATM    8  C   UNL     1     -44.447 -47.424   9.789  1.00  0.00     0.202 A 
HETATM    9  N   UNL     1     -44.741 -47.511   8.512  1.00  0.00    -0.346 N 
HETATM   10  C   UNL     1     -43.550 -47.864   7.943  1.00  0.00     0.198 A 
ATOM     11  HN  UNL     1     -45.640 -47.354   8.056  1.00  0.00     0.167 HD
HETATM   12  N   UNL     1     -42.537 -48.022   8.798  1.00  0.00    -0.292 N 
ATOM     13  HN  UNL     1     -41.575 -48.308   8.616  1.00  0.00     0.188 HD
ENDBRANCH   5   7
ENDBRANCH   1   5
BRANCH   3  14
HETATM   14  C   UNL     1     -41.976 -51.412  12.375  1.00  0.00     0.119 C 
HETATM   15  C   UNL     1     -40.735 -51.475  13.279  1.00  0.00     0.057 C 
HETATM   16  C   UNL     1     -41.074 -52.474  14.389  1.00  0.00     0.275 C 
HETATM   17  N   UNL     1     -42.193 -53.228  13.842  1.00  0.00     0.095 N 
HETATM   18  C   UNL     1     -42.980 -53.961  14.829  1.00  0.00     0.273 C 
HETATM   19  C   UNL     1     -43.017 -52.237  13.140  1.00  0.00     0.245 C 
HETATM   20  C   UNL     1     -44.124 -54.704  14.123  1.00  0.00     0.030 C 
HETATM   21  C   UNL     1     -44.955 -53.790  13.217  1.00  0.00     0.004 C 
HETATM   22  C   UNL     1     -44.061 -52.954  12.294  1.00  0.00     0.038 C 
ENDBRANCH   3  14
TORSDOF 3
ENDMDL
MODEL 3
REMARK VINA RESULT:      -6.0      1.510      2.253
REMARK  3 active torsions:
REMARK  status: ('A' for Active; 'I' for Inactive)
REMARK    1  A    between atoms: C_2  and  C_3 
REMARK    2  A    between atoms: C_2  and  N_15 
REMARK       I    between atoms: C_3  and  N_5 
REMARK    3  A    between atoms: N_5  and  C_6 
ROOT
HETATM    1  C   UNL     1     -42.451 -48.525  11.492  1.00  0.00     0.242 C 
HETATM    2  O   UNL     1     -43.066 -48.164  12.493  1.00  0.00    -0.271 OA
HETATM    3  N   UNL     1     -41.812 -49.746  11.409  1.00  0.00    -0.352 N 
HETATM    4  H   UNL     1     -41.206 -49.928  10.613  1.00  0.00     0.163 HD
ENDROOT
BRANCH   1   5
HETATM    5  C   UNL     1     -42.303 -47.647  10.252  1.00  0.00     0.197 C 
HETATM    6  C   UNL     1     -41.443 -46.414  10.508  1.00  0.00     0.044 C 
BRANCH   5   7
HETATM    7  N   UNL     1     -43.613 -47.283   9.741  1.00  0.00    -0.273 N 
HETATM    8  C   UNL     1     -43.968 -46.168   9.047  1.00  0.00     0.202 A 
HETATM    9  N   UNL     1     -45.263 -46.184   8.826  1.00  0.00    -0.346 N 
HETATM   10  C   UNL     1     -45.665 -47.344   9.427  1.00  0.00     0.198 A 
ATOM     11  HN  UNL     1     -45.830 -45.498   8.328  1.00  0.00     0.167 HD
HETATM   12  N   UNL     1     -44.695 -48.038  10.027  1.00  0.00    -0.292 N 
ATOM     13  HN  UNL     1     -44.755 -48.906  10.559  1.00  0.00     0.188 HD
ENDBRANCH   5   7
ENDBRANCH   1   5
BRANCH   3  14
HETATM   14  C   UNL     1     -41.796 -50.701  12.508  1.00  0.00     0.119 C 
HETATM   15  C   UNL     1     -41.991 -52.141  12.005  1.00  0.00     0.057 C 
HETATM   16  C   UNL     1     -40.842 -52.954  12.606  1.00  0.00     0.275 C 
HETATM   17  N   UNL     1     -40.376 -52.128  13.710  1.00  0.00     0.095 N 
HETATM   18  C   UNL     1     -39.040 -52.452  14.200  1.00  0.00     0.273 C 
HETATM   19  C   UNL     1     -40.434 -50.749  13.209  1.00  0.00     0.245 C 
HETATM   20  C   UNL     1     -38.673 -51.508  15.354  1.00  0.00     0.030 C 
HETATM   21  C   UNL     1     -38.864 -50.031  14.995  1.00  0.00     0.004 C 
HETATM   22  C   UNL     1     -40.239 -49.780  14.368  1.00  0.00     0.038 C 
ENDBRANCH   3  14
TORSDOF 3
ENDMDL
MODEL 4
REMARK VINA RESULT:      -5.9      2.623      4.286
REMARK  3 active torsions:
REMARK  status: ('A' for Active; 'I' for Inactive)
REMARK    1  A    between atoms: C_2  and  C_3 
REMARK    2  A    between atoms: C_2  and  N_15 
REMARK       I    between atoms: C_3  and  N_5 
REMARK    3  A    between atoms: N_5  and  C_6 
ROOT
HETATM    1  C   UNL     1     -41.268 -51.557  12.402  1.00  0.00     0.242 C 
HETATM    2  O   UNL     1     -41.248 -52.270  11.401  1.00  0.00    -0.271 OA
HETATM    3  N   UNL     1     -42.180 -51.730  13.424  1.00  0.00    -0.352 N 
HETATM    4  H   UNL     1     -42.235 -51.025  14.154  1.00  0.00     0.163 HD
ENDROOT
BRANCH   1   5
HETATM    5  C   UNL     1     -40.308 -50.387  12.601  1.00  0.00     0.197 C 
HETATM    6  C   UNL     1     -40.253 -49.916  14.050  1.00  0.00     0.044 C 
BRANCH   5   7
HETATM    7  N   UNL     1     -40.657 -49.299  11.703  1.00  0.00    -0.273 N 
HETATM    8  C   UNL     1     -39.976 -48.144  11.471  1.00  0.00     0.202 A 
HETATM    9  N   UNL     1     -40.660 -47.393  10.638  1.00  0.00    -0.346 N 
HETATM   10  C   UNL     1     -41.779 -48.139  10.395  1.00  0.00     0.198 A 
ATOM     11  HN  UNL     1     -40.415 -46.476  10.264  1.00  0.00     0.167 HD
HETATM   12  N   UNL     1     -41.838 -49.302  11.048  1.00  0.00    -0.292 N 
ATOM     13  HN  UNL     1     -42.576 -50.005  11.051  1.00  0.00     0.188 HD
ENDBRANCH   5   7
ENDBRANCH   1   5
BRANCH   3  14
HETATM   14  C   UNL     1     -43.209 -52.760  13.393  1.00  0.00     0.119 C 
HETATM   15  C   UNL     1     -42.718 -54.065  14.041  1.00  0.00     0.057 C 
HETATM   16  C   UNL     1     -43.782 -54.447  15.073  1.00  0.00     0.275 C 
HETATM   17  N   UNL     1     -44.952 -53.685  14.659  1.00  0.00     0.095 N 
HETATM   18  C   UNL     1     -45.980 -53.533  15.683  1.00  0.00     0.273 C 
HETATM   19  C   UNL     1     -44.430 -52.380  14.237  1.00  0.00     0.245 C 
HETATM   20  C   UNL     1     -47.148 -52.711  15.119  1.00  0.00     0.030 C 
HETATM   21  C   UNL     1     -46.694 -51.389  14.491  1.00  0.00     0.004 C 
HETATM   22  C   UNL     1     -45.527 -51.603  13.521  1.00  0.00     0.038 C 
ENDBRANCH   3  14
TORSDOF 3
ENDMDL
MODEL 5
REMARK VINA RESULT:      -5.8      1.602      1.969
REMARK  3 active torsions:
REMARK  status: ('A' for Active; 'I' for Inactive)
REMARK    1  A    between atoms: C_2  and  C_3 
REMARK    2  A    between atoms: C_2  and  N_15 
REMARK       I    between atoms: C_3  and  N_5 
REMARK    3  A    between atoms: N_5  and  C_6 
ROOT
HETATM    1  C   UNL     1     -42.110 -49.585  12.622  1.00  0.00     0.242 C 
HETATM    2  O   UNL     1     -41.765 -49.245  13.751  1.00  0.00    -0.271 OA
HETATM    3  N   UNL     1     -43.101 -50.518  12.392  1.00  0.00    -0.352 N 
HETATM    4  H   UNL     1     -43.243 -50.857  11.445  1.00  0.00     0.163 HD
ENDROOT
BRANCH   1   5
HETATM    5  C   UNL     1     -41.453 -49.034  11.358  1.00  0.00     0.197 C 
HETATM    6  C   UNL     1     -40.127 -48.337  11.644  1.00  0.00     0.044 C 
BRANCH   5   7
HETATM    7  N   UNL     1     -42.375 -48.155  10.661  1.00  0.00    -0.273 N 
HETATM    8  C   UNL     1     -43.279 -47.287  11.192  1.00  0.00     0.202 A 
HETATM    9  N   UNL     1     -43.967 -46.726  10.224  1.00  0.00    -0.346 N 
HETATM   10  C   UNL     1     -43.447 -47.302   9.100  1.00  0.00     0.198 A 
ATOM     11  HN  UNL     1     -44.709 -46.030  10.295  1.00  0.00     0.167 HD
HETATM   12  N   UNL     1     -42.489 -48.206   9.317  1.00  0.00    -0.292 N 
ATOM     13  HN  UNL     1     -41.979 -48.781   8.647  1.00  0.00     0.188 HD
ENDBRANCH   5   7
ENDBRANCH   1   5
BRANCH   3  14
HETATM   14  C   UNL     1     -43.809 -51.194  13.471  1.00  0.00     0.119 C 
HETATM   15  C   UNL     1     -45.318 -51.270  13.191  1.00  0.00     0.057 C 
HETATM   16  C   UNL     1     -45.704 -52.741  13.366  1.00  0.00     0.275 C 
HETATM   17  N   UNL     1     -44.603 -53.294  14.143  1.00  0.00     0.095 N 
HETATM   18  C   UNL     1     -44.497 -54.749  14.107  1.00  0.00     0.273 C 
HETATM   19  C   UNL     1     -43.395 -52.663  13.599  1.00  0.00     0.245 C 
HETATM   20  C   UNL     1     -43.300 -55.197  14.959  1.00  0.00     0.030 C 
HETATM   21  C   UNL     1     -42.003 -54.468  14.589  1.00  0.00     0.004 C 
HETATM   22  C   UNL     1     -42.215 -52.952  14.518  1.00  0.00     0.038 C 
ENDBRANCH   3  14
TORSDOF 3
ENDMDL
MODEL 6
REMARK VINA RESULT:      -5.7      3.961      5.934
REMARK  3 active torsions:
REMARK  status: ('A' for Active; 'I' for Inactive)
REMARK    1  A    between atoms: C_2  and  C_3 
REMARK    2  A    between atoms: C_2  and  N_15 
REMARK       I    between atoms: C_3  and  N_5 
REMARK    3  A    between atoms: N_5  and  C_6 
ROOT
HETATM    1  C   UNL     1     -44.679 -53.168  12.660  1.00  0.00     0.242 C 
HETATM    2  O   UNL     1     -44.379 -54.282  12.237  1.00  0.00    -0.271 OA
HETATM    3  N   UNL     1     -43.762 -52.142  12.777  1.00  0.00    -0.352 N 
HETATM    4  H   UNL     1     -44.039 -51.292  13.262  1.00  0.00     0.163 HD
ENDROOT
BRANCH   1   5
HETATM    5  C   UNL     1     -46.088 -52.816  13.132  1.00  0.00     0.197 C 
HETATM    6  C   UNL     1     -46.518 -51.418  12.696  1.00  0.00     0.044 C 
BRANCH   5   7
HETATM    7  N   UNL     1     -46.184 -52.975  14.572  1.00  0.00    -0.273 N 
HETATM    8  C   UNL     1     -46.761 -52.139  15.478  1.00  0.00     0.202 A 
HETATM    9  N   UNL     1     -46.578 -52.613  16.689  1.00  0.00    -0.346 N 
HETATM   10  C   UNL     1     -45.861 -53.755  16.470  1.00  0.00     0.198 A 
ATOM     11  HN  UNL     1     -46.894 -52.223  17.577  1.00  0.00     0.167 HD
HETATM   12  N   UNL     1     -45.569 -54.005  15.191  1.00  0.00    -0.292 N 
ATOM     13  HN  UNL     1     -45.027 -54.770  14.789  1.00  0.00     0.188 HD
ENDBRANCH   5   7
ENDBRANCH   1   5
BRANCH   3  14
HETATM   14  C   UNL     1     -42.358 -52.300  12.427  1.00  0.00     0.119 C 
HETATM   15  C   UNL     1     -41.725 -50.958  12.025  1.00  0.00     0.057 C 
HETATM   16  C   UNL     1     -40.461 -50.818  12.876  1.00  0.00     0.275 C 
HETATM   17  N   UNL     1     -40.195 -52.178  13.322  1.00  0.00     0.095 N 
HETATM   18  C   UNL     1     -39.301 -52.284  14.471  1.00  0.00     0.273 C 
HETATM   19  C   UNL     1     -41.513 -52.747  13.624  1.00  0.00     0.245 C 
HETATM   20  C   UNL     1     -39.110 -53.763  14.838  1.00  0.00     0.030 C 
HETATM   21  C   UNL     1     -40.438 -54.507  15.010  1.00  0.00     0.004 C 
HETATM   22  C   UNL     1     -41.381 -54.251  13.829  1.00  0.00     0.038 C 
ENDBRANCH   3  14
TORSDOF 3
ENDMDL
MODEL 7
REMARK VINA RESULT:      -5.7      3.678      5.505
REMARK  3 active torsions:
REMARK  status: ('A' for Active; 'I' for Inactive)
REMARK    1  A    between atoms: C_2  and  C_3 
REMARK    2  A    between atoms: C_2  and  N_15 
REMARK       I    between atoms: C_3  and  N_5 
REMARK    3  A    between atoms: N_5  and  C_6 
ROOT
HETATM    1  C   UNL     1     -41.321 -51.283  12.472  1.00  0.00     0.242 C 
HETATM    2  O   UNL     1     -41.234 -51.952  11.445  1.00  0.00    -0.271 OA
HETATM    3  N   UNL     1     -42.277 -51.521  13.440  1.00  0.00    -0.352 N 
HETATM    4  H   UNL     1     -42.386 -50.849  14.195  1.00  0.00     0.163 HD
ENDROOT
BRANCH   1   5
HETATM    5  C   UNL     1     -40.403 -50.099  12.767  1.00  0.00     0.197 C 
HETATM    6  C   UNL     1     -40.903 -48.801  12.140  1.00  0.00     0.044 C 
BRANCH   5   7
HETATM    7  N   UNL     1     -39.047 -50.405  12.345  1.00  0.00    -0.273 N 
HETATM    8  C   UNL     1     -38.056 -51.004  13.058  1.00  0.00     0.202 A 
HETATM    9  N   UNL     1     -36.958 -51.037  12.338  1.00  0.00    -0.346 N 
HETATM   10  C   UNL     1     -37.331 -50.423  11.176  1.00  0.00     0.198 A 
ATOM     11  HN  UNL     1     -36.048 -51.425  12.586  1.00  0.00     0.167 HD
HETATM   12  N   UNL     1     -38.594 -49.991  11.142  1.00  0.00    -0.292 N 
ATOM     13  HN  UNL     1     -39.085 -49.484  10.406  1.00  0.00     0.188 HD
ENDBRANCH   5   7
ENDBRANCH   1   5
BRANCH   3  14
HETATM   14  C   UNL     1     -43.276 -52.573  13.315  1.00  0.00     0.119 C 
HETATM   15  C   UNL     1     -42.739 -53.921  13.822  1.00  0.00     0.057 C 
HETATM   16  C   UNL     1     -43.777 -54.438  14.821  1.00  0.00     0.275 C 
HETATM   17  N   UNL     1     -44.975 -53.674  14.499  1.00  0.00     0.095 N 
HETATM   18  C   UNL     1     -45.993 -53.657  15.543  1.00  0.00     0.273 C 
HETATM   19  C   UNL     1     -44.496 -52.317  14.206  1.00  0.00     0.245 C 
HETATM   20  C   UNL     1     -47.192 -52.819  15.078  1.00  0.00     0.030 C 
HETATM   21  C   UNL     1     -46.785 -51.427  14.582  1.00  0.00     0.004 C 
HETATM   22  C   UNL     1     -45.625 -51.505  13.584  1.00  0.00     0.038 C 
ENDBRANCH   3  14
TORSDOF 3
ENDMDL
MODEL 8
REMARK VINA RESULT:      -5.6      2.136      6.930
REMARK  3 active torsions:
REMARK  status: ('A' for Active; 'I' for Inactive)
REMARK    1  A    between atoms: C_2  and  C_3 
REMARK    2  A    between atoms: C_2  and  N_15 
REMARK       I    between atoms: C_3  and  N_5 
REMARK    3  A    between atoms: N_5  and  C_6 
ROOT
HETATM    1  C   UNL     1     -41.760 -50.313  11.998  1.00  0.00     0.242 C 
HETATM    2  O   UNL     1     -40.570 -50.525  11.776  1.00  0.00    -0.271 OA
HETATM    3  N   UNL     1     -42.439 -49.236  11.463  1.00  0.00    -0.352 N 
HETATM    4  H   UNL     1     -43.380 -49.038  11.794  1.00  0.00     0.163 HD
ENDROOT
BRANCH   1   5
HETATM    5  C   UNL     1     -42.601 -51.200  12.912  1.00  0.00     0.197 C 
HETATM    6  C   UNL     1     -43.048 -50.477  14.179  1.00  0.00     0.044 C 
BRANCH   5   7
HETATM    7  N   UNL     1     -41.876 -52.419  13.226  1.00  0.00    -0.273 N 
HETATM    8  C   UNL     1     -41.353 -52.807  14.421  1.00  0.00     0.202 A 
HETATM    9  N   UNL     1     -40.716 -53.946  14.270  1.00  0.00    -0.346 N 
HETATM   10  C   UNL     1     -40.869 -54.213  12.939  1.00  0.00     0.198 A 
ATOM     11  HN  UNL     1     -40.226 -54.497  14.976  1.00  0.00     0.167 HD
HETATM   12  N   UNL     1     -41.547 -53.292  12.250  1.00  0.00    -0.292 N 
ATOM     13  HN  UNL     1     -41.760 -53.257  11.254  1.00  0.00     0.188 HD
ENDBRANCH   5   7
ENDBRANCH   1   5
BRANCH   3  14
HETATM   14  C   UNL     1     -41.796 -48.248  10.608  1.00  0.00     0.119 C 
HETATM   15  C   UNL     1     -42.779 -47.673   9.576  1.00  0.00     0.057 C 
HETATM   16  C   UNL     1     -42.681 -46.151   9.705  1.00  0.00     0.275 C 
HETATM   17  N   UNL     1     -41.413 -45.945  10.391  1.00  0.00     0.095 N 
HETATM   18  C   UNL     1     -41.255 -44.633  11.009  1.00  0.00     0.273 C 
HETATM   19  C   UNL     1     -41.342 -47.014  11.395  1.00  0.00     0.245 C 
HETATM   20  C   UNL     1     -39.884 -44.551  11.697  1.00  0.00     0.030 C 
HETATM   21  C   UNL     1     -39.629 -45.724  12.650  1.00  0.00     0.004 C 
HETATM   22  C   UNL     1     -39.936 -47.067  11.979  1.00  0.00     0.038 C 
ENDBRANCH   3  14
TORSDOF 3
ENDMDL
MODEL 9
REMARK VINA RESULT:      -5.5      2.056      3.477
REMARK  3 active torsions:
REMARK  status: ('A' for Active; 'I' for Inactive)
REMARK    1  A    between atoms: C_2  and  C_3 
REMARK    2  A    between atoms: C_2  and  N_15 
REMARK       I    between atoms: C_3  and  N_5 
REMARK    3  A    between atoms: N_5  and  C_6 
ROOT
HETATM    1  C   UNL     1     -40.770 -51.004  12.250  1.00  0.00     0.242 C 
HETATM    2  O   UNL     1     -40.807 -50.938  13.477  1.00  0.00    -0.271 OA
HETATM    3  N   UNL     1     -41.071 -52.158  11.555  1.00  0.00    -0.352 N 
HETATM    4  H   UNL     1     -40.887 -52.188  10.556  1.00  0.00     0.163 HD
ENDROOT
BRANCH   1   5
HETATM    5  C   UNL     1     -40.356 -49.825  11.373  1.00  0.00     0.197 C 
HETATM    6  C   UNL     1     -39.239 -48.995  11.997  1.00  0.00     0.044 C 
BRANCH   5   7
HETATM    7  N   UNL     1     -41.515 -49.006  11.061  1.00  0.00    -0.273 N 
HETATM    8  C   UNL     1     -42.633 -48.805  11.810  1.00  0.00     0.202 A 
HETATM    9  N   UNL     1     -43.475 -48.048  11.144  1.00  0.00    -0.346 N 
HETATM   10  C   UNL     1     -42.821 -47.818   9.967  1.00  0.00     0.198 A 
ATOM     11  HN  UNL     1     -44.394 -47.714  11.435  1.00  0.00     0.167 HD
HETATM   12  N   UNL     1     -41.628 -48.409   9.856  1.00  0.00    -0.292 N 
ATOM     13  HN  UNL     1     -40.977 -48.408   9.071  1.00  0.00     0.188 HD
ENDBRANCH   5   7
ENDBRANCH   1   5
BRANCH   3  14
HETATM   14  C   UNL     1     -41.437 -53.402  12.218  1.00  0.00     0.119 C 
HETATM   15  C   UNL     1     -40.372 -53.828  13.242  1.00  0.00     0.057 C 
HETATM   16  C   UNL     1     -41.125 -54.079  14.551  1.00  0.00     0.275 C 
HETATM   17  N   UNL     1     -42.508 -54.247  14.125  1.00  0.00     0.095 N 
HETATM   18  C   UNL     1     -43.499 -54.090  15.183  1.00  0.00     0.273 C 
HETATM   19  C   UNL     1     -42.705 -53.252  13.064  1.00  0.00     0.245 C 
HETATM   20  C   UNL     1     -44.907 -54.287  14.601  1.00  0.00     0.030 C 
HETATM   21  C   UNL     1     -45.166 -53.412  13.370  1.00  0.00     0.004 C 
HETATM   22  C   UNL     1     -44.025 -53.525  12.353  1.00  0.00     0.038 C 
ENDBRANCH   3  14
TORSDOF 3
ENDMDL
