MODEL 1
REMARK VINA RESULT:      -6.2      0.000      0.000
REMARK  7 active torsions:
REMARK  status: ('A' for Active; 'I' for Inactive)
REMARK    1  A    between atoms: C_2  and  C_4 
REMARK    2  A    between atoms: C_4  and  C_5 
REMARK    3  A    between atoms: C_5  and  S_6 
REMARK    4  A    between atoms: S_6  and  N_9 
REMARK    5  A    between atoms: N_9  and  C_10 
REMARK    6  A    between atoms: C_10  and  C_11 
REMARK    7  A    between atoms: C_17  and  N_18 
ROOT
HETATM    1  C   UNL     1     -40.527 -50.261  12.171  1.00  0.00    -0.001 C 
HETATM    2  C   UNL     1     -39.513 -51.022  12.778  1.00  0.00     0.013 C 
HETATM    3  C   UNL     1     -38.170 -50.811  12.524  1.00  0.00     0.018 C 
HETATM    4  C   UNL     1     -37.851 -49.767  11.704  1.00  0.00     0.089 C 
HETATM    5  N   UNL     1     -38.769 -48.907  11.214  1.00  0.00    -0.356 N 
ATOM      6  HN  UNL     1     -38.477 -48.113  10.645  1.00  0.00     0.166 HD
HETATM    7  C   UNL     1     -40.091 -49.109  11.487  1.00  0.00     0.090 C 
ENDROOT
BRANCH   1   8
HETATM    8  C   UNL     1     -41.963 -50.681  12.420  1.00  0.00     0.173 C 
BRANCH   8   9
HETATM    9  N   UNL     1     -42.384 -52.032  11.941  1.00  0.00    -0.315 N 
HETATM   10  H   UNL     1     -42.689 -52.069  10.972  1.00  0.00     0.172 HD
BRANCH   9  11
HETATM   11  S   UNL     1     -43.006 -53.276  12.885  1.00  0.00     0.226 S 
HETATM   12  O   UNL     1     -41.962 -54.177  13.305  1.00  0.00    -0.206 OA
HETATM   13  O   UNL     1     -44.175 -53.758  12.183  1.00  0.00    -0.206 OA
BRANCH  11  14
HETATM   14  C   UNL     1     -43.599 -52.470  14.388  1.00  0.00     0.163 C 
BRANCH  14  15
HETATM   15  C   UNL     1     -45.102 -52.725  14.540  1.00  0.00     0.020 C 
BRANCH  15  16
HETATM   16  C   UNL     1     -46.010 -51.497  14.365  1.00  0.00    -0.022 C 
HETATM   17  C   UNL     1     -46.684 -51.551  12.986  1.00  0.00     0.009 C 
HETATM   18  C   UNL     1     -47.082 -51.403  15.449  1.00  0.00     0.009 C 
ENDBRANCH  15  16
ENDBRANCH  14  15
ENDBRANCH  11  14
ENDBRANCH   9  11
ENDBRANCH   8   9
ENDBRANCH   1   8
BRANCH   7  19
HETATM   19  N   UNL     1     -40.945 -48.003  11.280  1.00  0.00    -0.265 NA
HETATM   20  C   UNL     1     -40.155 -46.740  11.120  1.00  0.00     0.123 C 
HETATM   21  C   UNL     1     -41.103 -45.535  11.049  1.00  0.00     0.182 C 
HETATM   22  O   UNL     1     -42.052 -45.681   9.977  1.00  0.00    -0.389 OA
HETATM   23  C   UNL     1     -42.789 -46.908  10.120  1.00  0.00     0.182 C 
HETATM   24  C   UNL     1     -41.856 -48.140  10.125  1.00  0.00     0.123 C 
ENDBRANCH   7  19
TORSDOF 7
ENDMDL
MODEL 2
REMARK VINA RESULT:      -6.1      2.095      2.956
REMARK  7 active torsions:
REMARK  status: ('A' for Active; 'I' for Inactive)
REMARK    1  A    between atoms: C_2  and  C_4 
REMARK    2  A    between atoms: C_4  and  C_5 
REMARK    3  A    between atoms: C_5  and  S_6 
REMARK    4  A    between atoms: S_6  and  N_9 
REMARK    5  A    between atoms: N_9  and  C_10 
REMARK    6  A    between atoms: C_10  and  C_11 
REMARK    7  A    between atoms: C_17  and  N_18 
ROOT
HETATM    1  C   UNL     1     -42.068 -49.690  12.501  1.00  0.00    -0.001 C 
HETATM    2  C   UNL     1     -41.063 -50.447  13.129  1.00  0.00     0.013 C 
HETATM    3  C   UNL     1     -39.812 -50.634  12.570  1.00  0.00     0.018 C 
HETATM    4  C   UNL     1     -39.554 -49.983  11.398  1.00  0.00     0.089 C 
HETATM    5  N   UNL     1     -40.421 -49.121  10.826  1.00  0.00    -0.356 N 
ATOM      6  HN  UNL     1     -40.164 -48.621   9.975  1.00  0.00     0.166 HD
HETATM    7  C   UNL     1     -41.646 -48.925  11.395  1.00  0.00     0.090 C 
ENDROOT
BRANCH   1   8
HETATM    8  C   UNL     1     -43.441 -49.677  13.145  1.00  0.00     0.173 C 
BRANCH   8   9
HETATM    9  N   UNL     1     -44.406 -50.745  12.744  1.00  0.00    -0.315 N 
HETATM   10  H   UNL     1     -44.782 -50.654  11.804  1.00  0.00     0.172 HD
BRANCH   9  11
HETATM   11  S   UNL     1     -45.389 -51.638  13.774  1.00  0.00     0.226 S 
HETATM   12  O   UNL     1     -46.782 -51.354  13.533  1.00  0.00    -0.206 OA
HETATM   13  O   UNL     1     -44.812 -51.496  15.093  1.00  0.00    -0.206 OA
BRANCH  11  14
HETATM   14  C   UNL     1     -45.142 -53.358  13.283  1.00  0.00     0.163 C 
BRANCH  14  15
HETATM   15  C   UNL     1     -43.736 -53.520  12.696  1.00  0.00     0.020 C 
BRANCH  15  16
HETATM   16  C   UNL     1     -42.612 -53.779  13.713  1.00  0.00    -0.022 C 
HETATM   17  C   UNL     1     -43.059 -54.863  14.704  1.00  0.00     0.009 C 
HETATM   18  C   UNL     1     -41.308 -54.212  13.044  1.00  0.00     0.009 C 
ENDBRANCH  15  16
ENDBRANCH  14  15
ENDBRANCH  11  14
ENDBRANCH   9  11
ENDBRANCH   8   9
ENDBRANCH   1   8
BRANCH   7  19
HETATM   19  N   UNL     1     -42.344 -47.766  10.988  1.00  0.00    -0.265 NA
HETATM   20  C   UNL     1     -41.541 -46.532  11.272  1.00  0.00     0.123 C 
HETATM   21  C   UNL     1     -42.377 -45.283  10.964  1.00  0.00     0.182 C 
HETATM   22  O   UNL     1     -42.839 -45.287   9.601  1.00  0.00    -0.389 OA
HETATM   23  C   UNL     1     -43.584 -46.486   9.326  1.00  0.00     0.182 C 
HETATM   24  C   UNL     1     -42.738 -47.757   9.564  1.00  0.00     0.123 C 
ENDBRANCH   7  19
TORSDOF 7
ENDMDL
MODEL 3
REMARK VINA RESULT:      -5.8      2.267      3.833
REMARK  7 active torsions:
REMARK  status: ('A' for Active; 'I' for Inactive)
REMARK    1  A    between atoms: C_2  and  C_4 
REMARK    2  A    between atoms: C_4  and  C_5 
REMARK    3  A    between atoms: C_5  and  S_6 
REMARK    4  A    between atoms: S_6  and  N_9 
REMARK    5  A    between atoms: N_9  and  C_10 
REMARK    6  A    between atoms: C_10  and  C_11 
REMARK    7  A    between atoms: C_17  and  N_18 
ROOT
HETATM    1  C   UNL     1     -41.798 -48.777  11.850  1.00  0.00    -0.001 C 
HETATM    2  C   UNL     1     -42.472 -47.920  10.963  1.00  0.00     0.013 C 
HETATM    3  C   UNL     1     -41.884 -46.789  10.426  1.00  0.00     0.018 C 
HETATM    4  C   UNL     1     -40.572 -46.568  10.734  1.00  0.00     0.089 C 
HETATM    5  N   UNL     1     -39.828 -47.434  11.455  1.00  0.00    -0.356 N 
ATOM      6  HN  UNL     1     -38.838 -47.249  11.618  1.00  0.00     0.166 HD
HETATM    7  C   UNL     1     -40.410 -48.559  11.962  1.00  0.00     0.090 C 
ENDROOT
BRANCH   1   8
HETATM    8  C   UNL     1     -42.595 -49.903  12.479  1.00  0.00     0.173 C 
BRANCH   8   9
HETATM    9  N   UNL     1     -42.286 -51.299  12.043  1.00  0.00    -0.315 N 
HETATM   10  H   UNL     1     -42.844 -51.639  11.264  1.00  0.00     0.172 HD
BRANCH   9  11
HETATM   11  S   UNL     1     -41.658 -52.527  13.003  1.00  0.00     0.226 S 
HETATM   12  O   UNL     1     -41.576 -52.114  14.382  1.00  0.00    -0.206 OA
HETATM   13  O   UNL     1     -40.496 -53.024  12.299  1.00  0.00    -0.206 OA
BRANCH  11  14
HETATM   14  C   UNL     1     -42.896 -53.840  12.952  1.00  0.00     0.163 C 
BRANCH  14  15
HETATM   15  C   UNL     1     -44.229 -53.262  12.464  1.00  0.00     0.020 C 
BRANCH  15  16
HETATM   16  C   UNL     1     -45.188 -52.773  13.562  1.00  0.00    -0.022 C 
HETATM   17  C   UNL     1     -46.143 -51.723  12.976  1.00  0.00     0.009 C 
HETATM   18  C   UNL     1     -46.002 -53.911  14.176  1.00  0.00     0.009 C 
ENDBRANCH  15  16
ENDBRANCH  14  15
ENDBRANCH  11  14
ENDBRANCH   9  11
ENDBRANCH   8   9
ENDBRANCH   1   8
BRANCH   7  19
HETATM   19  N   UNL     1     -39.530 -49.587  12.367  1.00  0.00    -0.265 NA
HETATM   20  C   UNL     1     -38.260 -49.548  11.570  1.00  0.00     0.123 C 
HETATM   21  C   UNL     1     -37.386 -50.760  11.919  1.00  0.00     0.182 C 
HETATM   22  O   UNL     1     -37.102 -50.810  13.329  1.00  0.00    -0.389 OA
HETATM   23  C   UNL     1     -38.323 -50.820  14.089  1.00  0.00     0.182 C 
HETATM   24  C   UNL     1     -39.188 -49.571  13.804  1.00  0.00     0.123 C 
ENDBRANCH   7  19
TORSDOF 7
ENDMDL
MODEL 4
REMARK VINA RESULT:      -5.8      3.041      4.426
REMARK  7 active torsions:
REMARK  status: ('A' for Active; 'I' for Inactive)
REMARK    1  A    between atoms: C_2  and  C_4 
REMARK    2  A    between atoms: C_4  and  C_5 
REMARK    3  A    between atoms: C_5  and  S_6 
REMARK    4  A    between atoms: S_6  and  N_9 
REMARK    5  A    between atoms: N_9  and  C_10 
REMARK    6  A    between atoms: C_10  and  C_11 
REMARK    7  A    between atoms: C_17  and  N_18 
ROOT
HETATM    1  C   UNL     1     -41.271 -53.928  15.497  1.00  0.00    -0.001 C 
HETATM    2  C   UNL     1     -40.796 -54.844  16.450  1.00  0.00     0.013 C 
HETATM    3  C   UNL     1     -39.618 -55.550  16.283  1.00  0.00     0.018 C 
HETATM    4  C   UNL     1     -38.878 -55.265  15.172  1.00  0.00     0.089 C 
HETATM    5  N   UNL     1     -39.203 -54.287  14.300  1.00  0.00    -0.356 N 
ATOM      6  HN  UNL     1     -38.593 -54.079  13.510  1.00  0.00     0.166 HD
HETATM    7  C   UNL     1     -40.356 -53.580  14.484  1.00  0.00     0.090 C 
ENDROOT
BRANCH   1   8
HETATM    8  C   UNL     1     -42.643 -53.324  15.729  1.00  0.00     0.173 C 
BRANCH   8   9
HETATM    9  N   UNL     1     -43.572 -53.243  14.562  1.00  0.00    -0.315 N 
HETATM   10  H   UNL     1     -43.924 -52.312  14.356  1.00  0.00     0.172 HD
BRANCH   9  11
HETATM   11  S   UNL     1     -44.563 -54.474  13.990  1.00  0.00     0.226 S 
HETATM   12  O   UNL     1     -44.294 -55.714  14.674  1.00  0.00    -0.206 OA
HETATM   13  O   UNL     1     -44.509 -54.387  12.547  1.00  0.00    -0.206 OA
BRANCH  11  14
HETATM   14  C   UNL     1     -46.235 -53.993  14.476  1.00  0.00     0.163 C 
BRANCH  14  15
HETATM   15  C   UNL     1     -46.174 -53.203  15.787  1.00  0.00     0.020 C 
BRANCH  15  16
HETATM   16  C   UNL     1     -46.499 -51.704  15.680  1.00  0.00    -0.022 C 
HETATM   17  C   UNL     1     -46.777 -51.343  14.214  1.00  0.00     0.009 C 
HETATM   18  C   UNL     1     -47.700 -51.305  16.536  1.00  0.00     0.009 C 
ENDBRANCH  15  16
ENDBRANCH  14  15
ENDBRANCH  11  14
ENDBRANCH   9  11
ENDBRANCH   8   9
ENDBRANCH   1   8
BRANCH   7  19
HETATM   19  N   UNL     1     -40.453 -52.355  13.787  1.00  0.00    -0.265 NA
HETATM   20  C   UNL     1     -39.173 -51.581  13.888  1.00  0.00     0.123 C 
HETATM   21  C   UNL     1     -39.349 -50.193  13.257  1.00  0.00     0.182 C 
HETATM   22  O   UNL     1     -39.778 -50.294  11.886  1.00  0.00    -0.389 OA
HETATM   23  C   UNL     1     -40.992 -51.061  11.793  1.00  0.00     0.182 C 
HETATM   24  C   UNL     1     -40.815 -52.487  12.361  1.00  0.00     0.123 C 
ENDBRANCH   7  19
TORSDOF 7
ENDMDL
MODEL 5
REMARK VINA RESULT:      -5.8      2.465      4.353
REMARK  7 active torsions:
REMARK  status: ('A' for Active; 'I' for Inactive)
REMARK    1  A    between atoms: C_2  and  C_4 
REMARK    2  A    between atoms: C_4  and  C_5 
REMARK    3  A    between atoms: C_5  and  S_6 
REMARK    4  A    between atoms: S_6  and  N_9 
REMARK    5  A    between atoms: N_9  and  C_10 
REMARK    6  A    between atoms: C_10  and  C_11 
REMARK    7  A    between atoms: C_17  and  N_18 
ROOT
HETATM    1  C   UNL     1     -42.632 -49.502  12.644  1.00  0.00    -0.001 C 
HETATM    2  C   UNL     1     -42.965 -48.534  11.681  1.00  0.00     0.013 C 
HETATM    3  C   UNL     1     -42.013 -47.887  10.915  1.00  0.00     0.018 C 
HETATM    4  C   UNL     1     -40.716 -48.283  11.074  1.00  0.00     0.089 C 
HETATM    5  N   UNL     1     -40.351 -49.311  11.869  1.00  0.00    -0.356 N 
ATOM      6  HN  UNL     1     -39.375 -49.601  11.919  1.00  0.00     0.166 HD
HETATM    7  C   UNL     1     -41.300 -49.959  12.606  1.00  0.00     0.090 C 
ENDROOT
BRANCH   1   8
HETATM    8  C   UNL     1     -43.751 -50.035  13.518  1.00  0.00     0.173 C 
BRANCH   8   9
HETATM    9  N   UNL     1     -44.660 -51.065  12.930  1.00  0.00    -0.315 N 
HETATM   10  H   UNL     1     -45.505 -50.698  12.500  1.00  0.00     0.172 HD
BRANCH   9  11
HETATM   11  S   UNL     1     -44.801 -52.667  13.420  1.00  0.00     0.226 S 
HETATM   12  O   UNL     1     -43.878 -52.964  14.487  1.00  0.00    -0.206 OA
HETATM   13  O   UNL     1     -44.819 -53.451  12.205  1.00  0.00    -0.206 OA
BRANCH  11  14
HETATM   14  C   UNL     1     -46.451 -52.792  14.142  1.00  0.00     0.163 C 
BRANCH  14  15
HETATM   15  C   UNL     1     -46.840 -51.443  14.754  1.00  0.00     0.020 C 
BRANCH  15  16
HETATM   16  C   UNL     1     -46.687 -51.331  16.280  1.00  0.00    -0.022 C 
HETATM   17  C   UNL     1     -46.501 -52.732  16.880  1.00  0.00     0.009 C 
HETATM   18  C   UNL     1     -45.510 -50.446  16.686  1.00  0.00     0.009 C 
ENDBRANCH  15  16
ENDBRANCH  14  15
ENDBRANCH  11  14
ENDBRANCH   9  11
ENDBRANCH   8   9
ENDBRANCH   1   8
BRANCH   7  19
HETATM   19  N   UNL     1     -40.938 -51.229  13.108  1.00  0.00    -0.265 NA
HETATM   20  C   UNL     1     -41.172 -52.295  12.080  1.00  0.00     0.123 C 
HETATM   21  C   UNL     1     -40.918 -53.678  12.695  1.00  0.00     0.182 C 
HETATM   22  O   UNL     1     -39.587 -53.773  13.234  1.00  0.00    -0.389 OA
HETATM   23  C   UNL     1     -39.359 -52.731  14.199  1.00  0.00     0.182 C 
HETATM   24  C   UNL     1     -39.542 -51.326  13.582  1.00  0.00     0.123 C 
ENDBRANCH   7  19
TORSDOF 7
ENDMDL
MODEL 6
REMARK VINA RESULT:      -5.7      2.238      2.991
REMARK  7 active torsions:
REMARK  status: ('A' for Active; 'I' for Inactive)
REMARK    1  A    between atoms: C_2  and  C_4 
REMARK    2  A    between atoms: C_4  and  C_5 
REMARK    3  A    between atoms: C_5  and  S_6 
REMARK    4  A    between atoms: S_6  and  N_9 
REMARK    5  A    between atoms: N_9  and  C_10 
REMARK    6  A    between atoms: C_10  and  C_11 
REMARK    7  A    between atoms: C_17  and  N_18 
ROOT
HETATM    1  C   UNL     1     -38.562 -48.930  12.807  1.00  0.00    -0.001 C 
HETATM    2  C   UNL     1     -37.699 -48.694  13.891  1.00  0.00     0.013 C 
HETATM    3  C   UNL     1     -37.634 -47.475  14.541  1.00  0.00     0.018 C 
HETATM    4  C   UNL     1     -38.510 -46.509  14.134  1.00  0.00     0.089 C 
HETATM    5  N   UNL     1     -39.465 -46.724  13.204  1.00  0.00    -0.356 N 
ATOM      6  HN  UNL     1     -40.127 -45.985  12.968  1.00  0.00     0.166 HD
HETATM    7  C   UNL     1     -39.537 -47.937  12.583  1.00  0.00     0.090 C 
ENDROOT
BRANCH   1   8
HETATM    8  C   UNL     1     -38.439 -50.261  12.089  1.00  0.00     0.173 C 
BRANCH   8   9
HETATM    9  N   UNL     1     -39.697 -51.015  11.807  1.00  0.00    -0.315 N 
HETATM   10  H   UNL     1     -40.294 -50.605  11.093  1.00  0.00     0.172 HD
BRANCH   9  11
HETATM   11  S   UNL     1     -40.525 -52.010  12.878  1.00  0.00     0.226 S 
HETATM   12  O   UNL     1     -40.904 -51.288  14.067  1.00  0.00    -0.206 OA
HETATM   13  O   UNL     1     -39.756 -53.232  12.958  1.00  0.00    -0.206 OA
BRANCH  11  14
HETATM   14  C   UNL     1     -42.069 -52.423  12.037  1.00  0.00     0.163 C 
BRANCH  14  15
HETATM   15  C   UNL     1     -43.232 -52.308  13.027  1.00  0.00     0.020 C 
BRANCH  15  16
HETATM   16  C   UNL     1     -44.545 -52.986  12.599  1.00  0.00    -0.022 C 
HETATM   17  C   UNL     1     -44.680 -54.337  13.315  1.00  0.00     0.009 C 
HETATM   18  C   UNL     1     -45.771 -52.127  12.901  1.00  0.00     0.009 C 
ENDBRANCH  15  16
ENDBRANCH  14  15
ENDBRANCH  11  14
ENDBRANCH   9  11
ENDBRANCH   8   9
ENDBRANCH   1   8
BRANCH   7  19
HETATM   19  N   UNL     1     -40.750 -48.227  11.921  1.00  0.00    -0.265 NA
HETATM   20  C   UNL     1     -41.897 -48.232  12.887  1.00  0.00     0.123 C 
HETATM   21  C   UNL     1     -43.176 -48.697  12.177  1.00  0.00     0.182 C 
HETATM   22  O   UNL     1     -43.472 -47.867  11.039  1.00  0.00    -0.389 OA
HETATM   23  C   UNL     1     -42.358 -47.843  10.129  1.00  0.00     0.182 C 
HETATM   24  C   UNL     1     -41.075 -47.312  10.807  1.00  0.00     0.123 C 
ENDBRANCH   7  19
TORSDOF 7
ENDMDL
MODEL 7
REMARK VINA RESULT:      -5.6      1.899      3.056
REMARK  7 active torsions:
REMARK  status: ('A' for Active; 'I' for Inactive)
REMARK    1  A    between atoms: C_2  and  C_4 
REMARK    2  A    between atoms: C_4  and  C_5 
REMARK    3  A    between atoms: C_5  and  S_6 
REMARK    4  A    between atoms: S_6  and  N_9 
REMARK    5  A    between atoms: N_9  and  C_10 
REMARK    6  A    between atoms: C_10  and  C_11 
REMARK    7  A    between atoms: C_17  and  N_18 
ROOT
HETATM    1  C   UNL     1     -40.620 -49.764  12.717  1.00  0.00    -0.001 C 
HETATM    2  C   UNL     1     -39.581 -50.473  13.343  1.00  0.00     0.013 C 
HETATM    3  C   UNL     1     -38.289 -50.491  12.852  1.00  0.00     0.018 C 
HETATM    4  C   UNL     1     -38.033 -49.718  11.755  1.00  0.00     0.089 C 
HETATM    5  N   UNL     1     -38.950 -48.896  11.202  1.00  0.00    -0.356 N 
ATOM      6  HN  UNL     1     -38.697 -48.302  10.413  1.00  0.00     0.166 HD
HETATM    7  C   UNL     1     -40.217 -48.868  11.706  1.00  0.00     0.090 C 
ENDROOT
BRANCH   1   8
HETATM    8  C   UNL     1     -42.022 -49.937  13.271  1.00  0.00     0.173 C 
BRANCH   8   9
HETATM    9  N   UNL     1     -42.923 -50.914  12.587  1.00  0.00    -0.315 N 
HETATM   10  H   UNL     1     -43.884 -50.604  12.474  1.00  0.00     0.172 HD
BRANCH   9  11
HETATM   11  S   UNL     1     -42.752 -52.585  12.570  1.00  0.00     0.226 S 
HETATM   12  O   UNL     1     -41.545 -52.974  11.883  1.00  0.00    -0.206 OA
HETATM   13  O   UNL     1     -44.041 -53.110  12.176  1.00  0.00    -0.206 OA
BRANCH  11  14
HETATM   14  C   UNL     1     -42.509 -53.049  14.298  1.00  0.00     0.163 C 
BRANCH  14  15
HETATM   15  C   UNL     1     -41.714 -54.357  14.365  1.00  0.00     0.020 C 
BRANCH  15  16
HETATM   16  C   UNL     1     -40.334 -54.267  15.037  1.00  0.00    -0.022 C 
HETATM   17  C   UNL     1     -40.237 -55.322  16.149  1.00  0.00     0.009 C 
HETATM   18  C   UNL     1     -39.188 -54.468  14.047  1.00  0.00     0.009 C 
ENDBRANCH  15  16
ENDBRANCH  14  15
ENDBRANCH  11  14
ENDBRANCH   9  11
ENDBRANCH   8   9
ENDBRANCH   1   8
BRANCH   7  19
HETATM   19  N   UNL     1     -41.004 -47.750  11.352  1.00  0.00    -0.265 NA
HETATM   20  C   UNL     1     -40.140 -46.561  11.056  1.00  0.00     0.123 C 
HETATM   21  C   UNL     1     -41.016 -45.323  10.822  1.00  0.00     0.182 C 
HETATM   22  O   UNL     1     -41.960 -45.545   9.758  1.00  0.00    -0.389 OA
HETATM   23  C   UNL     1     -42.767 -46.702  10.034  1.00  0.00     0.182 C 
HETATM   24  C   UNL     1     -41.908 -47.975  10.205  1.00  0.00     0.123 C 
ENDBRANCH   7  19
TORSDOF 7
ENDMDL
MODEL 8
REMARK VINA RESULT:      -5.6      3.369      7.231
REMARK  7 active torsions:
REMARK  status: ('A' for Active; 'I' for Inactive)
REMARK    1  A    between atoms: C_2  and  C_4 
REMARK    2  A    between atoms: C_4  and  C_5 
REMARK    3  A    between atoms: C_5  and  S_6 
REMARK    4  A    between atoms: S_6  and  N_9 
REMARK    5  A    between atoms: N_9  and  C_10 
REMARK    6  A    between atoms: C_10  and  C_11 
REMARK    7  A    between atoms: C_17  and  N_18 
ROOT
HETATM    1  C   UNL     1     -41.526 -53.389  13.467  1.00  0.00    -0.001 C 
HETATM    2  C   UNL     1     -40.237 -53.931  13.317  1.00  0.00     0.013 C 
HETATM    3  C   UNL     1     -39.566 -54.556  14.352  1.00  0.00     0.018 C 
HETATM    4  C   UNL     1     -40.241 -54.700  15.530  1.00  0.00     0.089 C 
HETATM    5  N   UNL     1     -41.532 -54.340  15.689  1.00  0.00    -0.356 N 
ATOM      6  HN  UNL     1     -42.009 -54.511  16.574  1.00  0.00     0.166 HD
HETATM    7  C   UNL     1     -42.195 -53.743  14.656  1.00  0.00     0.090 C 
ENDROOT
BRANCH   1   8
HETATM    8  C   UNL     1     -42.097 -52.606  12.301  1.00  0.00     0.173 C 
BRANCH   8   9
HETATM    9  N   UNL     1     -41.155 -51.765  11.502  1.00  0.00    -0.315 N 
HETATM   10  H   UNL     1     -40.589 -52.276  10.829  1.00  0.00     0.172 HD
BRANCH   9  11
HETATM   11  S   UNL     1     -40.474 -50.304  11.976  1.00  0.00     0.226 S 
HETATM   12  O   UNL     1     -40.987 -49.887  13.258  1.00  0.00    -0.206 OA
HETATM   13  O   UNL     1     -40.552 -49.438  10.820  1.00  0.00    -0.206 OA
BRANCH  11  14
HETATM   14  C   UNL     1     -38.724 -50.666  12.237  1.00  0.00     0.163 C 
BRANCH  14  15
HETATM   15  C   UNL     1     -38.135 -49.641  13.212  1.00  0.00     0.020 C 
BRANCH  15  16
HETATM   16  C   UNL     1     -37.443 -50.222  14.456  1.00  0.00    -0.022 C 
HETATM   17  C   UNL     1     -36.951 -49.076  15.351  1.00  0.00     0.009 C 
HETATM   18  C   UNL     1     -38.364 -51.136  15.263  1.00  0.00     0.009 C 
ENDBRANCH  15  16
ENDBRANCH  14  15
ENDBRANCH  11  14
ENDBRANCH   9  11
ENDBRANCH   8   9
ENDBRANCH   1   8
BRANCH   7  19
HETATM   19  N   UNL     1     -43.605 -53.736  14.742  1.00  0.00    -0.265 NA
HETATM   20  C   UNL     1     -44.182 -54.985  14.145  1.00  0.00     0.123 C 
HETATM   21  C   UNL     1     -45.713 -54.888  14.111  1.00  0.00     0.182 C 
HETATM   22  O   UNL     1     -46.251 -54.656  15.426  1.00  0.00    -0.389 OA
HETATM   23  C   UNL     1     -45.673 -53.472  16.004  1.00  0.00     0.182 C 
HETATM   24  C   UNL     1     -44.135 -53.577  16.111  1.00  0.00     0.123 C 
ENDBRANCH   7  19
TORSDOF 7
ENDMDL
MODEL 9
REMARK VINA RESULT:      -5.5      3.316      5.364
REMARK  7 active torsions:
REMARK  status: ('A' for Active; 'I' for Inactive)
REMARK    1  A    between atoms: C_2  and  C_4 
REMARK    2  A    between atoms: C_4  and  C_5 
REMARK    3  A    between atoms: C_5  and  S_6 
REMARK    4  A    between atoms: S_6  and  N_9 
REMARK    5  A    between atoms: N_9  and  C_10 
REMARK    6  A    between atoms: C_10  and  C_11 
REMARK    7  A    between atoms: C_17  and  N_18 
ROOT
HETATM    1  C   UNL     1     -42.382 -47.494  10.316  1.00  0.00    -0.001 C 
HETATM    2  C   UNL     1     -42.907 -47.759   9.040  1.00  0.00     0.013 C 
HETATM    3  C   UNL     1     -43.746 -46.878   8.381  1.00  0.00     0.018 C 
HETATM    4  C   UNL     1     -43.991 -45.682   8.993  1.00  0.00     0.089 C 
HETATM    5  N   UNL     1     -43.395 -45.307  10.144  1.00  0.00    -0.356 N 
ATOM      6  HN  UNL     1     -43.573 -44.383  10.538  1.00  0.00     0.166 HD
HETATM    7  C   UNL     1     -42.551 -46.173  10.777  1.00  0.00     0.090 C 
ENDROOT
BRANCH   1   8
HETATM    8  C   UNL     1     -41.591 -48.598  10.991  1.00  0.00     0.173 C 
BRANCH   8   9
HETATM    9  N   UNL     1     -42.358 -49.665  11.703  1.00  0.00    -0.315 N 
HETATM   10  H   UNL     1     -43.270 -49.381  12.048  1.00  0.00     0.172 HD
BRANCH   9  11
HETATM   11  S   UNL     1     -41.708 -50.976  12.530  1.00  0.00     0.226 S 
HETATM   12  O   UNL     1     -40.940 -51.816  11.646  1.00  0.00    -0.206 OA
HETATM   13  O   UNL     1     -42.789 -51.515  13.326  1.00  0.00    -0.206 OA
BRANCH  11  14
HETATM   14  C   UNL     1     -40.521 -50.258  13.687  1.00  0.00     0.163 C 
BRANCH  14  15
HETATM   15  C   UNL     1     -39.111 -50.741  13.330  1.00  0.00     0.020 C 
BRANCH  15  16
HETATM   16  C   UNL     1     -38.102 -49.642  12.956  1.00  0.00    -0.022 C 
HETATM   17  C   UNL     1     -37.726 -49.777  11.474  1.00  0.00     0.009 C 
HETATM   18  C   UNL     1     -38.645 -48.238  13.216  1.00  0.00     0.009 C 
ENDBRANCH  15  16
ENDBRANCH  14  15
ENDBRANCH  11  14
ENDBRANCH   9  11
ENDBRANCH   8   9
ENDBRANCH   1   8
BRANCH   7  19
HETATM   19  N   UNL     1     -41.685 -45.608  11.739  1.00  0.00    -0.265 NA
HETATM   20  C   UNL     1     -40.462 -45.038  11.087  1.00  0.00     0.123 C 
HETATM   21  C   UNL     1     -39.469 -44.568  12.159  1.00  0.00     0.182 C 
HETATM   22  O   UNL     1     -40.072 -43.604  13.042  1.00  0.00    -0.389 OA
HETATM   23  C   UNL     1     -41.260 -44.147  13.644  1.00  0.00     0.182 C 
HETATM   24  C   UNL     1     -42.303 -44.563  12.582  1.00  0.00     0.123 C 
ENDBRANCH   7  19
TORSDOF 7
ENDMDL
