MODEL 1
REMARK VINA RESULT:      -5.9      0.000      0.000
REMARK  3 active torsions:
REMARK  status: ('A' for Active; 'I' for Inactive)
REMARK    1  A    between atoms: C_2  and  N_3 
REMARK    2  A    between atoms: C_2  and  C_14 
REMARK       I    between atoms: N_3  and  C_4 
REMARK       I    between atoms: C_4  and  N_6 
REMARK    3  A    between atoms: N_6  and  C_7 
ROOT
HETATM    1  N   UNL     1     -40.512 -49.954  10.879  1.00  0.00    -0.336 N 
HETATM    2  C   UNL     1     -41.561 -49.065  10.965  1.00  0.00     0.321 C 
HETATM    3  O   UNL     1     -42.137 -48.870  12.029  1.00  0.00    -0.247 OA
HETATM    4  N   UNL     1     -41.818 -48.428   9.775  1.00  0.00    -0.308 N 
HETATM    5  H   UNL     1     -40.311 -50.370   9.982  1.00  0.00     0.164 HD
HETATM    6  H   UNL     1     -41.426 -48.840   8.941  1.00  0.00     0.170 HD
ENDROOT
BRANCH   1   7
HETATM    7  C   UNL     1     -40.122 -50.738  12.060  1.00  0.00     0.111 C 
HETATM    8  C   UNL     1     -38.602 -50.696  12.203  1.00  0.00     0.035 C 
BRANCH   7   9
HETATM    9  C   UNL     1     -40.692 -52.175  11.995  1.00  0.00     0.143 C 
HETATM   10  C   UNL     1     -42.153 -52.299  12.421  1.00  0.00     0.036 C 
HETATM   11  C   UNL     1     -42.228 -53.609  13.177  1.00  0.00     0.029 C 
HETATM   12  C   UNL     1     -40.824 -54.171  13.127  1.00  0.00     0.168 C 
HETATM   13  O   UNL     1     -39.960 -53.061  12.864  1.00  0.00    -0.384 OA
ENDBRANCH   7   9
ENDBRANCH   1   7
BRANCH   4  14
HETATM   14  C   UNL     1     -42.721 -47.349   9.602  1.00  0.00     0.051 A 
HETATM   15  C   UNL     1     -43.925 -47.458   8.907  1.00  0.00     0.032 A 
HETATM   16  C   UNL     1     -44.756 -46.348   8.761  1.00  0.00     0.019 A 
HETATM   17  C   UNL     1     -44.362 -45.152   9.330  1.00  0.00     0.088 A 
HETATM   18  N   UNL     1     -43.222 -45.005  10.039  1.00  0.00    -0.373 N 
HETATM   19  C   UNL     1     -42.435 -46.106  10.161  1.00  0.00     0.117 A 
ATOM     20  HN  UNL     1     -42.965 -44.113  10.460  1.00  0.00     0.164 HD
ENDBRANCH   4  14
TORSDOF 3
ENDMDL
MODEL 2
REMARK VINA RESULT:      -5.7      3.324      6.275
REMARK  3 active torsions:
REMARK  status: ('A' for Active; 'I' for Inactive)
REMARK    1  A    between atoms: C_2  and  N_3 
REMARK    2  A    between atoms: C_2  and  C_14 
REMARK       I    between atoms: N_3  and  C_4 
REMARK       I    between atoms: C_4  and  N_6 
REMARK    3  A    between atoms: N_6  and  C_7 
ROOT
HETATM    1  N   UNL     1     -42.109 -50.860  11.928  1.00  0.00    -0.336 N 
HETATM    2  C   UNL     1     -42.741 -51.669  12.846  1.00  0.00     0.321 C 
HETATM    3  O   UNL     1     -42.422 -51.651  14.029  1.00  0.00    -0.247 OA
HETATM    4  N   UNL     1     -43.756 -52.413  12.291  1.00  0.00    -0.308 N 
HETATM    5  H   UNL     1     -42.112 -51.144  10.960  1.00  0.00     0.164 HD
HETATM    6  H   UNL     1     -43.763 -52.498  11.286  1.00  0.00     0.170 HD
ENDROOT
BRANCH   1   7
HETATM    7  C   UNL     1     -40.983 -50.015  12.353  1.00  0.00     0.111 C 
HETATM    8  C   UNL     1     -41.152 -48.623  11.749  1.00  0.00     0.035 C 
BRANCH   7   9
HETATM    9  C   UNL     1     -39.625 -50.673  12.010  1.00  0.00     0.143 C 
HETATM   10  C   UNL     1     -38.863 -51.223  13.212  1.00  0.00     0.036 C 
HETATM   11  C   UNL     1     -37.408 -50.920  12.923  1.00  0.00     0.029 C 
HETATM   12  C   UNL     1     -37.411 -50.238  11.573  1.00  0.00     0.168 C 
HETATM   13  O   UNL     1     -38.735 -49.725  11.389  1.00  0.00    -0.384 OA
ENDBRANCH   7   9
ENDBRANCH   1   7
BRANCH   4  14
HETATM   14  C   UNL     1     -44.682 -53.203  13.016  1.00  0.00     0.051 A 
HETATM   15  C   UNL     1     -44.480 -54.551  13.309  1.00  0.00     0.032 A 
HETATM   16  C   UNL     1     -45.445 -55.271  14.011  1.00  0.00     0.019 A 
HETATM   17  C   UNL     1     -46.591 -54.614  14.416  1.00  0.00     0.088 A 
HETATM   18  N   UNL     1     -46.818 -53.303  14.185  1.00  0.00    -0.373 N 
HETATM   19  C   UNL     1     -45.858 -52.631  13.497  1.00  0.00     0.117 A 
ATOM     20  HN  UNL     1     -47.667 -52.841  14.510  1.00  0.00     0.164 HD
ENDBRANCH   4  14
TORSDOF 3
ENDMDL
MODEL 3
REMARK VINA RESULT:      -5.6      2.278      7.034
REMARK  3 active torsions:
REMARK  status: ('A' for Active; 'I' for Inactive)
REMARK    1  A    between atoms: C_2  and  N_3 
REMARK    2  A    between atoms: C_2  and  C_14 
REMARK       I    between atoms: N_3  and  C_4 
REMARK       I    between atoms: C_4  and  N_6 
REMARK    3  A    between atoms: N_6  and  C_7 
ROOT
HETATM    1  N   UNL     1     -41.288 -48.704  10.516  1.00  0.00    -0.336 N 
HETATM    2  C   UNL     1     -41.455 -49.590  11.557  1.00  0.00     0.321 C 
HETATM    3  O   UNL     1     -42.050 -49.261  12.578  1.00  0.00    -0.247 OA
HETATM    4  N   UNL     1     -40.940 -50.835  11.285  1.00  0.00    -0.308 N 
HETATM    5  H   UNL     1     -40.514 -48.849   9.886  1.00  0.00     0.164 HD
HETATM    6  H   UNL     1     -40.291 -50.904  10.516  1.00  0.00     0.170 HD
ENDROOT
BRANCH   1   7
HETATM    7  C   UNL     1     -41.762 -47.319  10.654  1.00  0.00     0.111 C 
HETATM    8  C   UNL     1     -42.788 -47.034   9.560  1.00  0.00     0.035 C 
BRANCH   7   9
HETATM    9  C   UNL     1     -40.581 -46.319  10.664  1.00  0.00     0.143 C 
HETATM   10  C   UNL     1     -39.974 -46.064  12.041  1.00  0.00     0.036 C 
HETATM   11  C   UNL     1     -39.636 -44.588  12.051  1.00  0.00     0.029 C 
HETATM   12  C   UNL     1     -40.044 -44.084  10.684  1.00  0.00     0.168 C 
HETATM   13  O   UNL     1     -40.996 -45.026  10.180  1.00  0.00    -0.384 OA
ENDBRANCH   7   9
ENDBRANCH   1   7
BRANCH   4  14
HETATM   14  C   UNL     1     -41.110 -51.986  12.094  1.00  0.00     0.051 A 
HETATM   15  C   UNL     1     -40.145 -52.447  12.989  1.00  0.00     0.032 A 
HETATM   16  C   UNL     1     -40.375 -53.599  13.740  1.00  0.00     0.019 A 
HETATM   17  C   UNL     1     -41.579 -54.258  13.582  1.00  0.00     0.088 A 
HETATM   18  N   UNL     1     -42.557 -53.834  12.752  1.00  0.00    -0.373 N 
HETATM   19  C   UNL     1     -42.300 -52.709  12.035  1.00  0.00     0.117 A 
ATOM     20  HN  UNL     1     -43.442 -54.333  12.668  1.00  0.00     0.164 HD
ENDBRANCH   4  14
TORSDOF 3
ENDMDL
MODEL 4
REMARK VINA RESULT:      -5.4      2.958      4.042
REMARK  3 active torsions:
REMARK  status: ('A' for Active; 'I' for Inactive)
REMARK    1  A    between atoms: C_2  and  N_3 
REMARK    2  A    between atoms: C_2  and  C_14 
REMARK       I    between atoms: N_3  and  C_4 
REMARK       I    between atoms: C_4  and  N_6 
REMARK    3  A    between atoms: N_6  and  C_7 
ROOT
HETATM    1  N   UNL     1     -42.729 -51.612  12.488  1.00  0.00    -0.336 N 
HETATM    2  C   UNL     1     -42.445 -50.264  12.517  1.00  0.00     0.321 C 
HETATM    3  O   UNL     1     -42.596 -49.609  13.541  1.00  0.00    -0.247 OA
HETATM    4  N   UNL     1     -41.946 -49.799  11.323  1.00  0.00    -0.308 N 
HETATM    5  H   UNL     1     -42.956 -52.033  11.600  1.00  0.00     0.164 HD
HETATM    6  H   UNL     1     -42.084 -50.383  10.512  1.00  0.00     0.170 HD
ENDROOT
BRANCH   1   7
HETATM    7  C   UNL     1     -43.293 -52.264  13.679  1.00  0.00     0.111 C 
HETATM    8  C   UNL     1     -42.579 -53.596  13.900  1.00  0.00     0.035 C 
BRANCH   7   9
HETATM    9  C   UNL     1     -44.830 -52.402  13.570  1.00  0.00     0.143 C 
HETATM   10  C   UNL     1     -45.616 -51.222  14.136  1.00  0.00     0.036 C 
HETATM   11  C   UNL     1     -46.827 -51.843  14.799  1.00  0.00     0.029 C 
HETATM   12  C   UNL     1     -46.684 -53.330  14.562  1.00  0.00     0.168 C 
HETATM   13  O   UNL     1     -45.296 -53.558  14.292  1.00  0.00    -0.384 OA
ENDBRANCH   7   9
ENDBRANCH   1   7
BRANCH   4  14
HETATM   14  C   UNL     1     -41.415 -48.503  11.107  1.00  0.00     0.051 A 
HETATM   15  C   UNL     1     -40.226 -48.054  11.681  1.00  0.00     0.032 A 
HETATM   16  C   UNL     1     -39.773 -46.758  11.438  1.00  0.00     0.019 A 
HETATM   17  C   UNL     1     -40.522 -45.944  10.610  1.00  0.00     0.088 A 
HETATM   18  N   UNL     1     -41.662 -46.343  10.006  1.00  0.00    -0.373 N 
HETATM   19  C   UNL     1     -42.076 -47.612  10.265  1.00  0.00     0.117 A 
ATOM     20  HN  UNL     1     -42.186 -45.724   9.387  1.00  0.00     0.164 HD
ENDBRANCH   4  14
TORSDOF 3
ENDMDL
MODEL 5
REMARK VINA RESULT:      -5.3      3.913      6.190
REMARK  3 active torsions:
REMARK  status: ('A' for Active; 'I' for Inactive)
REMARK    1  A    between atoms: C_2  and  N_3 
REMARK    2  A    between atoms: C_2  and  C_14 
REMARK       I    between atoms: N_3  and  C_4 
REMARK       I    between atoms: C_4  and  N_6 
REMARK    3  A    between atoms: N_6  and  C_7 
ROOT
HETATM    1  N   UNL     1     -44.793 -51.342  12.930  1.00  0.00    -0.336 N 
HETATM    2  C   UNL     1     -43.468 -51.710  12.846  1.00  0.00     0.321 C 
HETATM    3  O   UNL     1     -43.149 -52.865  12.586  1.00  0.00    -0.247 OA
HETATM    4  N   UNL     1     -42.608 -50.653  13.028  1.00  0.00    -0.308 N 
HETATM    5  H   UNL     1     -45.029 -50.536  13.488  1.00  0.00     0.164 HD
HETATM    6  H   UNL     1     -42.991 -49.821  13.450  1.00  0.00     0.170 HD
ENDROOT
BRANCH   1   7
HETATM    7  C   UNL     1     -45.844 -52.360  12.782  1.00  0.00     0.111 C 
HETATM    8  C   UNL     1     -46.826 -51.905  11.704  1.00  0.00     0.035 C 
BRANCH   7   9
HETATM    9  C   UNL     1     -46.521 -52.671  14.138  1.00  0.00     0.143 C 
HETATM   10  C   UNL     1     -46.919 -51.440  14.947  1.00  0.00     0.036 C 
HETATM   11  C   UNL     1     -46.635 -51.812  16.387  1.00  0.00     0.029 C 
HETATM   12  C   UNL     1     -46.112 -53.230  16.330  1.00  0.00     0.168 C 
HETATM   13  O   UNL     1     -45.640 -53.427  14.992  1.00  0.00    -0.384 OA
ENDBRANCH   7   9
ENDBRANCH   1   7
BRANCH   4  14
HETATM   14  C   UNL     1     -41.205 -50.696  12.834  1.00  0.00     0.051 A 
HETATM   15  C   UNL     1     -40.305 -51.100  13.819  1.00  0.00     0.032 A 
HETATM   16  C   UNL     1     -38.934 -51.099  13.563  1.00  0.00     0.019 A 
HETATM   17  C   UNL     1     -38.500 -50.703  12.313  1.00  0.00     0.088 A 
HETATM   18  N   UNL     1     -39.334 -50.333  11.317  1.00  0.00    -0.373 N 
HETATM   19  C   UNL     1     -40.663 -50.345  11.601  1.00  0.00     0.117 A 
ATOM     20  HN  UNL     1     -38.984 -50.060  10.399  1.00  0.00     0.164 HD
ENDBRANCH   4  14
TORSDOF 3
ENDMDL
MODEL 6
REMARK VINA RESULT:      -5.2      2.088      2.678
REMARK  3 active torsions:
REMARK  status: ('A' for Active; 'I' for Inactive)
REMARK    1  A    between atoms: C_2  and  N_3 
REMARK    2  A    between atoms: C_2  and  C_14 
REMARK       I    between atoms: N_3  and  C_4 
REMARK       I    between atoms: C_4  and  N_6 
REMARK    3  A    between atoms: N_6  and  C_7 
ROOT
HETATM    1  N   UNL     1     -39.251 -49.774  11.916  1.00  0.00    -0.336 N 
HETATM    2  C   UNL     1     -39.790 -48.542  12.215  1.00  0.00     0.321 C 
HETATM    3  O   UNL     1     -39.740 -48.091  13.354  1.00  0.00    -0.247 OA
HETATM    4  N   UNL     1     -40.310 -47.906  11.113  1.00  0.00    -0.308 N 
HETATM    5  H   UNL     1     -39.615 -50.273  11.119  1.00  0.00     0.164 HD
HETATM    6  H   UNL     1     -40.485 -48.474  10.298  1.00  0.00     0.170 HD
ENDROOT
BRANCH   1   7
HETATM    7  C   UNL     1     -38.673 -50.597  12.989  1.00  0.00     0.111 C 
HETATM    8  C   UNL     1     -37.323 -51.140  12.525  1.00  0.00     0.035 C 
BRANCH   7   9
HETATM    9  C   UNL     1     -39.657 -51.702  13.442  1.00  0.00     0.143 C 
HETATM   10  C   UNL     1     -39.030 -52.801  14.296  1.00  0.00     0.036 C 
HETATM   11  C   UNL     1     -39.708 -54.078  13.847  1.00  0.00     0.029 C 
HETATM   12  C   UNL     1     -40.693 -53.645  12.784  1.00  0.00     0.168 C 
HETATM   13  O   UNL     1     -40.232 -52.377  12.306  1.00  0.00    -0.384 OA
ENDBRANCH   7   9
ENDBRANCH   1   7
BRANCH   4  14
HETATM   14  C   UNL     1     -40.776 -46.568  11.084  1.00  0.00     0.051 A 
HETATM   15  C   UNL     1     -39.943 -45.466  10.897  1.00  0.00     0.032 A 
HETATM   16  C   UNL     1     -40.470 -44.176  10.898  1.00  0.00     0.019 A 
HETATM   17  C   UNL     1     -41.832 -44.023  11.077  1.00  0.00     0.088 A 
HETATM   18  N   UNL     1     -42.684 -45.059  11.231  1.00  0.00    -0.373 N 
HETATM   19  C   UNL     1     -42.137 -46.303  11.225  1.00  0.00     0.117 A 
ATOM     20  HN  UNL     1     -43.687 -44.916  11.346  1.00  0.00     0.164 HD
ENDBRANCH   4  14
TORSDOF 3
ENDMDL
MODEL 7
REMARK VINA RESULT:      -5.0      3.595      5.667
REMARK  3 active torsions:
REMARK  status: ('A' for Active; 'I' for Inactive)
REMARK    1  A    between atoms: C_2  and  N_3 
REMARK    2  A    between atoms: C_2  and  C_14 
REMARK       I    between atoms: N_3  and  C_4 
REMARK       I    between atoms: C_4  and  N_6 
REMARK    3  A    between atoms: N_6  and  C_7 
ROOT
HETATM    1  N   UNL     1     -42.654 -53.339  13.563  1.00  0.00    -0.336 N 
HETATM    2  C   UNL     1     -41.899 -52.187  13.589  1.00  0.00     0.321 C 
HETATM    3  O   UNL     1     -41.908 -51.448  14.567  1.00  0.00    -0.247 OA
HETATM    4  N   UNL     1     -41.139 -52.023  12.456  1.00  0.00    -0.308 N 
HETATM    5  H   UNL     1     -42.923 -53.713  12.666  1.00  0.00     0.164 HD
HETATM    6  H   UNL     1     -41.393 -52.575  11.651  1.00  0.00     0.170 HD
ENDROOT
BRANCH   1   7
HETATM    7  C   UNL     1     -43.543 -53.653  14.691  1.00  0.00     0.111 C 
HETATM    8  C   UNL     1     -43.380 -55.127  15.056  1.00  0.00     0.035 C 
BRANCH   7   9
HETATM    9  C   UNL     1     -45.006 -53.256  14.382  1.00  0.00     0.143 C 
HETATM   10  C   UNL     1     -45.345 -53.183  12.895  1.00  0.00     0.036 C 
HETATM   11  C   UNL     1     -46.277 -51.997  12.766  1.00  0.00     0.029 C 
HETATM   12  C   UNL     1     -46.439 -51.470  14.174  1.00  0.00     0.168 C 
HETATM   13  O   UNL     1     -45.309 -51.950  14.911  1.00  0.00    -0.384 OA
ENDBRANCH   7   9
ENDBRANCH   1   7
BRANCH   4  14
HETATM   14  C   UNL     1     -40.147 -51.027  12.272  1.00  0.00     0.051 A 
HETATM   15  C   UNL     1     -38.895 -51.066  12.884  1.00  0.00     0.032 A 
HETATM   16  C   UNL     1     -37.975 -50.040  12.671  1.00  0.00     0.019 A 
HETATM   17  C   UNL     1     -38.333 -48.999  11.835  1.00  0.00     0.088 A 
HETATM   18  N   UNL     1     -39.521 -48.932  11.195  1.00  0.00    -0.373 N 
HETATM   19  C   UNL     1     -40.394 -49.948  11.426  1.00  0.00     0.117 A 
ATOM     20  HN  UNL     1     -39.751 -48.159  10.572  1.00  0.00     0.164 HD
ENDBRANCH   4  14
TORSDOF 3
ENDMDL
MODEL 8
REMARK VINA RESULT:      -5.0      5.425      6.520
REMARK  3 active torsions:
REMARK  status: ('A' for Active; 'I' for Inactive)
REMARK    1  A    between atoms: C_2  and  N_3 
REMARK    2  A    between atoms: C_2  and  C_14 
REMARK       I    between atoms: N_3  and  C_4 
REMARK       I    between atoms: C_4  and  N_6 
REMARK    3  A    between atoms: N_6  and  C_7 
ROOT
HETATM    1  N   UNL     1     -41.458 -54.574  14.982  1.00  0.00    -0.336 N 
HETATM    2  C   UNL     1     -42.297 -53.526  14.674  1.00  0.00     0.321 C 
HETATM    3  O   UNL     1     -41.870 -52.380  14.586  1.00  0.00    -0.247 OA
HETATM    4  N   UNL     1     -43.590 -53.930  14.439  1.00  0.00    -0.308 N 
HETATM    5  H   UNL     1     -41.858 -55.397  15.406  1.00  0.00     0.164 HD
HETATM    6  H   UNL     1     -43.847 -54.851  14.761  1.00  0.00     0.170 HD
ENDROOT
BRANCH   1   7
HETATM    7  C   UNL     1     -40.043 -54.311  15.284  1.00  0.00     0.111 C 
HETATM    8  C   UNL     1     -39.196 -54.699  14.074  1.00  0.00     0.035 C 
BRANCH   7   9
HETATM    9  C   UNL     1     -39.607 -55.016  16.591  1.00  0.00     0.143 C 
HETATM   10  C   UNL     1     -38.231 -54.603  17.108  1.00  0.00     0.036 C 
HETATM   11  C   UNL     1     -37.621 -55.877  17.651  1.00  0.00     0.029 C 
HETATM   12  C   UNL     1     -38.676 -56.939  17.438  1.00  0.00     0.168 C 
HETATM   13  O   UNL     1     -39.538 -56.444  16.407  1.00  0.00    -0.384 OA
ENDBRANCH   7   9
ENDBRANCH   1   7
BRANCH   4  14
HETATM   14  C   UNL     1     -44.629 -53.103  13.944  1.00  0.00     0.051 A 
HETATM   15  C   UNL     1     -45.405 -52.275  14.753  1.00  0.00     0.032 A 
HETATM   16  C   UNL     1     -46.424 -51.502  14.197  1.00  0.00     0.019 A 
HETATM   17  C   UNL     1     -46.632 -51.571  12.833  1.00  0.00     0.088 A 
HETATM   18  N   UNL     1     -45.886 -52.333  12.003  1.00  0.00    -0.373 N 
HETATM   19  C   UNL     1     -44.903 -53.074  12.578  1.00  0.00     0.117 A 
ATOM     20  HN  UNL     1     -46.054 -52.352  10.998  1.00  0.00     0.164 HD
ENDBRANCH   4  14
TORSDOF 3
ENDMDL
MODEL 9
REMARK VINA RESULT:      -4.7      3.437      7.343
REMARK  3 active torsions:
REMARK  status: ('A' for Active; 'I' for Inactive)
REMARK    1  A    between atoms: C_2  and  N_3 
REMARK    2  A    between atoms: C_2  and  C_14 
REMARK       I    between atoms: N_3  and  C_4 
REMARK       I    between atoms: C_4  and  N_6 
REMARK    3  A    between atoms: N_6  and  C_7 
ROOT
HETATM    1  N   UNL     1     -40.474 -46.392  12.194  1.00  0.00    -0.336 N 
HETATM    2  C   UNL     1     -39.698 -47.455  12.602  1.00  0.00     0.321 C 
HETATM    3  O   UNL     1     -39.214 -48.232  11.787  1.00  0.00    -0.247 OA
HETATM    4  N   UNL     1     -39.510 -47.486  13.963  1.00  0.00    -0.308 N 
HETATM    5  H   UNL     1     -41.142 -46.011  12.847  1.00  0.00     0.164 HD
HETATM    6  H   UNL     1     -40.137 -46.930  14.525  1.00  0.00     0.170 HD
ENDROOT
BRANCH   1   7
HETATM    7  C   UNL     1     -40.792 -46.226  10.768  1.00  0.00     0.111 C 
HETATM    8  C   UNL     1     -40.003 -45.038  10.220  1.00  0.00     0.035 C 
BRANCH   7   9
HETATM    9  C   UNL     1     -42.318 -46.107  10.543  1.00  0.00     0.143 C 
HETATM   10  C   UNL     1     -43.078 -47.428  10.626  1.00  0.00     0.036 C 
HETATM   11  C   UNL     1     -44.141 -47.334   9.552  1.00  0.00     0.029 C 
HETATM   12  C   UNL     1     -43.949 -45.969   8.929  1.00  0.00     0.168 C 
HETATM   13  O   UNL     1     -42.606 -45.577   9.234  1.00  0.00    -0.384 OA
ENDBRANCH   7   9
ENDBRANCH   1   7
BRANCH   4  14
HETATM   14  C   UNL     1     -38.628 -48.359  14.648  1.00  0.00     0.051 A 
HETATM   15  C   UNL     1     -37.336 -48.001  15.033  1.00  0.00     0.032 A 
HETATM   16  C   UNL     1     -36.517 -48.920  15.688  1.00  0.00     0.019 A 
HETATM   17  C   UNL     1     -37.022 -50.178  15.953  1.00  0.00     0.088 A 
HETATM   18  N   UNL     1     -38.276 -50.562  15.629  1.00  0.00    -0.373 N 
HETATM   19  C   UNL     1     -39.047 -49.642  14.991  1.00  0.00     0.117 A 
ATOM     20  HN  UNL     1     -38.626 -51.493  15.852  1.00  0.00     0.164 HD
ENDBRANCH   4  14
TORSDOF 3
ENDMDL
