MODEL 1
REMARK VINA RESULT:      -5.6      0.000      0.000
REMARK  5 active torsions:
REMARK  status: ('A' for Active; 'I' for Inactive)
REMARK    1  A    between atoms: C_2  and  N_3 
REMARK    2  A    between atoms: C_2  and  C_14 
REMARK    3  A    between atoms: N_3  and  C_4 
REMARK    4  A    between atoms: C_4  and  C_6 
REMARK       I    between atoms: C_6  and  N_8 
REMARK    5  A    between atoms: C_14  and  N_16 
ROOT
HETATM    1  N   UNL     1     -41.935 -50.051  11.457  1.00  0.00     0.103 N 
HETATM    2  H   UNL     1     -41.533 -50.855  10.969  1.00  0.00     0.317 HD
ENDROOT
BRANCH   1   3
HETATM    3  C   UNL     1     -41.090 -48.853  11.270  1.00  0.00     0.241 C 
HETATM    4  C   UNL     1     -40.046 -48.756  12.394  1.00  0.00     0.045 C 
BRANCH   3   5
HETATM    5  C   UNL     1     -41.860 -47.517  10.991  1.00  0.00     0.136 C 
HETATM    6  C   UNL     1     -40.933 -46.353  10.611  1.00  0.00     0.036 C 
BRANCH   5   7
HETATM    7  N   UNL     1     -42.940 -47.629  10.001  1.00  0.00    -0.297 N 
HETATM    8  C   UNL     1     -44.288 -47.441  10.154  1.00  0.00     0.112 A 
HETATM    9  C   UNL     1     -44.837 -47.491   8.899  1.00  0.00     0.037 A 
HETATM   10  C   UNL     1     -43.758 -47.773   8.050  1.00  0.00     0.108 A 
HETATM   11  N   UNL     1     -42.602 -47.866   8.709  1.00  0.00    -0.310 N 
ATOM     12  HN  UNL     1     -41.677 -48.068   8.329  1.00  0.00     0.186 HD
ENDBRANCH   5   7
ENDBRANCH   3   5
ENDBRANCH   1   3
BRANCH   1  13
HETATM   13  C   UNL     1     -42.323 -50.472  12.818  1.00  0.00     0.308 C 
HETATM   14  C   UNL     1     -43.741 -50.092  13.250  1.00  0.00     0.053 C 
BRANCH  13  15
HETATM   15  C   UNL     1     -42.214 -52.019  12.934  1.00  0.00     0.253 C 
HETATM   16  O   UNL     1     -42.889 -52.767  12.222  1.00  0.00    -0.271 OA
HETATM   17  N   UNL     1     -41.340 -52.529  13.888  1.00  0.00    -0.346 N 
HETATM   18  C   UNL     1     -40.362 -51.776  14.681  1.00  0.00     0.152 C 
HETATM   19  C   UNL     1     -41.212 -53.978  14.051  1.00  0.00     0.152 C 
HETATM   20  C   UNL     1     -38.946 -52.273  14.364  1.00  0.00     0.187 C 
HETATM   21  O   UNL     1     -38.837 -53.689  14.584  1.00  0.00    -0.388 OA
HETATM   22  C   UNL     1     -39.771 -54.412  13.762  1.00  0.00     0.187 C 
ENDBRANCH  13  15
ENDBRANCH   1  13
TORSDOF 5
ENDMDL
MODEL 2
REMARK VINA RESULT:      -5.6      1.570      2.917
REMARK  5 active torsions:
REMARK  status: ('A' for Active; 'I' for Inactive)
REMARK    1  A    between atoms: C_2  and  N_3 
REMARK    2  A    between atoms: C_2  and  C_14 
REMARK    3  A    between atoms: N_3  and  C_4 
REMARK    4  A    between atoms: C_4  and  C_6 
REMARK       I    between atoms: C_6  and  N_8 
REMARK    5  A    between atoms: C_14  and  N_16 
ROOT
HETATM    1  N   UNL     1     -39.714 -48.766  12.126  1.00  0.00     0.103 N 
HETATM    2  H   UNL     1     -40.192 -48.897  13.021  1.00  0.00     0.317 HD
ENDROOT
BRANCH   1   3
HETATM    3  C   UNL     1     -40.604 -48.096  11.155  1.00  0.00     0.241 C 
HETATM    4  C   UNL     1     -40.379 -46.577  11.184  1.00  0.00     0.045 C 
BRANCH   3   5
HETATM    5  C   UNL     1     -42.111 -48.525  11.209  1.00  0.00     0.136 C 
HETATM    6  C   UNL     1     -42.763 -48.267  12.575  1.00  0.00     0.036 C 
BRANCH   5   7
HETATM    7  N   UNL     1     -42.948 -47.950  10.147  1.00  0.00    -0.297 N 
HETATM    8  C   UNL     1     -43.977 -47.050  10.237  1.00  0.00     0.112 A 
HETATM    9  C   UNL     1     -44.310 -46.704   8.954  1.00  0.00     0.037 A 
HETATM   10  C   UNL     1     -43.473 -47.487   8.147  1.00  0.00     0.108 A 
HETATM   11  N   UNL     1     -42.647 -48.252   8.860  1.00  0.00    -0.310 N 
ATOM     12  HN  UNL     1     -41.950 -48.913   8.517  1.00  0.00     0.186 HD
ENDBRANCH   5   7
ENDBRANCH   3   5
ENDBRANCH   1   3
BRANCH   1  13
HETATM   13  C   UNL     1     -39.044 -50.030  11.759  1.00  0.00     0.308 C 
HETATM   14  C   UNL     1     -37.565 -49.914  11.389  1.00  0.00     0.053 C 
BRANCH  13  15
HETATM   15  C   UNL     1     -39.135 -51.030  12.948  1.00  0.00     0.253 C 
HETATM   16  O   UNL     1     -38.371 -50.953  13.914  1.00  0.00    -0.271 OA
HETATM   17  N   UNL     1     -40.101 -52.028  12.872  1.00  0.00    -0.346 N 
HETATM   18  C   UNL     1     -41.175 -52.142  11.879  1.00  0.00     0.152 C 
HETATM   19  C   UNL     1     -40.217 -53.006  13.954  1.00  0.00     0.152 C 
HETATM   20  C   UNL     1     -42.537 -52.072  12.581  1.00  0.00     0.187 C 
HETATM   21  O   UNL     1     -42.642 -53.076  13.602  1.00  0.00    -0.388 OA
HETATM   22  C   UNL     1     -41.609 -52.918  14.591  1.00  0.00     0.187 C 
ENDBRANCH  13  15
ENDBRANCH   1  13
TORSDOF 5
ENDMDL
MODEL 3
REMARK VINA RESULT:      -5.5      2.965      6.207
REMARK  5 active torsions:
REMARK  status: ('A' for Active; 'I' for Inactive)
REMARK    1  A    between atoms: C_2  and  N_3 
REMARK    2  A    between atoms: C_2  and  C_14 
REMARK    3  A    between atoms: N_3  and  C_4 
REMARK    4  A    between atoms: C_4  and  C_6 
REMARK       I    between atoms: C_6  and  N_8 
REMARK    5  A    between atoms: C_14  and  N_16 
ROOT
HETATM    1  N   UNL     1     -42.378 -50.600  11.978  1.00  0.00     0.103 N 
HETATM    2  H   UNL     1     -43.079 -50.776  11.255  1.00  0.00     0.317 HD
ENDROOT
BRANCH   1   3
HETATM    3  C   UNL     1     -42.230 -51.778  12.857  1.00  0.00     0.241 C 
HETATM    4  C   UNL     1     -40.794 -52.319  12.789  1.00  0.00     0.045 C 
BRANCH   3   5
HETATM    5  C   UNL     1     -43.339 -52.877  12.710  1.00  0.00     0.136 C 
HETATM    6  C   UNL     1     -43.029 -54.157  13.499  1.00  0.00     0.036 C 
BRANCH   5   7
HETATM    7  N   UNL     1     -44.699 -52.420  13.026  1.00  0.00    -0.297 N 
HETATM    8  C   UNL     1     -45.234 -52.038  14.228  1.00  0.00     0.112 A 
HETATM    9  C   UNL     1     -46.480 -51.535  13.960  1.00  0.00     0.037 A 
HETATM   10  C   UNL     1     -46.644 -51.705  12.579  1.00  0.00     0.108 A 
HETATM   11  N   UNL     1     -45.571 -52.248  12.002  1.00  0.00    -0.310 N 
ATOM     12  HN  UNL     1     -45.438 -52.481  11.018  1.00  0.00     0.186 HD
ENDBRANCH   5   7
ENDBRANCH   3   5
ENDBRANCH   1   3
BRANCH   1  13
HETATM   13  C   UNL     1     -42.632 -49.270  12.567  1.00  0.00     0.308 C 
HETATM   14  C   UNL     1     -43.089 -49.268  14.027  1.00  0.00     0.053 C 
BRANCH  13  15
HETATM   15  C   UNL     1     -41.334 -48.416  12.499  1.00  0.00     0.253 C 
HETATM   16  O   UNL     1     -40.239 -48.880  12.831  1.00  0.00    -0.271 OA
HETATM   17  N   UNL     1     -41.456 -47.099  12.069  1.00  0.00    -0.346 N 
HETATM   18  C   UNL     1     -42.647 -46.467  11.491  1.00  0.00     0.152 C 
HETATM   19  C   UNL     1     -40.268 -46.246  12.003  1.00  0.00     0.152 C 
HETATM   20  C   UNL     1     -42.344 -46.002  10.061  1.00  0.00     0.187 C 
HETATM   21  O   UNL     1     -41.206 -45.125  10.035  1.00  0.00    -0.388 OA
HETATM   22  C   UNL     1     -40.037 -45.780  10.562  1.00  0.00     0.187 C 
ENDBRANCH  13  15
ENDBRANCH   1  13
TORSDOF 5
ENDMDL
MODEL 4
REMARK VINA RESULT:      -5.5      2.795      5.215
REMARK  5 active torsions:
REMARK  status: ('A' for Active; 'I' for Inactive)
REMARK    1  A    between atoms: C_2  and  N_3 
REMARK    2  A    between atoms: C_2  and  C_14 
REMARK    3  A    between atoms: N_3  and  C_4 
REMARK    4  A    between atoms: C_4  and  C_6 
REMARK       I    between atoms: C_6  and  N_8 
REMARK    5  A    between atoms: C_14  and  N_16 
ROOT
HETATM    1  N   UNL     1     -42.503 -52.023  11.932  1.00  0.00     0.103 N 
HETATM    2  H   UNL     1     -42.177 -52.280  10.998  1.00  0.00     0.317 HD
ENDROOT
BRANCH   1   3
HETATM    3  C   UNL     1     -41.855 -50.774  12.385  1.00  0.00     0.241 C 
HETATM    4  C   UNL     1     -42.905 -49.796  12.934  1.00  0.00     0.045 C 
BRANCH   3   5
HETATM    5  C   UNL     1     -40.844 -50.130  11.374  1.00  0.00     0.136 C 
HETATM    6  C   UNL     1     -41.162 -48.663  11.053  1.00  0.00     0.036 C 
BRANCH   5   7
HETATM    7  N   UNL     1     -39.432 -50.255  11.759  1.00  0.00    -0.297 N 
HETATM    8  C   UNL     1     -38.880 -50.786  12.894  1.00  0.00     0.112 A 
HETATM    9  C   UNL     1     -37.525 -50.825  12.691  1.00  0.00     0.037 A 
HETATM   10  C   UNL     1     -37.337 -50.244  11.431  1.00  0.00     0.108 A 
HETATM   11  N   UNL     1     -38.487 -49.887  10.858  1.00  0.00    -0.310 N 
ATOM     12  HN  UNL     1     -38.625 -49.440   9.951  1.00  0.00     0.186 HD
ENDBRANCH   5   7
ENDBRANCH   3   5
ENDBRANCH   1   3
BRANCH   1  13
HETATM   13  C   UNL     1     -42.465 -53.223  12.792  1.00  0.00     0.308 C 
HETATM   14  C   UNL     1     -41.073 -53.790  13.079  1.00  0.00     0.053 C 
BRANCH  13  15
HETATM   15  C   UNL     1     -43.113 -52.898  14.167  1.00  0.00     0.253 C 
HETATM   16  O   UNL     1     -42.425 -52.716  15.176  1.00  0.00    -0.271 OA
HETATM   17  N   UNL     1     -44.501 -52.838  14.223  1.00  0.00    -0.346 N 
HETATM   18  C   UNL     1     -45.432 -52.865  13.089  1.00  0.00     0.152 C 
HETATM   19  C   UNL     1     -45.163 -52.552  15.497  1.00  0.00     0.152 C 
HETATM   20  C   UNL     1     -46.234 -51.559  13.046  1.00  0.00     0.187 C 
HETATM   21  O   UNL     1     -46.914 -51.333  14.291  1.00  0.00    -0.388 OA
HETATM   22  C   UNL     1     -45.980 -51.261  15.384  1.00  0.00     0.187 C 
ENDBRANCH  13  15
ENDBRANCH   1  13
TORSDOF 5
ENDMDL
MODEL 5
REMARK VINA RESULT:      -5.3      2.399      3.503
REMARK  5 active torsions:
REMARK  status: ('A' for Active; 'I' for Inactive)
REMARK    1  A    between atoms: C_2  and  N_3 
REMARK    2  A    between atoms: C_2  and  C_14 
REMARK    3  A    between atoms: N_3  and  C_4 
REMARK    4  A    between atoms: C_4  and  C_6 
REMARK       I    between atoms: C_6  and  N_8 
REMARK    5  A    between atoms: C_14  and  N_16 
ROOT
HETATM    1  N   UNL     1     -40.754 -46.846  12.696  1.00  0.00     0.103 N 
HETATM    2  H   UNL     1     -41.465 -47.457  13.103  1.00  0.00     0.317 HD
ENDROOT
BRANCH   1   3
HETATM    3  C   UNL     1     -40.617 -47.101  11.247  1.00  0.00     0.241 C 
HETATM    4  C   UNL     1     -40.814 -45.800  10.454  1.00  0.00     0.045 C 
BRANCH   3   5
HETATM    5  C   UNL     1     -41.432 -48.321  10.693  1.00  0.00     0.136 C 
HETATM    6  C   UNL     1     -41.740 -49.377  11.764  1.00  0.00     0.036 C 
BRANCH   5   7
HETATM    7  N   UNL     1     -42.669 -47.960   9.987  1.00  0.00    -0.297 N 
HETATM    8  C   UNL     1     -43.852 -47.484  10.486  1.00  0.00     0.112 A 
HETATM    9  C   UNL     1     -44.623 -47.138   9.407  1.00  0.00     0.037 A 
HETATM   10  C   UNL     1     -43.854 -47.494   8.292  1.00  0.00     0.108 A 
HETATM   11  N   UNL     1     -42.667 -48.000   8.631  1.00  0.00    -0.310 N 
ATOM     12  HN  UNL     1     -41.930 -48.339   8.014  1.00  0.00     0.186 HD
ENDBRANCH   5   7
ENDBRANCH   3   5
ENDBRANCH   1   3
BRANCH   1  13
HETATM   13  C   UNL     1     -39.558 -46.871  13.563  1.00  0.00     0.308 C 
HETATM   14  C   UNL     1     -39.432 -45.711  14.552  1.00  0.00     0.053 C 
BRANCH  13  15
HETATM   15  C   UNL     1     -39.551 -48.182  14.400  1.00  0.00     0.253 C 
HETATM   16  O   UNL     1     -40.309 -48.335  15.362  1.00  0.00    -0.271 OA
HETATM   17  N   UNL     1     -38.643 -49.170  14.035  1.00  0.00    -0.346 N 
HETATM   18  C   UNL     1     -37.807 -49.198  12.830  1.00  0.00     0.152 C 
HETATM   19  C   UNL     1     -38.583 -50.416  14.801  1.00  0.00     0.152 C 
HETATM   20  C   UNL     1     -38.169 -50.421  11.978  1.00  0.00     0.187 C 
HETATM   21  O   UNL     1     -38.050 -51.632  12.741  1.00  0.00    -0.388 OA
HETATM   22  C   UNL     1     -38.913 -51.605  13.892  1.00  0.00     0.187 C 
ENDBRANCH  13  15
ENDBRANCH   1  13
TORSDOF 5
ENDMDL
MODEL 6
REMARK VINA RESULT:      -5.2      2.554      4.113
REMARK  5 active torsions:
REMARK  status: ('A' for Active; 'I' for Inactive)
REMARK    1  A    between atoms: C_2  and  N_3 
REMARK    2  A    between atoms: C_2  and  C_14 
REMARK    3  A    between atoms: N_3  and  C_4 
REMARK    4  A    between atoms: C_4  and  C_6 
REMARK       I    between atoms: C_6  and  N_8 
REMARK    5  A    between atoms: C_14  and  N_16 
ROOT
HETATM    1  N   UNL     1     -42.366 -50.158  11.990  1.00  0.00     0.103 N 
HETATM    2  H   UNL     1     -41.703 -50.688  11.419  1.00  0.00     0.317 HD
ENDROOT
BRANCH   1   3
HETATM    3  C   UNL     1     -42.146 -48.706  11.832  1.00  0.00     0.241 C 
HETATM    4  C   UNL     1     -43.415 -48.028  11.293  1.00  0.00     0.045 C 
BRANCH   3   5
HETATM    5  C   UNL     1     -40.831 -48.298  11.081  1.00  0.00     0.136 C 
HETATM    6  C   UNL     1     -40.673 -46.779  10.922  1.00  0.00     0.036 C 
BRANCH   5   7
HETATM    7  N   UNL     1     -39.600 -48.863  11.651  1.00  0.00    -0.297 N 
HETATM    8  C   UNL     1     -38.981 -48.585  12.840  1.00  0.00     0.112 A 
HETATM    9  C   UNL     1     -37.972 -49.502  12.982  1.00  0.00     0.037 A 
HETATM   10  C   UNL     1     -38.014 -50.261  11.805  1.00  0.00     0.108 A 
HETATM   11  N   UNL     1     -38.994 -49.878  10.986  1.00  0.00    -0.310 N 
ATOM     12  HN  UNL     1     -39.232 -50.259  10.070  1.00  0.00     0.186 HD
ENDBRANCH   5   7
ENDBRANCH   3   5
ENDBRANCH   1   3
BRANCH   1  13
HETATM   13  C   UNL     1     -42.404 -50.753  13.341  1.00  0.00     0.308 C 
HETATM   14  C   UNL     1     -42.154 -49.786  14.499  1.00  0.00     0.053 C 
BRANCH  13  15
HETATM   15  C   UNL     1     -43.798 -51.398  13.585  1.00  0.00     0.253 C 
HETATM   16  O   UNL     1     -44.822 -50.931  13.077  1.00  0.00    -0.271 OA
HETATM   17  N   UNL     1     -43.852 -52.514  14.414  1.00  0.00    -0.346 N 
HETATM   18  C   UNL     1     -42.714 -53.272  14.947  1.00  0.00     0.152 C 
HETATM   19  C   UNL     1     -45.141 -53.149  14.691  1.00  0.00     0.152 C 
HETATM   20  C   UNL     1     -42.771 -54.717  14.436  1.00  0.00     0.187 C 
HETATM   21  O   UNL     1     -44.026 -55.331  14.768  1.00  0.00    -0.388 OA
HETATM   22  C   UNL     1     -45.127 -54.599  14.197  1.00  0.00     0.187 C 
ENDBRANCH  13  15
ENDBRANCH   1  13
TORSDOF 5
ENDMDL
MODEL 7
REMARK VINA RESULT:      -5.1      1.967      3.105
REMARK  5 active torsions:
REMARK  status: ('A' for Active; 'I' for Inactive)
REMARK    1  A    between atoms: C_2  and  N_3 
REMARK    2  A    between atoms: C_2  and  C_14 
REMARK    3  A    between atoms: N_3  and  C_4 
REMARK    4  A    between atoms: C_4  and  C_6 
REMARK       I    between atoms: C_6  and  N_8 
REMARK    5  A    between atoms: C_14  and  N_16 
ROOT
HETATM    1  N   UNL     1     -42.715 -49.854  12.084  1.00  0.00     0.103 N 
HETATM    2  H   UNL     1     -43.034 -49.777  11.115  1.00  0.00     0.317 HD
ENDROOT
BRANCH   1   3
HETATM    3  C   UNL     1     -42.197 -48.558  12.567  1.00  0.00     0.241 C 
HETATM    4  C   UNL     1     -42.928 -48.134  13.849  1.00  0.00     0.045 C 
BRANCH   3   5
HETATM    5  C   UNL     1     -42.086 -47.427  11.486  1.00  0.00     0.136 C 
HETATM    6  C   UNL     1     -40.651 -47.208  10.987  1.00  0.00     0.036 C 
BRANCH   5   7
HETATM    7  N   UNL     1     -42.987 -47.589  10.337  1.00  0.00    -0.297 N 
HETATM    8  C   UNL     1     -44.340 -47.388  10.254  1.00  0.00     0.112 A 
HETATM    9  C   UNL     1     -44.673 -47.504   8.929  1.00  0.00     0.037 A 
HETATM   10  C   UNL     1     -43.472 -47.835   8.288  1.00  0.00     0.108 A 
HETATM   11  N   UNL     1     -42.442 -47.896   9.134  1.00  0.00    -0.310 N 
ATOM     12  HN  UNL     1     -41.470 -48.122   8.925  1.00  0.00     0.186 HD
ENDBRANCH   5   7
ENDBRANCH   3   5
ENDBRANCH   1   3
BRANCH   1  13
HETATM   13  C   UNL     1     -41.887 -51.071  12.211  1.00  0.00     0.308 C 
HETATM   14  C   UNL     1     -40.374 -50.851  12.169  1.00  0.00     0.053 C 
BRANCH  13  15
HETATM   15  C   UNL     1     -42.204 -51.775  13.561  1.00  0.00     0.253 C 
HETATM   16  O   UNL     1     -41.645 -51.440  14.609  1.00  0.00    -0.271 OA
HETATM   17  N   UNL     1     -43.129 -52.814  13.540  1.00  0.00    -0.346 N 
HETATM   18  C   UNL     1     -43.986 -53.209  12.416  1.00  0.00     0.152 C 
HETATM   19  C   UNL     1     -43.450 -53.523  14.779  1.00  0.00     0.152 C 
HETATM   20  C   UNL     1     -45.460 -53.051  12.810  1.00  0.00     0.187 C 
HETATM   21  O   UNL     1     -45.757 -53.800  13.999  1.00  0.00    -0.388 OA
HETATM   22  C   UNL     1     -44.940 -53.365  15.102  1.00  0.00     0.187 C 
ENDBRANCH  13  15
ENDBRANCH   1  13
TORSDOF 5
ENDMDL
MODEL 8
REMARK VINA RESULT:      -5.1      1.561      3.268
REMARK  5 active torsions:
REMARK  status: ('A' for Active; 'I' for Inactive)
REMARK    1  A    between atoms: C_2  and  N_3 
REMARK    2  A    between atoms: C_2  and  C_14 
REMARK    3  A    between atoms: N_3  and  C_4 
REMARK    4  A    between atoms: C_4  and  C_6 
REMARK       I    between atoms: C_6  and  N_8 
REMARK    5  A    between atoms: C_14  and  N_16 
ROOT
HETATM    1  N   UNL     1     -42.289 -49.946  11.794  1.00  0.00     0.103 N 
HETATM    2  H   UNL     1     -41.561 -50.462  11.294  1.00  0.00     0.317 HD
ENDROOT
BRANCH   1   3
HETATM    3  C   UNL     1     -42.042 -48.491  11.719  1.00  0.00     0.241 C 
HETATM    4  C   UNL     1     -43.281 -47.766  11.173  1.00  0.00     0.045 C 
BRANCH   3   5
HETATM    5  C   UNL     1     -40.696 -48.067  11.036  1.00  0.00     0.136 C 
HETATM    6  C   UNL     1     -40.504 -46.545  10.975  1.00  0.00     0.036 C 
BRANCH   5   7
HETATM    7  N   UNL     1     -39.496 -48.692  11.610  1.00  0.00    -0.297 N 
HETATM    8  C   UNL     1     -38.904 -48.491  12.829  1.00  0.00     0.112 A 
HETATM    9  C   UNL     1     -37.922 -49.439  12.949  1.00  0.00     0.037 A 
HETATM   10  C   UNL     1     -37.947 -50.134  11.734  1.00  0.00     0.108 A 
HETATM   11  N   UNL     1     -38.894 -49.685  10.909  1.00  0.00    -0.310 N 
ATOM     12  HN  UNL     1     -39.115 -50.012   9.969  1.00  0.00     0.186 HD
ENDBRANCH   5   7
ENDBRANCH   3   5
ENDBRANCH   1   3
BRANCH   1  13
HETATM   13  C   UNL     1     -42.506 -50.589  13.106  1.00  0.00     0.308 C 
HETATM   14  C   UNL     1     -43.909 -50.437  13.696  1.00  0.00     0.053 C 
BRANCH  13  15
HETATM   15  C   UNL     1     -42.228 -52.115  12.989  1.00  0.00     0.253 C 
HETATM   16  O   UNL     1     -42.687 -52.784  12.059  1.00  0.00    -0.271 OA
HETATM   17  N   UNL     1     -41.456 -52.703  13.985  1.00  0.00    -0.346 N 
HETATM   18  C   UNL     1     -40.712 -52.016  15.047  1.00  0.00     0.152 C 
HETATM   19  C   UNL     1     -41.179 -54.140  13.933  1.00  0.00     0.152 C 
HETATM   20  C   UNL     1     -39.215 -52.314  14.906  1.00  0.00     0.187 C 
HETATM   21  O   UNL     1     -38.969 -53.729  14.911  1.00  0.00    -0.388 OA
HETATM   22  C   UNL     1     -39.669 -54.378  13.833  1.00  0.00     0.187 C 
ENDBRANCH  13  15
ENDBRANCH   1  13
TORSDOF 5
ENDMDL
MODEL 9
REMARK VINA RESULT:      -5.1      2.779      4.962
REMARK  5 active torsions:
REMARK  status: ('A' for Active; 'I' for Inactive)
REMARK    1  A    between atoms: C_2  and  N_3 
REMARK    2  A    between atoms: C_2  and  C_14 
REMARK    3  A    between atoms: N_3  and  C_4 
REMARK    4  A    between atoms: C_4  and  C_6 
REMARK       I    between atoms: C_6  and  N_8 
REMARK    5  A    between atoms: C_14  and  N_16 
ROOT
HETATM    1  N   UNL     1     -42.607 -50.769  12.144  1.00  0.00     0.103 N 
HETATM    2  H   UNL     1     -43.324 -50.341  12.734  1.00  0.00     0.317 HD
ENDROOT
BRANCH   1   3
HETATM    3  C   UNL     1     -42.225 -52.096  12.669  1.00  0.00     0.241 C 
HETATM    4  C   UNL     1     -40.993 -52.632  11.924  1.00  0.00     0.045 C 
BRANCH   3   5
HETATM    5  C   UNL     1     -43.394 -53.133  12.806  1.00  0.00     0.136 C 
HETATM    6  C   UNL     1     -43.107 -54.234  13.837  1.00  0.00     0.036 C 
BRANCH   5   7
HETATM    7  N   UNL     1     -44.710 -52.538  13.076  1.00  0.00    -0.297 N 
HETATM    8  C   UNL     1     -45.214 -52.021  14.240  1.00  0.00     0.112 A 
HETATM    9  C   UNL     1     -46.411 -51.434  13.924  1.00  0.00     0.037 A 
HETATM   10  C   UNL     1     -46.585 -51.693  12.559  1.00  0.00     0.108 A 
HETATM   11  N   UNL     1     -45.562 -52.368  12.034  1.00  0.00    -0.310 N 
ATOM     12  HN  UNL     1     -45.446 -52.685  11.071  1.00  0.00     0.186 HD
ENDBRANCH   5   7
ENDBRANCH   3   5
ENDBRANCH   1   3
BRANCH   1  13
HETATM   13  C   UNL     1     -41.564 -49.762  11.863  1.00  0.00     0.308 C 
HETATM   14  C   UNL     1     -42.024 -48.530  11.082  1.00  0.00     0.053 C 
BRANCH  13  15
HETATM   15  C   UNL     1     -40.964 -49.249  13.204  1.00  0.00     0.253 C 
HETATM   16  O   UNL     1     -41.686 -48.846  14.120  1.00  0.00    -0.271 OA
HETATM   17  N   UNL     1     -39.579 -49.243  13.324  1.00  0.00    -0.346 N 
HETATM   18  C   UNL     1     -38.610 -49.839  12.398  1.00  0.00     0.152 C 
HETATM   19  C   UNL     1     -38.962 -48.753  14.558  1.00  0.00     0.152 C 
HETATM   20  C   UNL     1     -37.808 -50.930  13.119  1.00  0.00     0.187 C 
HETATM   21  O   UNL     1     -37.172 -50.407  14.296  1.00  0.00    -0.388 OA
HETATM   22  C   UNL     1     -38.143 -49.871  15.213  1.00  0.00     0.187 C 
ENDBRANCH  13  15
ENDBRANCH   1  13
TORSDOF 5
ENDMDL
