MODEL 1
REMARK VINA RESULT:      -6.5      0.000      0.000
REMARK  4 active torsions:
REMARK  status: ('A' for Active; 'I' for Inactive)
REMARK    1  A    between atoms: C_5  and  C_6 
REMARK    2  A    between atoms: C_6  and  C_7 
REMARK    3  A    between atoms: C_7  and  N_8 
REMARK       I    between atoms: N_8  and  C_9 
REMARK       I    between atoms: C_9  and  N_11 
REMARK    4  A    between atoms: N_11  and  C_12 
ROOT
HETATM    1  N   UNL     1     -41.850 -50.744  11.754  1.00  0.00    -0.343 N 
HETATM    2  C   UNL     1     -42.298 -51.620  12.707  1.00  0.00     0.316 C 
HETATM    3  O   UNL     1     -41.577 -52.161  13.533  1.00  0.00    -0.247 OA
HETATM    4  N   UNL     1     -43.640 -51.838  12.580  1.00  0.00    -0.339 N 
HETATM    5  H   UNL     1     -42.523 -50.116  11.329  1.00  0.00     0.164 HD
HETATM    6  H   UNL     1     -44.140 -51.177  12.008  1.00  0.00     0.164 HD
ENDROOT
BRANCH   1   7
HETATM    7  C   UNL     1     -40.486 -50.251  11.732  1.00  0.00     0.130 C 
BRANCH   7   8
HETATM    8  C   UNL     1     -40.432 -48.732  11.553  1.00  0.00     0.079 C 
BRANCH   8   9
HETATM    9  C   UNL     1     -41.649 -48.154  10.908  1.00  0.00     0.042 A 
HETATM   10  N   UNL     1     -41.878 -48.293   9.552  1.00  0.00    -0.342 N 
HETATM   11  C   UNL     1     -43.015 -47.661   9.353  1.00  0.00     0.120 A 
ATOM     12  HN  UNL     1     -41.299 -48.775   8.865  1.00  0.00     0.167 HD
HETATM   13  C   UNL     1     -43.766 -47.492   8.095  1.00  0.00     0.098 C 
HETATM   14  O   UNL     1     -43.554 -47.095  10.474  1.00  0.00    -0.301 OA
HETATM   15  C   UNL     1     -42.668 -47.412  11.469  1.00  0.00     0.073 A 
HETATM   16  C   UNL     1     -42.982 -46.917  12.821  1.00  0.00     0.079 C 
ENDBRANCH   8   9
ENDBRANCH   7   8
ENDBRANCH   1   7
BRANCH   4  17
HETATM   17  C   UNL     1     -44.442 -52.673  13.459  1.00  0.00     0.086 C 
HETATM   18  C   UNL     1     -45.846 -52.133  13.752  1.00  0.00     0.025 C 
HETATM   19  C   UNL     1     -46.508 -52.971  14.850  1.00  0.00     0.002 C 
HETATM   20  C   UNL     1     -46.518 -54.466  14.517  1.00  0.00     0.000 C 
HETATM   21  C   UNL     1     -45.149 -54.990  14.080  1.00  0.00     0.002 C 
HETATM   22  C   UNL     1     -44.533 -54.126  12.981  1.00  0.00     0.025 C 
ENDBRANCH   4  17
TORSDOF 4
ENDMDL
MODEL 2
REMARK VINA RESULT:      -6.4      1.466      1.732
REMARK  4 active torsions:
REMARK  status: ('A' for Active; 'I' for Inactive)
REMARK    1  A    between atoms: C_5  and  C_6 
REMARK    2  A    between atoms: C_6  and  C_7 
REMARK    3  A    between atoms: C_7  and  N_8 
REMARK       I    between atoms: N_8  and  C_9 
REMARK       I    between atoms: C_9  and  N_11 
REMARK    4  A    between atoms: N_11  and  C_12 
ROOT
HETATM    1  N   UNL     1     -40.849 -50.730  11.086  1.00  0.00    -0.343 N 
HETATM    2  C   UNL     1     -41.375 -51.298  12.216  1.00  0.00     0.316 C 
HETATM    3  O   UNL     1     -41.021 -51.018  13.353  1.00  0.00    -0.247 OA
HETATM    4  N   UNL     1     -42.307 -52.244  11.900  1.00  0.00    -0.339 N 
HETATM    5  H   UNL     1     -41.393 -50.774  10.232  1.00  0.00     0.164 HD
HETATM    6  H   UNL     1     -42.652 -52.222  10.954  1.00  0.00     0.164 HD
ENDROOT
BRANCH   1   7
HETATM    7  C   UNL     1     -39.920 -49.616  11.138  1.00  0.00     0.130 C 
BRANCH   7   8
HETATM    8  C   UNL     1     -40.567 -48.361  11.728  1.00  0.00     0.079 C 
BRANCH   8   9
HETATM    9  C   UNL     1     -41.443 -47.622  10.770  1.00  0.00     0.042 A 
HETATM   10  N   UNL     1     -42.476 -48.256  10.106  1.00  0.00    -0.342 N 
HETATM   11  C   UNL     1     -43.005 -47.310   9.359  1.00  0.00     0.120 A 
ATOM     12  HN  UNL     1     -42.763 -49.232  10.179  1.00  0.00     0.167 HD
HETATM   13  C   UNL     1     -44.158 -47.398   8.442  1.00  0.00     0.098 C 
HETATM   14  O   UNL     1     -42.389 -46.095   9.462  1.00  0.00    -0.301 OA
HETATM   15  C   UNL     1     -41.383 -46.304  10.366  1.00  0.00     0.073 A 
HETATM   16  C   UNL     1     -40.520 -45.151  10.679  1.00  0.00     0.079 C 
ENDBRANCH   8   9
ENDBRANCH   7   8
ENDBRANCH   1   7
BRANCH   4  17
HETATM   17  C   UNL     1     -43.093 -53.003  12.859  1.00  0.00     0.086 C 
HETATM   18  C   UNL     1     -44.468 -53.452  12.350  1.00  0.00     0.025 C 
HETATM   19  C   UNL     1     -45.283 -54.042  13.505  1.00  0.00     0.002 C 
HETATM   20  C   UNL     1     -44.537 -55.164  14.233  1.00  0.00     0.000 C 
HETATM   21  C   UNL     1     -43.108 -54.778  14.620  1.00  0.00     0.002 C 
HETATM   22  C   UNL     1     -42.334 -54.201  13.436  1.00  0.00     0.025 C 
ENDBRANCH   4  17
TORSDOF 4
ENDMDL
MODEL 3
REMARK VINA RESULT:      -6.4      0.966      1.501
REMARK  4 active torsions:
REMARK  status: ('A' for Active; 'I' for Inactive)
REMARK    1  A    between atoms: C_5  and  C_6 
REMARK    2  A    between atoms: C_6  and  C_7 
REMARK    3  A    between atoms: C_7  and  N_8 
REMARK       I    between atoms: N_8  and  C_9 
REMARK       I    between atoms: C_9  and  N_11 
REMARK    4  A    between atoms: N_11  and  C_12 
ROOT
HETATM    1  N   UNL     1     -41.105 -51.620  11.577  1.00  0.00    -0.343 N 
HETATM    2  C   UNL     1     -42.063 -52.033  12.465  1.00  0.00     0.316 C 
HETATM    3  O   UNL     1     -41.965 -51.923  13.679  1.00  0.00    -0.247 OA
HETATM    4  N   UNL     1     -43.111 -52.621  11.817  1.00  0.00    -0.339 N 
HETATM    5  H   UNL     1     -41.384 -51.457  10.615  1.00  0.00     0.164 HD
HETATM    6  H   UNL     1     -43.162 -52.456  10.824  1.00  0.00     0.164 HD
ENDROOT
BRANCH   1   7
HETATM    7  C   UNL     1     -39.939 -50.862  11.990  1.00  0.00     0.130 C 
BRANCH   7   8
HETATM    8  C   UNL     1     -39.831 -49.530  11.243  1.00  0.00     0.079 C 
BRANCH   8   9
HETATM    9  C   UNL     1     -41.133 -48.813  11.092  1.00  0.00     0.042 A 
HETATM   10  N   UNL     1     -41.642 -48.504   9.845  1.00  0.00    -0.342 N 
HETATM   11  C   UNL     1     -42.772 -47.881  10.106  1.00  0.00     0.120 A 
ATOM     12  HN  UNL     1     -41.236 -48.711   8.933  1.00  0.00     0.167 HD
HETATM   13  C   UNL     1     -43.760 -47.331   9.158  1.00  0.00     0.098 C 
HETATM   14  O   UNL     1     -43.046 -47.736  11.437  1.00  0.00    -0.301 OA
HETATM   15  C   UNL     1     -41.986 -48.333  12.065  1.00  0.00     0.073 A 
HETATM   16  C   UNL     1     -41.995 -48.324  13.538  1.00  0.00     0.079 C 
ENDBRANCH   8   9
ENDBRANCH   7   8
ENDBRANCH   1   7
BRANCH   4  17
HETATM   17  C   UNL     1     -44.316 -53.126  12.453  1.00  0.00     0.086 C 
HETATM   18  C   UNL     1     -44.097 -54.326  13.383  1.00  0.00     0.025 C 
HETATM   19  C   UNL     1     -45.448 -54.902  13.816  1.00  0.00     0.002 C 
HETATM   20  C   UNL     1     -46.362 -53.844  14.438  1.00  0.00     0.000 C 
HETATM   21  C   UNL     1     -46.475 -52.578  13.587  1.00  0.00     0.002 C 
HETATM   22  C   UNL     1     -45.104 -52.037  13.186  1.00  0.00     0.025 C 
ENDBRANCH   4  17
TORSDOF 4
ENDMDL
MODEL 4
REMARK VINA RESULT:      -6.0      1.832      6.666
REMARK  4 active torsions:
REMARK  status: ('A' for Active; 'I' for Inactive)
REMARK    1  A    between atoms: C_5  and  C_6 
REMARK    2  A    between atoms: C_6  and  C_7 
REMARK    3  A    between atoms: C_7  and  N_8 
REMARK       I    between atoms: N_8  and  C_9 
REMARK       I    between atoms: C_9  and  N_11 
REMARK    4  A    between atoms: N_11  and  C_12 
ROOT
HETATM    1  N   UNL     1     -40.875 -50.616  11.391  1.00  0.00    -0.343 N 
HETATM    2  C   UNL     1     -41.808 -49.622  11.517  1.00  0.00     0.316 C 
HETATM    3  O   UNL     1     -42.543 -49.490  12.485  1.00  0.00    -0.247 OA
HETATM    4  N   UNL     1     -41.836 -48.832  10.403  1.00  0.00    -0.339 N 
HETATM    5  H   UNL     1     -40.114 -50.477  10.735  1.00  0.00     0.164 HD
HETATM    6  H   UNL     1     -41.045 -48.918   9.785  1.00  0.00     0.164 HD
ENDROOT
BRANCH   1   7
HETATM    7  C   UNL     1     -40.560 -51.527  12.476  1.00  0.00     0.130 C 
BRANCH   7   8
HETATM    8  C   UNL     1     -41.140 -52.923  12.234  1.00  0.00     0.079 C 
BRANCH   8   9
HETATM    9  C   UNL     1     -42.525 -53.103  12.762  1.00  0.00     0.042 A 
HETATM   10  N   UNL     1     -43.601 -52.443  12.199  1.00  0.00    -0.342 N 
HETATM   11  C   UNL     1     -44.630 -52.834  12.920  1.00  0.00     0.120 A 
ATOM     12  HN  UNL     1     -43.597 -51.800  11.407  1.00  0.00     0.167 HD
HETATM   13  C   UNL     1     -46.051 -52.467  12.770  1.00  0.00     0.098 C 
HETATM   14  O   UNL     1     -44.318 -53.694  13.935  1.00  0.00    -0.301 OA
HETATM   15  C   UNL     1     -42.963 -53.859  13.831  1.00  0.00     0.073 A 
HETATM   16  C   UNL     1     -42.323 -54.743  14.820  1.00  0.00     0.079 C 
ENDBRANCH   8   9
ENDBRANCH   7   8
ENDBRANCH   1   7
BRANCH   4  17
HETATM   17  C   UNL     1     -42.674 -47.658  10.226  1.00  0.00     0.086 C 
HETATM   18  C   UNL     1     -41.959 -46.320  10.444  1.00  0.00     0.025 C 
HETATM   19  C   UNL     1     -42.981 -45.179  10.449  1.00  0.00     0.002 C 
HETATM   20  C   UNL     1     -43.856 -45.172   9.193  1.00  0.00     0.000 C 
HETATM   21  C   UNL     1     -44.461 -46.542   8.880  1.00  0.00     0.002 C 
HETATM   22  C   UNL     1     -43.404 -47.645   8.880  1.00  0.00     0.025 C 
ENDBRANCH   4  17
TORSDOF 4
ENDMDL
MODEL 5
REMARK VINA RESULT:      -5.9      1.557      1.870
REMARK  4 active torsions:
REMARK  status: ('A' for Active; 'I' for Inactive)
REMARK    1  A    between atoms: C_5  and  C_6 
REMARK    2  A    between atoms: C_6  and  C_7 
REMARK    3  A    between atoms: C_7  and  N_8 
REMARK       I    between atoms: N_8  and  C_9 
REMARK       I    between atoms: C_9  and  N_11 
REMARK    4  A    between atoms: N_11  and  C_12 
ROOT
HETATM    1  N   UNL     1     -42.087 -50.655  11.811  1.00  0.00    -0.343 N 
HETATM    2  C   UNL     1     -42.491 -51.557  12.760  1.00  0.00     0.316 C 
HETATM    3  O   UNL     1     -41.752 -52.041  13.604  1.00  0.00    -0.247 OA
HETATM    4  N   UNL     1     -43.811 -51.870  12.606  1.00  0.00    -0.339 N 
HETATM    5  H   UNL     1     -42.793 -50.078  11.368  1.00  0.00     0.164 HD
HETATM    6  H   UNL     1     -44.344 -51.249  12.019  1.00  0.00     0.164 HD
ENDROOT
BRANCH   1   7
HETATM    7  C   UNL     1     -40.761 -50.066  11.815  1.00  0.00     0.130 C 
BRANCH   7   8
HETATM    8  C   UNL     1     -40.736 -48.723  12.549  1.00  0.00     0.079 C 
BRANCH   8   9
HETATM    9  C   UNL     1     -40.834 -47.538  11.645  1.00  0.00     0.042 A 
HETATM   10  N   UNL     1     -39.732 -46.748  11.374  1.00  0.00    -0.342 N 
HETATM   11  C   UNL     1     -40.196 -45.817  10.567  1.00  0.00     0.120 A 
ATOM     12  HN  UNL     1     -38.779 -46.861  11.721  1.00  0.00     0.167 HD
HETATM   13  C   UNL     1     -39.467 -44.702   9.934  1.00  0.00     0.098 C 
HETATM   14  O   UNL     1     -41.530 -45.918  10.292  1.00  0.00    -0.301 OA
HETATM   15  C   UNL     1     -41.935 -47.022  10.992  1.00  0.00     0.073 A 
HETATM   16  C   UNL     1     -43.361 -47.383  10.899  1.00  0.00     0.079 C 
ENDBRANCH   8   9
ENDBRANCH   7   8
ENDBRANCH   1   7
BRANCH   4  17
HETATM   17  C   UNL     1     -44.571 -52.757  13.471  1.00  0.00     0.086 C 
HETATM   18  C   UNL     1     -46.006 -52.299  13.759  1.00  0.00     0.025 C 
HETATM   19  C   UNL     1     -46.626 -53.183  14.845  1.00  0.00     0.002 C 
HETATM   20  C   UNL     1     -46.549 -54.673  14.500  1.00  0.00     0.000 C 
HETATM   21  C   UNL     1     -45.150 -55.115  14.069  1.00  0.00     0.002 C 
HETATM   22  C   UNL     1     -44.576 -54.208  12.982  1.00  0.00     0.025 C 
ENDBRANCH   4  17
TORSDOF 4
ENDMDL
MODEL 6
REMARK VINA RESULT:      -5.8      2.052      6.614
REMARK  4 active torsions:
REMARK  status: ('A' for Active; 'I' for Inactive)
REMARK    1  A    between atoms: C_5  and  C_6 
REMARK    2  A    between atoms: C_6  and  C_7 
REMARK    3  A    between atoms: C_7  and  N_8 
REMARK       I    between atoms: N_8  and  C_9 
REMARK       I    between atoms: C_9  and  N_11 
REMARK    4  A    between atoms: N_11  and  C_12 
ROOT
HETATM    1  N   UNL     1     -42.806 -52.616  12.131  1.00  0.00    -0.343 N 
HETATM    2  C   UNL     1     -42.565 -51.400  12.713  1.00  0.00     0.316 C 
HETATM    3  O   UNL     1     -42.774 -51.150  13.891  1.00  0.00    -0.247 OA
HETATM    4  N   UNL     1     -42.105 -50.500  11.794  1.00  0.00    -0.339 N 
HETATM    5  H   UNL     1     -42.327 -52.834  11.264  1.00  0.00     0.164 HD
HETATM    6  H   UNL     1     -41.780 -50.889  10.924  1.00  0.00     0.164 HD
ENDROOT
BRANCH   1   7
HETATM    7  C   UNL     1     -43.193 -53.782  12.902  1.00  0.00     0.130 C 
BRANCH   7   8
HETATM    8  C   UNL     1     -44.704 -54.022  12.852  1.00  0.00     0.079 C 
BRANCH   8   9
HETATM    9  C   UNL     1     -45.510 -52.951  13.510  1.00  0.00     0.042 A 
HETATM   10  N   UNL     1     -45.431 -52.727  14.872  1.00  0.00    -0.342 N 
HETATM   11  C   UNL     1     -46.270 -51.735  15.083  1.00  0.00     0.120 A 
ATOM     12  HN  UNL     1     -44.855 -53.218  15.556  1.00  0.00     0.167 HD
HETATM   13  C   UNL     1     -46.592 -51.056  16.352  1.00  0.00     0.098 C 
HETATM   14  O   UNL     1     -46.916 -51.291  13.964  1.00  0.00    -0.301 OA
HETATM   15  C   UNL     1     -46.427 -52.080  12.958  1.00  0.00     0.073 A 
HETATM   16  C   UNL     1     -46.959 -51.839  11.605  1.00  0.00     0.079 C 
ENDBRANCH   8   9
ENDBRANCH   7   8
ENDBRANCH   1   7
BRANCH   4  17
HETATM   17  C   UNL     1     -41.705 -49.133  12.085  1.00  0.00     0.086 C 
HETATM   18  C   UNL     1     -40.373 -48.707  11.456  1.00  0.00     0.025 C 
HETATM   19  C   UNL     1     -39.951 -47.341  12.006  1.00  0.00     0.002 C 
HETATM   20  C   UNL     1     -41.041 -46.280  11.833  1.00  0.00     0.000 C 
HETATM   21  C   UNL     1     -42.412 -46.747  12.325  1.00  0.00     0.002 C 
HETATM   22  C   UNL     1     -42.791 -48.109  11.745  1.00  0.00     0.025 C 
ENDBRANCH   4  17
TORSDOF 4
ENDMDL
MODEL 7
REMARK VINA RESULT:      -5.8      3.057      3.804
REMARK  4 active torsions:
REMARK  status: ('A' for Active; 'I' for Inactive)
REMARK    1  A    between atoms: C_5  and  C_6 
REMARK    2  A    between atoms: C_6  and  C_7 
REMARK    3  A    between atoms: C_7  and  N_8 
REMARK       I    between atoms: N_8  and  C_9 
REMARK       I    between atoms: C_9  and  N_11 
REMARK    4  A    between atoms: N_11  and  C_12 
ROOT
HETATM    1  N   UNL     1     -40.483 -51.140  11.405  1.00  0.00    -0.343 N 
HETATM    2  C   UNL     1     -40.181 -51.564  12.672  1.00  0.00     0.316 C 
HETATM    3  O   UNL     1     -39.612 -50.876  13.508  1.00  0.00    -0.247 OA
HETATM    4  N   UNL     1     -40.558 -52.863  12.856  1.00  0.00    -0.339 N 
HETATM    5  H   UNL     1     -41.210 -51.632  10.897  1.00  0.00     0.164 HD
HETATM    6  H   UNL     1     -41.198 -53.236  12.173  1.00  0.00     0.164 HD
ENDROOT
BRANCH   1   7
HETATM    7  C   UNL     1     -40.292 -49.766  10.980  1.00  0.00     0.130 C 
BRANCH   7   8
HETATM    8  C   UNL     1     -41.587 -48.954  11.076  1.00  0.00     0.079 C 
BRANCH   8   9
HETATM    9  C   UNL     1     -41.446 -47.534  10.636  1.00  0.00     0.042 A 
HETATM   10  N   UNL     1     -40.242 -46.864  10.745  1.00  0.00    -0.342 N 
HETATM   11  C   UNL     1     -40.501 -45.661  10.277  1.00  0.00     0.120 A 
ATOM     12  HN  UNL     1     -39.357 -47.220  11.106  1.00  0.00     0.167 HD
HETATM   13  C   UNL     1     -39.586 -44.514  10.131  1.00  0.00     0.098 C 
HETATM   14  O   UNL     1     -41.794 -45.474   9.878  1.00  0.00    -0.301 OA
HETATM   15  C   UNL     1     -42.397 -46.680  10.116  1.00  0.00     0.073 A 
HETATM   16  C   UNL     1     -43.830 -46.783   9.789  1.00  0.00     0.079 C 
ENDBRANCH   8   9
ENDBRANCH   7   8
ENDBRANCH   1   7
BRANCH   4  17
HETATM   17  C   UNL     1     -40.430 -53.607  14.098  1.00  0.00     0.086 C 
HETATM   18  C   UNL     1     -41.694 -54.360  14.530  1.00  0.00     0.025 C 
HETATM   19  C   UNL     1     -41.511 -54.917  15.944  1.00  0.00     0.002 C 
HETATM   20  C   UNL     1     -40.250 -55.775  16.076  1.00  0.00     0.000 C 
HETATM   21  C   UNL     1     -39.001 -55.092  15.514  1.00  0.00     0.002 C 
HETATM   22  C   UNL     1     -39.230 -54.559  14.101  1.00  0.00     0.025 C 
ENDBRANCH   4  17
TORSDOF 4
ENDMDL
MODEL 8
REMARK VINA RESULT:      -5.7      2.628      3.645
REMARK  4 active torsions:
REMARK  status: ('A' for Active; 'I' for Inactive)
REMARK    1  A    between atoms: C_5  and  C_6 
REMARK    2  A    between atoms: C_6  and  C_7 
REMARK    3  A    between atoms: C_7  and  N_8 
REMARK       I    between atoms: N_8  and  C_9 
REMARK       I    between atoms: C_9  and  N_11 
REMARK    4  A    between atoms: N_11  and  C_12 
ROOT
HETATM    1  N   UNL     1     -40.780 -50.791  11.106  1.00  0.00    -0.343 N 
HETATM    2  C   UNL     1     -41.340 -51.334  12.232  1.00  0.00     0.316 C 
HETATM    3  O   UNL     1     -40.982 -51.070  13.371  1.00  0.00    -0.247 OA
HETATM    4  N   UNL     1     -42.313 -52.236  11.909  1.00  0.00    -0.339 N 
HETATM    5  H   UNL     1     -41.319 -50.811  10.247  1.00  0.00     0.164 HD
HETATM    6  H   UNL     1     -42.648 -52.199  10.960  1.00  0.00     0.164 HD
ENDROOT
BRANCH   1   7
HETATM    7  C   UNL     1     -39.801 -49.722  11.164  1.00  0.00     0.130 C 
BRANCH   7   8
HETATM    8  C   UNL     1     -40.455 -48.366  11.442  1.00  0.00     0.079 C 
BRANCH   8   9
HETATM    9  C   UNL     1     -39.844 -47.623  12.586  1.00  0.00     0.042 A 
HETATM   10  N   UNL     1     -39.376 -48.286  13.705  1.00  0.00    -0.342 N 
HETATM   11  C   UNL     1     -38.929 -47.323  14.483  1.00  0.00     0.120 A 
ATOM     12  HN  UNL     1     -39.377 -49.290  13.885  1.00  0.00     0.167 HD
HETATM   13  C   UNL     1     -38.297 -47.433  15.812  1.00  0.00     0.098 C 
HETATM   14  O   UNL     1     -39.080 -46.065  13.973  1.00  0.00    -0.301 OA
HETATM   15  C   UNL     1     -39.673 -46.265  12.756  1.00  0.00     0.073 A 
HETATM   16  C   UNL     1     -39.978 -45.063  11.959  1.00  0.00     0.079 C 
ENDBRANCH   8   9
ENDBRANCH   7   8
ENDBRANCH   1   7
BRANCH   4  17
HETATM   17  C   UNL     1     -43.140 -52.958  12.862  1.00  0.00     0.086 C 
HETATM   18  C   UNL     1     -44.529 -53.345  12.342  1.00  0.00     0.025 C 
HETATM   19  C   UNL     1     -45.379 -53.896  13.491  1.00  0.00     0.002 C 
HETATM   20  C   UNL     1     -44.691 -55.049  14.227  1.00  0.00     0.000 C 
HETATM   21  C   UNL     1     -43.250 -54.727  14.625  1.00  0.00     0.002 C 
HETATM   22  C   UNL     1     -42.440 -54.188  13.447  1.00  0.00     0.025 C 
ENDBRANCH   4  17
TORSDOF 4
ENDMDL
MODEL 9
REMARK VINA RESULT:      -5.6      2.475      4.300
REMARK  4 active torsions:
REMARK  status: ('A' for Active; 'I' for Inactive)
REMARK    1  A    between atoms: C_5  and  C_6 
REMARK    2  A    between atoms: C_6  and  C_7 
REMARK    3  A    between atoms: C_7  and  N_8 
REMARK       I    between atoms: N_8  and  C_9 
REMARK       I    between atoms: C_9  and  N_11 
REMARK    4  A    between atoms: N_11  and  C_12 
ROOT
HETATM    1  N   UNL     1     -41.481 -50.075  11.346  1.00  0.00    -0.343 N 
HETATM    2  C   UNL     1     -42.151 -50.638  12.400  1.00  0.00     0.316 C 
HETATM    3  O   UNL     1     -42.325 -50.084  13.476  1.00  0.00    -0.247 OA
HETATM    4  N   UNL     1     -42.556 -51.907  12.101  1.00  0.00    -0.339 N 
HETATM    5  H   UNL     1     -41.648 -50.448  10.419  1.00  0.00     0.164 HD
HETATM    6  H   UNL     1     -42.537 -52.155  11.124  1.00  0.00     0.164 HD
ENDROOT
BRANCH   1   7
HETATM    7  C   UNL     1     -41.042 -48.692  11.355  1.00  0.00     0.130 C 
BRANCH   7   8
HETATM    8  C   UNL     1     -39.535 -48.574  11.595  1.00  0.00     0.079 C 
BRANCH   8   9
HETATM    9  C   UNL     1     -39.090 -49.093  12.923  1.00  0.00     0.042 A 
HETATM   10  N   UNL     1     -39.605 -48.588  14.102  1.00  0.00    -0.342 N 
HETATM   11  C   UNL     1     -38.983 -49.269  15.041  1.00  0.00     0.120 A 
ATOM     12  HN  UNL     1     -40.306 -47.856  14.217  1.00  0.00     0.167 HD
HETATM   13  C   UNL     1     -39.140 -49.171  16.505  1.00  0.00     0.098 C 
HETATM   14  O   UNL     1     -38.078 -50.180  14.576  1.00  0.00    -0.301 OA
HETATM   15  C   UNL     1     -38.147 -50.058  13.215  1.00  0.00     0.073 A 
HETATM   16  C   UNL     1     -37.257 -50.925  12.423  1.00  0.00     0.079 C 
ENDBRANCH   8   9
ENDBRANCH   7   8
ENDBRANCH   1   7
BRANCH   4  17
HETATM   17  C   UNL     1     -43.334 -52.769  12.975  1.00  0.00     0.086 C 
HETATM   18  C   UNL     1     -44.723 -53.139  12.440  1.00  0.00     0.025 C 
HETATM   19  C   UNL     1     -45.525 -53.857  13.530  1.00  0.00     0.002 C 
HETATM   20  C   UNL     1     -44.781 -55.066  14.103  1.00  0.00     0.000 C 
HETATM   21  C   UNL     1     -43.341 -54.745  14.507  1.00  0.00     0.002 C 
HETATM   22  C   UNL     1     -42.580 -54.036  13.387  1.00  0.00     0.025 C 
ENDBRANCH   4  17
TORSDOF 4
ENDMDL
