MODEL 1
REMARK VINA RESULT:      -6.4      0.000      0.000
REMARK  5 active torsions:
REMARK  status: ('A' for Active; 'I' for Inactive)
REMARK    1  A    between atoms: C_2  and  C_3 
REMARK    2  A    between atoms: C_8  and  N_9 
REMARK       I    between atoms: N_9  and  C_10 
REMARK       I    between atoms: C_10  and  N_12 
REMARK    3  A    between atoms: N_12  and  C_13 
REMARK    4  A    between atoms: N_17  and  C_18 
REMARK    5  A    between atoms: C_18  and  C_19 
REMARK       I    between atoms: C_19  and  N_21 
ROOT
HETATM    1  N   UNL     1     -42.084 -51.853  12.025  1.00  0.00    -0.338 N 
HETATM    2  C   UNL     1     -42.035 -50.476  12.126  1.00  0.00     0.321 C 
HETATM    3  O   UNL     1     -42.481 -49.877  13.098  1.00  0.00    -0.247 OA
HETATM    4  N   UNL     1     -41.488 -49.889  11.009  1.00  0.00    -0.306 N 
HETATM    5  H   UNL     1     -41.347 -52.291  11.494  1.00  0.00     0.164 HD
HETATM    6  H   UNL     1     -41.377 -50.449  10.177  1.00  0.00     0.171 HD
ENDROOT
BRANCH   4   7
HETATM    7  C   UNL     1     -41.343 -48.517  10.879  1.00  0.00     0.070 A 
HETATM    8  C   UNL     1     -42.066 -47.583  10.106  1.00  0.00     0.138 A 
HETATM    9  N   UNL     1     -41.609 -46.337  10.246  1.00  0.00    -0.307 N 
HETATM   10  N   UNL     1     -40.577 -46.468  11.110  1.00  0.00    -0.293 N 
ATOM     11  HN  UNL     1     -41.956 -45.486   9.804  1.00  0.00     0.186 HD
HETATM   12  C   UNL     1     -40.400 -47.757  11.535  1.00  0.00     0.141 A 
BRANCH  10  13
HETATM   13  C   UNL     1     -39.893 -45.257  11.530  1.00  0.00     0.250 C 
BRANCH  13  14
HETATM   14  C   UNL     1     -39.937 -44.135  10.522  1.00  0.00     0.235 C 
HETATM   15  O   UNL     1     -39.566 -44.242   9.357  1.00  0.00    -0.272 OA
HETATM   16  N   UNL     1     -40.376 -42.924  10.985  1.00  0.00    -0.369 N 
HETATM   17  H   UNL     1     -40.806 -42.794  11.890  1.00  0.00     0.159 HD
HETATM   18  H   UNL     1     -40.429 -42.163  10.318  1.00  0.00     0.159 HD
ENDBRANCH  13  14
ENDBRANCH  10  13
ENDBRANCH   4   7
BRANCH   1  19
HETATM   19  C   UNL     1     -42.723 -52.630  13.081  1.00  0.00     0.090 C 
HETATM   20  C   UNL     1     -41.720 -53.331  14.039  1.00  0.00     0.008 C 
HETATM   21  C   UNL     1     -42.529 -54.005  15.166  1.00  0.00     0.007 C 
HETATM   22  C   UNL     1     -43.567 -54.991  14.630  1.00  0.00     0.001 C 
HETATM   23  C   UNL     1     -44.507 -54.330  13.625  1.00  0.00     0.002 C 
HETATM   24  C   UNL     1     -43.753 -53.609  12.506  1.00  0.00     0.026 C 
BRANCH  20  25
HETATM   25  C   UNL     1     -40.770 -54.313  13.314  1.00  0.00     0.002 C 
HETATM   26  C   UNL     1     -39.469 -54.568  14.068  1.00  0.00     0.005 C 
ENDBRANCH  20  25
ENDBRANCH   1  19
TORSDOF 5
ENDMDL
MODEL 2
REMARK VINA RESULT:      -6.2      1.747      2.146
REMARK  5 active torsions:
REMARK  status: ('A' for Active; 'I' for Inactive)
REMARK    1  A    between atoms: C_2  and  C_3 
REMARK    2  A    between atoms: C_8  and  N_9 
REMARK       I    between atoms: N_9  and  C_10 
REMARK       I    between atoms: C_10  and  N_12 
REMARK    3  A    between atoms: N_12  and  C_13 
REMARK    4  A    between atoms: N_17  and  C_18 
REMARK    5  A    between atoms: C_18  and  C_19 
REMARK       I    between atoms: C_19  and  N_21 
ROOT
HETATM    1  N   UNL     1     -43.522 -51.032  12.942  1.00  0.00    -0.338 N 
HETATM    2  C   UNL     1     -43.107 -49.731  12.729  1.00  0.00     0.321 C 
HETATM    3  O   UNL     1     -43.439 -48.813  13.469  1.00  0.00    -0.247 OA
HETATM    4  N   UNL     1     -42.347 -49.605  11.590  1.00  0.00    -0.306 N 
HETATM    5  H   UNL     1     -42.896 -51.760  12.630  1.00  0.00     0.164 HD
HETATM    6  H   UNL     1     -42.336 -50.369  10.931  1.00  0.00     0.171 HD
ENDROOT
BRANCH   4   7
HETATM    7  C   UNL     1     -41.826 -48.391  11.169  1.00  0.00     0.070 A 
HETATM    8  C   UNL     1     -42.187 -47.561  10.085  1.00  0.00     0.138 A 
HETATM    9  N   UNL     1     -41.430 -46.465  10.005  1.00  0.00    -0.307 N 
HETATM   10  N   UNL     1     -40.569 -46.592  11.040  1.00  0.00    -0.293 N 
ATOM     11  HN  UNL     1     -41.487 -45.709   9.324  1.00  0.00     0.186 HD
HETATM   12  C   UNL     1     -40.790 -47.723  11.780  1.00  0.00     0.141 A 
BRANCH  10  13
HETATM   13  C   UNL     1     -39.633 -45.506  11.275  1.00  0.00     0.250 C 
BRANCH  13  14
HETATM   14  C   UNL     1     -39.782 -44.339  10.330  1.00  0.00     0.235 C 
HETATM   15  O   UNL     1     -39.402 -44.348   9.162  1.00  0.00    -0.272 OA
HETATM   16  N   UNL     1     -40.333 -43.201  10.855  1.00  0.00    -0.369 N 
HETATM   17  H   UNL     1     -40.774 -43.162  11.763  1.00  0.00     0.159 HD
HETATM   18  H   UNL     1     -40.457 -42.414  10.230  1.00  0.00     0.159 HD
ENDBRANCH  13  14
ENDBRANCH  10  13
ENDBRANCH   4   7
BRANCH   1  19
HETATM   19  C   UNL     1     -44.417 -51.330  14.054  1.00  0.00     0.090 C 
HETATM   20  C   UNL     1     -44.008 -52.586  14.871  1.00  0.00     0.008 C 
HETATM   21  C   UNL     1     -44.965 -52.704  16.075  1.00  0.00     0.007 C 
HETATM   22  C   UNL     1     -46.432 -52.771  15.652  1.00  0.00     0.001 C 
HETATM   23  C   UNL     1     -46.822 -51.581  14.779  1.00  0.00     0.002 C 
HETATM   24  C   UNL     1     -45.877 -51.393  13.590  1.00  0.00     0.026 C 
BRANCH  20  25
HETATM   25  C   UNL     1     -43.955 -53.877  14.020  1.00  0.00     0.002 C 
HETATM   26  C   UNL     1     -43.408 -55.082  14.777  1.00  0.00     0.005 C 
ENDBRANCH  20  25
ENDBRANCH   1  19
TORSDOF 5
ENDMDL
MODEL 3
REMARK VINA RESULT:      -5.9      1.792      2.804
REMARK  5 active torsions:
REMARK  status: ('A' for Active; 'I' for Inactive)
REMARK    1  A    between atoms: C_2  and  C_3 
REMARK    2  A    between atoms: C_8  and  N_9 
REMARK       I    between atoms: N_9  and  C_10 
REMARK       I    between atoms: C_10  and  N_12 
REMARK    3  A    between atoms: N_12  and  C_13 
REMARK    4  A    between atoms: N_17  and  C_18 
REMARK    5  A    between atoms: C_18  and  C_19 
REMARK       I    between atoms: C_19  and  N_21 
ROOT
HETATM    1  N   UNL     1     -44.018 -50.588  12.998  1.00  0.00    -0.338 N 
HETATM    2  C   UNL     1     -42.909 -49.937  12.491  1.00  0.00     0.321 C 
HETATM    3  O   UNL     1     -41.842 -50.511  12.312  1.00  0.00    -0.247 OA
HETATM    4  N   UNL     1     -43.142 -48.599  12.274  1.00  0.00    -0.306 N 
HETATM    5  H   UNL     1     -44.917 -50.240  12.703  1.00  0.00     0.164 HD
HETATM    6  H   UNL     1     -43.968 -48.183  12.677  1.00  0.00     0.171 HD
ENDROOT
BRANCH   4   7
HETATM    7  C   UNL     1     -42.174 -47.742  11.776  1.00  0.00     0.070 A 
HETATM    8  C   UNL     1     -41.515 -47.723  10.527  1.00  0.00     0.138 A 
HETATM    9  N   UNL     1     -40.627 -46.732  10.431  1.00  0.00    -0.307 N 
HETATM   10  N   UNL     1     -40.707 -46.110  11.629  1.00  0.00    -0.293 N 
ATOM     11  HN  UNL     1     -40.028 -46.498   9.639  1.00  0.00     0.186 HD
HETATM   12  C   UNL     1     -41.643 -46.670  12.457  1.00  0.00     0.141 A 
BRANCH  10  13
HETATM   13  C   UNL     1     -39.895 -44.922  11.827  1.00  0.00     0.250 C 
BRANCH  13  14
HETATM   14  C   UNL     1     -39.991 -43.909  10.712  1.00  0.00     0.235 C 
HETATM   15  O   UNL     1     -39.635 -44.122   9.557  1.00  0.00    -0.272 OA
HETATM   16  N   UNL     1     -40.462 -42.671  11.059  1.00  0.00    -0.369 N 
HETATM   17  H   UNL     1     -40.882 -42.464  11.955  1.00  0.00     0.159 HD
HETATM   18  H   UNL     1     -40.551 -41.984  10.320  1.00  0.00     0.159 HD
ENDBRANCH  13  14
ENDBRANCH  10  13
ENDBRANCH   4   7
BRANCH   1  19
HETATM   19  C   UNL     1     -43.917 -51.992  13.377  1.00  0.00     0.090 C 
HETATM   20  C   UNL     1     -44.921 -52.916  12.634  1.00  0.00     0.008 C 
HETATM   21  C   UNL     1     -44.618 -54.373  13.039  1.00  0.00     0.007 C 
HETATM   22  C   UNL     1     -44.684 -54.585  14.552  1.00  0.00     0.001 C 
HETATM   23  C   UNL     1     -43.760 -53.624  15.296  1.00  0.00     0.002 C 
HETATM   24  C   UNL     1     -43.991 -52.165  14.899  1.00  0.00     0.026 C 
BRANCH  20  25
HETATM   25  C   UNL     1     -46.399 -52.525  12.869  1.00  0.00     0.002 C 
HETATM   26  C   UNL     1     -47.020 -51.767  11.700  1.00  0.00     0.005 C 
ENDBRANCH  20  25
ENDBRANCH   1  19
TORSDOF 5
ENDMDL
MODEL 4
REMARK VINA RESULT:      -5.5      2.502      8.456
REMARK  5 active torsions:
REMARK  status: ('A' for Active; 'I' for Inactive)
REMARK    1  A    between atoms: C_2  and  C_3 
REMARK    2  A    between atoms: C_8  and  N_9 
REMARK       I    between atoms: N_9  and  C_10 
REMARK       I    between atoms: C_10  and  N_12 
REMARK    3  A    between atoms: N_12  and  C_13 
REMARK    4  A    between atoms: N_17  and  C_18 
REMARK    5  A    between atoms: C_18  and  C_19 
REMARK       I    between atoms: C_19  and  N_21 
ROOT
HETATM    1  N   UNL     1     -41.642 -49.221  11.096  1.00  0.00    -0.338 N 
HETATM    2  C   UNL     1     -41.786 -50.158  12.102  1.00  0.00     0.321 C 
HETATM    3  O   UNL     1     -41.912 -49.837  13.277  1.00  0.00    -0.247 OA
HETATM    4  N   UNL     1     -41.717 -51.447  11.629  1.00  0.00    -0.306 N 
HETATM    5  H   UNL     1     -41.995 -49.480  10.187  1.00  0.00     0.164 HD
HETATM    6  H   UNL     1     -41.372 -51.599  10.692  1.00  0.00     0.171 HD
ENDROOT
BRANCH   4   7
HETATM    7  C   UNL     1     -41.827 -52.554  12.455  1.00  0.00     0.070 A 
HETATM    8  C   UNL     1     -40.851 -53.473  12.899  1.00  0.00     0.138 A 
HETATM    9  N   UNL     1     -41.361 -54.422  13.688  1.00  0.00    -0.307 N 
HETATM   10  N   UNL     1     -42.677 -54.117  13.748  1.00  0.00    -0.293 N 
ATOM     11  HN  UNL     1     -40.872 -55.194  14.139  1.00  0.00     0.186 HD
HETATM   12  C   UNL     1     -42.994 -52.987  13.043  1.00  0.00     0.141 A 
BRANCH  10  13
HETATM   13  C   UNL     1     -43.519 -54.938  14.601  1.00  0.00     0.250 C 
BRANCH  13  14
HETATM   14  C   UNL     1     -44.980 -54.558  14.585  1.00  0.00     0.235 C 
HETATM   15  O   UNL     1     -45.477 -53.708  15.318  1.00  0.00    -0.272 OA
HETATM   16  N   UNL     1     -45.778 -55.262  13.724  1.00  0.00    -0.369 N 
HETATM   17  H   UNL     1     -45.421 -55.885  13.013  1.00  0.00     0.159 HD
HETATM   18  H   UNL     1     -46.759 -55.009  13.687  1.00  0.00     0.159 HD
ENDBRANCH  13  14
ENDBRANCH  10  13
ENDBRANCH   4   7
BRANCH   1  19
HETATM   19  C   UNL     1     -41.594 -47.803  11.434  1.00  0.00     0.090 C 
HETATM   20  C   UNL     1     -42.836 -47.002  10.955  1.00  0.00     0.008 C 
HETATM   21  C   UNL     1     -42.706 -45.559  11.486  1.00  0.00     0.007 C 
HETATM   22  C   UNL     1     -41.407 -44.888  11.041  1.00  0.00     0.001 C 
HETATM   23  C   UNL     1     -40.183 -45.711  11.436  1.00  0.00     0.002 C 
HETATM   24  C   UNL     1     -40.280 -47.164  10.969  1.00  0.00     0.026 C 
BRANCH  20  25
HETATM   25  C   UNL     1     -43.046 -47.059   9.423  1.00  0.00     0.002 C 
HETATM   26  C   UNL     1     -44.216 -46.210   8.939  1.00  0.00     0.005 C 
ENDBRANCH  20  25
ENDBRANCH   1  19
TORSDOF 5
ENDMDL
MODEL 5
REMARK VINA RESULT:      -5.2      2.571      8.546
REMARK  5 active torsions:
REMARK  status: ('A' for Active; 'I' for Inactive)
REMARK    1  A    between atoms: C_2  and  C_3 
REMARK    2  A    between atoms: C_8  and  N_9 
REMARK       I    between atoms: N_9  and  C_10 
REMARK       I    between atoms: C_10  and  N_12 
REMARK    3  A    between atoms: N_12  and  C_13 
REMARK    4  A    between atoms: N_17  and  C_18 
REMARK    5  A    between atoms: C_18  and  C_19 
REMARK       I    between atoms: C_19  and  N_21 
ROOT
HETATM    1  N   UNL     1     -42.156 -49.206  11.327  1.00  0.00    -0.338 N 
HETATM    2  C   UNL     1     -41.862 -50.170  12.273  1.00  0.00     0.321 C 
HETATM    3  O   UNL     1     -41.349 -49.890  13.349  1.00  0.00    -0.247 OA
HETATM    4  N   UNL     1     -42.161 -51.439  11.836  1.00  0.00    -0.306 N 
HETATM    5  H   UNL     1     -42.941 -49.395  10.722  1.00  0.00     0.164 HD
HETATM    6  H   UNL     1     -42.351 -51.579  10.855  1.00  0.00     0.171 HD
ENDROOT
BRANCH   4   7
HETATM    7  C   UNL     1     -41.943 -52.568  12.611  1.00  0.00     0.070 A 
HETATM    8  C   UNL     1     -40.810 -53.403  12.723  1.00  0.00     0.138 A 
HETATM    9  N   UNL     1     -40.998 -54.409  13.581  1.00  0.00    -0.307 N 
HETATM   10  N   UNL     1     -42.264 -54.226  14.019  1.00  0.00    -0.293 N 
ATOM     11  HN  UNL     1     -40.341 -55.142  13.843  1.00  0.00     0.186 HD
HETATM   12  C   UNL     1     -42.858 -53.116  13.480  1.00  0.00     0.141 A 
BRANCH  10  13
HETATM   13  C   UNL     1     -42.762 -55.137  15.035  1.00  0.00     0.250 C 
BRANCH  13  14
HETATM   14  C   UNL     1     -41.960 -55.144  16.313  1.00  0.00     0.235 C 
HETATM   15  O   UNL     1     -40.971 -54.444  16.508  1.00  0.00    -0.272 OA
HETATM   16  N   UNL     1     -42.359 -56.035  17.273  1.00  0.00    -0.369 N 
HETATM   17  H   UNL     1     -43.227 -56.551  17.230  1.00  0.00     0.159 HD
HETATM   18  H   UNL     1     -41.844 -56.041  18.145  1.00  0.00     0.159 HD
ENDBRANCH  13  14
ENDBRANCH  10  13
ENDBRANCH   4   7
BRANCH   1  19
HETATM   19  C   UNL     1     -41.813 -47.813  11.587  1.00  0.00     0.090 C 
HETATM   20  C   UNL     1     -42.834 -46.796  11.008  1.00  0.00     0.008 C 
HETATM   21  C   UNL     1     -42.411 -45.384  11.463  1.00  0.00     0.007 C 
HETATM   22  C   UNL     1     -40.983 -45.038  11.042  1.00  0.00     0.001 C 
HETATM   23  C   UNL     1     -39.981 -46.078  11.538  1.00  0.00     0.002 C 
HETATM   24  C   UNL     1     -40.377 -47.503  11.149  1.00  0.00     0.026 C 
BRANCH  20  25
HETATM   25  C   UNL     1     -43.001 -46.905   9.474  1.00  0.00     0.002 C 
HETATM   26  C   UNL     1     -44.256 -46.218   8.949  1.00  0.00     0.005 C 
ENDBRANCH  20  25
ENDBRANCH   1  19
TORSDOF 5
ENDMDL
MODEL 6
REMARK VINA RESULT:      -5.1      1.935      3.032
REMARK  5 active torsions:
REMARK  status: ('A' for Active; 'I' for Inactive)
REMARK    1  A    between atoms: C_2  and  C_3 
REMARK    2  A    between atoms: C_8  and  N_9 
REMARK       I    between atoms: N_9  and  C_10 
REMARK       I    between atoms: C_10  and  N_12 
REMARK    3  A    between atoms: N_12  and  C_13 
REMARK    4  A    between atoms: N_17  and  C_18 
REMARK    5  A    between atoms: C_18  and  C_19 
REMARK       I    between atoms: C_19  and  N_21 
ROOT
HETATM    1  N   UNL     1     -42.737 -51.044  14.173  1.00  0.00    -0.338 N 
HETATM    2  C   UNL     1     -42.257 -50.170  13.217  1.00  0.00     0.321 C 
HETATM    3  O   UNL     1     -42.594 -50.240  12.041  1.00  0.00    -0.247 OA
HETATM    4  N   UNL     1     -41.343 -49.280  13.734  1.00  0.00    -0.306 N 
HETATM    5  H   UNL     1     -42.809 -50.686  15.114  1.00  0.00     0.164 HD
HETATM    6  H   UNL     1     -40.960 -49.462  14.649  1.00  0.00     0.171 HD
ENDROOT
BRANCH   4   7
HETATM    7  C   UNL     1     -40.721 -48.313  12.960  1.00  0.00     0.070 A 
HETATM    8  C   UNL     1     -40.008 -48.424  11.747  1.00  0.00     0.138 A 
HETATM    9  N   UNL     1     -39.544 -47.248  11.315  1.00  0.00    -0.307 N 
HETATM   10  N   UNL     1     -39.954 -46.374  12.262  1.00  0.00    -0.293 N 
ATOM     11  HN  UNL     1     -39.008 -47.056  10.470  1.00  0.00     0.186 HD
HETATM   12  C   UNL     1     -40.686 -46.969  13.254  1.00  0.00     0.141 A 
BRANCH  10  13
HETATM   13  C   UNL     1     -39.660 -44.967  12.051  1.00  0.00     0.250 C 
BRANCH  13  14
HETATM   14  C   UNL     1     -40.449 -44.326  10.936  1.00  0.00     0.235 C 
HETATM   15  O   UNL     1     -40.996 -44.952  10.033  1.00  0.00    -0.272 OA
HETATM   16  N   UNL     1     -40.494 -42.958  10.936  1.00  0.00    -0.369 N 
HETATM   17  H   UNL     1     -40.172 -42.388  11.707  1.00  0.00     0.159 HD
HETATM   18  H   UNL     1     -41.034 -42.510  10.205  1.00  0.00     0.159 HD
ENDBRANCH  13  14
ENDBRANCH  10  13
ENDBRANCH   4   7
BRANCH   1  19
HETATM   19  C   UNL     1     -43.643 -52.116  13.778  1.00  0.00     0.090 C 
HETATM   20  C   UNL     1     -45.146 -51.735  13.871  1.00  0.00     0.008 C 
HETATM   21  C   UNL     1     -45.972 -52.911  13.310  1.00  0.00     0.007 C 
HETATM   22  C   UNL     1     -45.687 -54.225  14.037  1.00  0.00     0.001 C 
HETATM   23  C   UNL     1     -44.198 -54.566  14.021  1.00  0.00     0.002 C 
HETATM   24  C   UNL     1     -43.329 -53.415  14.530  1.00  0.00     0.026 C 
BRANCH  20  25
HETATM   25  C   UNL     1     -45.584 -51.323  15.297  1.00  0.00     0.002 C 
HETATM   26  C   UNL     1     -47.094 -51.353  15.500  1.00  0.00     0.005 C 
ENDBRANCH  20  25
ENDBRANCH   1  19
TORSDOF 5
ENDMDL
MODEL 7
REMARK VINA RESULT:      -5.1      2.265      3.648
REMARK  5 active torsions:
REMARK  status: ('A' for Active; 'I' for Inactive)
REMARK    1  A    between atoms: C_2  and  C_3 
REMARK    2  A    between atoms: C_8  and  N_9 
REMARK       I    between atoms: N_9  and  C_10 
REMARK       I    between atoms: C_10  and  N_12 
REMARK    3  A    between atoms: N_12  and  C_13 
REMARK    4  A    between atoms: N_17  and  C_18 
REMARK    5  A    between atoms: C_18  and  C_19 
REMARK       I    between atoms: C_19  and  N_21 
ROOT
HETATM    1  N   UNL     1     -40.674 -50.934  14.534  1.00  0.00    -0.338 N 
HETATM    2  C   UNL     1     -40.702 -50.421  13.251  1.00  0.00     0.321 C 
HETATM    3  O   UNL     1     -40.179 -51.000  12.307  1.00  0.00    -0.247 OA
HETATM    4  N   UNL     1     -41.325 -49.196  13.191  1.00  0.00    -0.306 N 
HETATM    5  H   UNL     1     -41.454 -50.697  15.129  1.00  0.00     0.164 HD
HETATM    6  H   UNL     1     -41.503 -48.704  14.054  1.00  0.00     0.171 HD
ENDROOT
BRANCH   4   7
HETATM    7  C   UNL     1     -41.465 -48.485  12.009  1.00  0.00     0.070 A 
HETATM    8  C   UNL     1     -40.594 -47.573  11.375  1.00  0.00     0.138 A 
HETATM    9  N   UNL     1     -41.101 -47.085  10.240  1.00  0.00    -0.307 N 
HETATM   10  N   UNL     1     -42.311 -47.680  10.146  1.00  0.00    -0.293 N 
ATOM     11  HN  UNL     1     -40.675 -46.419   9.596  1.00  0.00     0.186 HD
HETATM   12  C   UNL     1     -42.558 -48.549  11.175  1.00  0.00     0.141 A 
BRANCH  10  13
HETATM   13  C   UNL     1     -43.106 -47.406   8.962  1.00  0.00     0.250 C 
BRANCH  13  14
HETATM   14  C   UNL     1     -44.052 -46.239   9.103  1.00  0.00     0.235 C 
HETATM   15  O   UNL     1     -43.727 -45.066   8.939  1.00  0.00    -0.272 OA
HETATM   16  N   UNL     1     -45.331 -46.540   9.486  1.00  0.00    -0.369 N 
HETATM   17  H   UNL     1     -45.697 -47.482   9.521  1.00  0.00     0.159 HD
HETATM   18  H   UNL     1     -45.986 -45.771   9.568  1.00  0.00     0.159 HD
ENDBRANCH  13  14
ENDBRANCH  10  13
ENDBRANCH   4   7
BRANCH   1  19
HETATM   19  C   UNL     1     -39.967 -52.182  14.796  1.00  0.00     0.090 C 
HETATM   20  C   UNL     1     -40.766 -53.453  14.395  1.00  0.00     0.008 C 
HETATM   21  C   UNL     1     -39.854 -54.677  14.612  1.00  0.00     0.007 C 
HETATM   22  C   UNL     1     -39.337 -54.776  16.047  1.00  0.00     0.001 C 
HETATM   23  C   UNL     1     -38.620 -53.497  16.477  1.00  0.00     0.002 C 
HETATM   24  C   UNL     1     -39.468 -52.246  16.244  1.00  0.00     0.026 C 
BRANCH  20  25
HETATM   25  C   UNL     1     -42.121 -53.578  15.132  1.00  0.00     0.002 C 
HETATM   26  C   UNL     1     -42.865 -54.871  14.818  1.00  0.00     0.005 C 
ENDBRANCH  20  25
ENDBRANCH   1  19
TORSDOF 5
ENDMDL
MODEL 8
REMARK VINA RESULT:      -5.1      2.489      8.357
REMARK  5 active torsions:
REMARK  status: ('A' for Active; 'I' for Inactive)
REMARK    1  A    between atoms: C_2  and  C_3 
REMARK    2  A    between atoms: C_8  and  N_9 
REMARK       I    between atoms: N_9  and  C_10 
REMARK       I    between atoms: C_10  and  N_12 
REMARK    3  A    between atoms: N_12  and  C_13 
REMARK    4  A    between atoms: N_17  and  C_18 
REMARK    5  A    between atoms: C_18  and  C_19 
REMARK       I    between atoms: C_19  and  N_21 
ROOT
HETATM    1  N   UNL     1     -41.548 -48.162  11.619  1.00  0.00    -0.338 N 
HETATM    2  C   UNL     1     -41.179 -49.370  12.181  1.00  0.00     0.321 C 
HETATM    3  O   UNL     1     -40.187 -49.482  12.891  1.00  0.00    -0.247 OA
HETATM    4  N   UNL     1     -42.013 -50.397  11.805  1.00  0.00    -0.306 N 
HETATM    5  H   UNL     1     -42.535 -48.023  11.461  1.00  0.00     0.164 HD
HETATM    6  H   UNL     1     -42.647 -50.245  11.035  1.00  0.00     0.171 HD
ENDROOT
BRANCH   4   7
HETATM    7  C   UNL     1     -41.835 -51.702  12.238  1.00  0.00     0.070 A 
HETATM    8  C   UNL     1     -40.970 -52.716  11.774  1.00  0.00     0.138 A 
HETATM    9  N   UNL     1     -41.104 -53.856  12.455  1.00  0.00    -0.307 N 
HETATM   10  N   UNL     1     -42.069 -53.578  13.361  1.00  0.00    -0.293 N 
ATOM     11  HN  UNL     1     -40.598 -54.731  12.323  1.00  0.00     0.186 HD
HETATM   12  C   UNL     1     -42.516 -52.287  13.282  1.00  0.00     0.141 A 
BRANCH  10  13
HETATM   13  C   UNL     1     -42.410 -54.614  14.320  1.00  0.00     0.250 C 
BRANCH  13  14
HETATM   14  C   UNL     1     -43.870 -54.656  14.701  1.00  0.00     0.235 C 
HETATM   15  O   UNL     1     -44.764 -55.045  13.955  1.00  0.00    -0.272 OA
HETATM   16  N   UNL     1     -44.185 -54.176  15.943  1.00  0.00    -0.369 N 
HETATM   17  H   UNL     1     -43.495 -53.954  16.648  1.00  0.00     0.159 HD
HETATM   18  H   UNL     1     -45.157 -54.212  16.224  1.00  0.00     0.159 HD
ENDBRANCH  13  14
ENDBRANCH  10  13
ENDBRANCH   4   7
BRANCH   1  19
HETATM   19  C   UNL     1     -40.716 -46.984  11.835  1.00  0.00     0.090 C 
HETATM   20  C   UNL     1     -41.115 -46.154  13.086  1.00  0.00     0.008 C 
HETATM   21  C   UNL     1     -40.082 -45.021  13.256  1.00  0.00     0.007 C 
HETATM   22  C   UNL     1     -39.975 -44.137  12.014  1.00  0.00     0.001 C 
HETATM   23  C   UNL     1     -39.663 -44.956  10.763  1.00  0.00     0.002 C 
HETATM   24  C   UNL     1     -40.635 -46.121  10.571  1.00  0.00     0.026 C 
BRANCH  20  25
HETATM   25  C   UNL     1     -42.571 -45.633  13.033  1.00  0.00     0.002 C 
HETATM   26  C   UNL     1     -43.317 -45.782  14.354  1.00  0.00     0.005 C 
ENDBRANCH  20  25
ENDBRANCH   1  19
TORSDOF 5
ENDMDL
MODEL 9
REMARK VINA RESULT:      -4.9      2.068      2.225
REMARK  5 active torsions:
REMARK  status: ('A' for Active; 'I' for Inactive)
REMARK    1  A    between atoms: C_2  and  C_3 
REMARK    2  A    between atoms: C_8  and  N_9 
REMARK       I    between atoms: N_9  and  C_10 
REMARK       I    between atoms: C_10  and  N_12 
REMARK    3  A    between atoms: N_12  and  C_13 
REMARK    4  A    between atoms: N_17  and  C_18 
REMARK    5  A    between atoms: C_18  and  C_19 
REMARK       I    between atoms: C_19  and  N_21 
ROOT
HETATM    1  N   UNL     1     -43.753 -50.861  12.999  1.00  0.00    -0.338 N 
HETATM    2  C   UNL     1     -43.107 -49.643  12.902  1.00  0.00     0.321 C 
HETATM    3  O   UNL     1     -42.563 -49.116  13.864  1.00  0.00    -0.247 OA
HETATM    4  N   UNL     1     -43.201 -49.100  11.641  1.00  0.00    -0.306 N 
HETATM    5  H   UNL     1     -43.763 -51.432  12.167  1.00  0.00     0.164 HD
HETATM    6  H   UNL     1     -43.869 -49.495  10.996  1.00  0.00     0.171 HD
ENDROOT
BRANCH   4   7
HETATM    7  C   UNL     1     -42.637 -47.879  11.309  1.00  0.00     0.070 A 
HETATM    8  C   UNL     1     -41.705 -47.539  10.304  1.00  0.00     0.138 A 
HETATM    9  N   UNL     1     -41.396 -46.240  10.310  1.00  0.00    -0.307 N 
HETATM   10  N   UNL     1     -42.128 -45.740  11.332  1.00  0.00    -0.293 N 
ATOM     11  HN  UNL     1     -40.758 -45.742   9.691  1.00  0.00     0.186 HD
HETATM   12  C   UNL     1     -42.907 -46.686  11.941  1.00  0.00     0.141 A 
BRANCH  10  13
HETATM   13  C   UNL     1     -42.066 -44.307  11.565  1.00  0.00     0.250 C 
BRANCH  13  14
HETATM   14  C   UNL     1     -43.029 -43.498  10.732  1.00  0.00     0.235 C 
HETATM   15  O   UNL     1     -43.540 -43.896   9.690  1.00  0.00    -0.272 OA
HETATM   16  N   UNL     1     -43.287 -42.227  11.170  1.00  0.00    -0.369 N 
HETATM   17  H   UNL     1     -43.000 -41.878  12.074  1.00  0.00     0.159 HD
HETATM   18  H   UNL     1     -43.945 -41.674  10.633  1.00  0.00     0.159 HD
ENDBRANCH  13  14
ENDBRANCH  10  13
ENDBRANCH   4   7
BRANCH   1  19
HETATM   19  C   UNL     1     -43.835 -51.532  14.291  1.00  0.00     0.090 C 
HETATM   20  C   UNL     1     -42.716 -52.584  14.523  1.00  0.00     0.008 C 
HETATM   21  C   UNL     1     -42.855 -53.117  15.965  1.00  0.00     0.007 C 
HETATM   22  C   UNL     1     -44.238 -53.707  16.239  1.00  0.00     0.001 C 
HETATM   23  C   UNL     1     -45.349 -52.705  15.934  1.00  0.00     0.002 C 
HETATM   24  C   UNL     1     -45.233 -52.114  14.528  1.00  0.00     0.026 C 
BRANCH  20  25
HETATM   25  C   UNL     1     -42.711 -53.713  13.466  1.00  0.00     0.002 C 
HETATM   26  C   UNL     1     -41.311 -54.128  13.027  1.00  0.00     0.005 C 
ENDBRANCH  20  25
ENDBRANCH   1  19
TORSDOF 5
ENDMDL
