MODEL 1
REMARK VINA RESULT:      -5.8      0.000      0.000
REMARK  5 active torsions:
REMARK  status: ('A' for Active; 'I' for Inactive)
REMARK    1  A    between atoms: C_2  and  C_3 
REMARK    2  A    between atoms: C_2  and  C_13 
REMARK       I    between atoms: C_3  and  N_5 
REMARK    3  A    between atoms: N_5  and  C_6 
REMARK    4  A    between atoms: C_6  and  C_7 
REMARK    5  A    between atoms: C_7  and  C_8 
ROOT
HETATM    1  C   UNL     1     -40.494 -51.137  14.978  1.00  0.00     0.025 C 
HETATM    2  C   UNL     1     -40.165 -51.531  13.534  1.00  0.00     0.110 C 
ENDROOT
BRANCH   2   3
HETATM    3  C   UNL     1     -40.926 -52.830  13.241  1.00  0.00     0.226 C 
HETATM    4  O   UNL     1     -40.560 -53.596  12.350  1.00  0.00    -0.273 OA
HETATM    5  N   UNL     1     -42.005 -53.104  14.057  1.00  0.00    -0.360 N 
HETATM    6  H   UNL     1     -42.182 -52.501  14.852  1.00  0.00     0.162 HD
BRANCH   5   7
HETATM    7  C   UNL     1     -42.725 -54.359  13.945  1.00  0.00     0.123 C 
BRANCH   7   8
HETATM    8  C   UNL     1     -44.195 -54.212  14.337  1.00  0.00     0.024 C 
BRANCH   8   9
HETATM    9  C   UNL     1     -44.758 -52.835  13.966  1.00  0.00    -0.013 C 
HETATM   10  C   UNL     1     -45.620 -52.223  15.076  1.00  0.00     0.005 C 
HETATM   11  C   UNL     1     -46.707 -51.405  14.373  1.00  0.00     0.000 C 
HETATM   12  C   UNL     1     -46.437 -51.533  12.881  1.00  0.00     0.000 C 
HETATM   13  C   UNL     1     -45.681 -52.845  12.748  1.00  0.00     0.005 C 
ENDBRANCH   8   9
ENDBRANCH   7   8
ENDBRANCH   5   7
ENDBRANCH   2   3
BRANCH   2  14
HETATM   14  C   UNL     1     -40.400 -50.440  12.504  1.00  0.00     0.002 A 
HETATM   15  C   UNL     1     -39.423 -49.761  11.702  1.00  0.00     0.031 A 
HETATM   16  C   UNL     1     -37.942 -49.898  11.670  1.00  0.00     0.070 C 
HETATM   17  N   UNL     1     -39.985 -48.873  10.877  1.00  0.00    -0.303 N 
HETATM   18  N   UNL     1     -41.285 -48.903  11.183  1.00  0.00    -0.300 N 
ATOM     19  HN  UNL     1     -39.524 -48.299  10.172  1.00  0.00     0.186 HD
HETATM   20  C   UNL     1     -42.189 -48.046  10.451  1.00  0.00     0.177 C 
HETATM   21  C   UNL     1     -41.587 -49.770  12.202  1.00  0.00     0.033 A 
HETATM   22  C   UNL     1     -42.949 -49.850  12.800  1.00  0.00     0.070 C 
ENDBRANCH   2  14
TORSDOF 5
ENDMDL
MODEL 2
REMARK VINA RESULT:      -5.2      2.202      3.279
REMARK  5 active torsions:
REMARK  status: ('A' for Active; 'I' for Inactive)
REMARK    1  A    between atoms: C_2  and  C_3 
REMARK    2  A    between atoms: C_2  and  C_13 
REMARK       I    between atoms: C_3  and  N_5 
REMARK    3  A    between atoms: N_5  and  C_6 
REMARK    4  A    between atoms: C_6  and  C_7 
REMARK    5  A    between atoms: C_7  and  C_8 
ROOT
HETATM    1  C   UNL     1     -37.379 -50.106  11.278  1.00  0.00     0.025 C 
HETATM    2  C   UNL     1     -38.841 -49.674  11.427  1.00  0.00     0.110 C 
ENDROOT
BRANCH   2   3
HETATM    3  C   UNL     1     -39.605 -50.876  11.994  1.00  0.00     0.226 C 
HETATM    4  O   UNL     1     -39.092 -51.623  12.828  1.00  0.00    -0.273 OA
HETATM    5  N   UNL     1     -40.903 -51.041  11.551  1.00  0.00    -0.360 N 
HETATM    6  H   UNL     1     -41.313 -50.325  10.962  1.00  0.00     0.162 HD
BRANCH   5   7
HETATM    7  C   UNL     1     -41.755 -52.076  12.107  1.00  0.00     0.123 C 
BRANCH   7   8
HETATM    8  C   UNL     1     -42.656 -51.537  13.217  1.00  0.00     0.024 C 
BRANCH   8   9
HETATM    9  C   UNL     1     -43.697 -52.567  13.669  1.00  0.00    -0.013 C 
HETATM   10  C   UNL     1     -43.158 -53.537  14.728  1.00  0.00     0.005 C 
HETATM   11  C   UNL     1     -43.860 -54.874  14.482  1.00  0.00     0.000 C 
HETATM   12  C   UNL     1     -44.809 -54.648  13.314  1.00  0.00     0.000 C 
HETATM   13  C   UNL     1     -44.196 -53.484  12.554  1.00  0.00     0.005 C 
ENDBRANCH   8   9
ENDBRANCH   7   8
ENDBRANCH   5   7
ENDBRANCH   2   3
BRANCH   2  14
HETATM   14  C   UNL     1     -39.052 -48.390  12.211  1.00  0.00     0.002 A 
HETATM   15  C   UNL     1     -38.502 -48.039  13.490  1.00  0.00     0.031 A 
HETATM   16  C   UNL     1     -37.622 -48.815  14.404  1.00  0.00     0.070 C 
HETATM   17  N   UNL     1     -38.876 -46.816  13.873  1.00  0.00    -0.303 N 
HETATM   18  N   UNL     1     -39.716 -46.404  12.919  1.00  0.00    -0.300 N 
ATOM     19  HN  UNL     1     -38.586 -46.309  14.710  1.00  0.00     0.186 HD
HETATM   20  C   UNL     1     -40.303 -45.089  13.034  1.00  0.00     0.177 C 
HETATM   21  C   UNL     1     -39.920 -47.333  11.931  1.00  0.00     0.033 A 
HETATM   22  C   UNL     1     -40.928 -47.138  10.853  1.00  0.00     0.070 C 
ENDBRANCH   2  14
TORSDOF 5
ENDMDL
MODEL 3
REMARK VINA RESULT:      -5.1      1.919      6.601
REMARK  5 active torsions:
REMARK  status: ('A' for Active; 'I' for Inactive)
REMARK    1  A    between atoms: C_2  and  C_3 
REMARK    2  A    between atoms: C_2  and  C_13 
REMARK       I    between atoms: C_3  and  N_5 
REMARK    3  A    between atoms: N_5  and  C_6 
REMARK    4  A    between atoms: C_6  and  C_7 
REMARK    5  A    between atoms: C_7  and  C_8 
ROOT
HETATM    1  C   UNL     1     -43.792 -50.887  13.464  1.00  0.00     0.025 C 
HETATM    2  C   UNL     1     -43.150 -52.148  12.878  1.00  0.00     0.110 C 
ENDROOT
BRANCH   2   3
HETATM    3  C   UNL     1     -41.897 -51.697  12.118  1.00  0.00     0.226 C 
HETATM    4  O   UNL     1     -41.059 -52.512  11.729  1.00  0.00    -0.273 OA
HETATM    5  N   UNL     1     -41.789 -50.345  11.861  1.00  0.00    -0.360 N 
HETATM    6  H   UNL     1     -42.568 -49.740  12.093  1.00  0.00     0.162 HD
BRANCH   5   7
HETATM    7  C   UNL     1     -40.704 -49.824  11.050  1.00  0.00     0.123 C 
BRANCH   7   8
HETATM    8  C   UNL     1     -40.012 -48.637  11.718  1.00  0.00     0.024 C 
BRANCH   8   9
HETATM    9  C   UNL     1     -38.699 -49.040  12.398  1.00  0.00    -0.013 C 
HETATM   10  C   UNL     1     -37.989 -50.198  11.687  1.00  0.00     0.005 C 
HETATM   11  C   UNL     1     -37.279 -51.002  12.779  1.00  0.00     0.000 C 
HETATM   12  C   UNL     1     -37.564 -50.282  14.089  1.00  0.00     0.000 C 
HETATM   13  C   UNL     1     -38.863 -49.538  13.833  1.00  0.00     0.005 C 
ENDBRANCH   8   9
ENDBRANCH   7   8
ENDBRANCH   5   7
ENDBRANCH   2   3
BRANCH   2  14
HETATM   14  C   UNL     1     -42.890 -53.259  13.880  1.00  0.00     0.002 A 
HETATM   15  C   UNL     1     -43.703 -54.412  14.147  1.00  0.00     0.031 A 
HETATM   16  C   UNL     1     -45.009 -54.822  13.566  1.00  0.00     0.070 C 
HETATM   17  N   UNL     1     -43.158 -55.201  15.076  1.00  0.00    -0.303 N 
HETATM   18  N   UNL     1     -42.061 -54.550  15.472  1.00  0.00    -0.300 N 
ATOM     19  HN  UNL     1     -43.503 -56.101  15.410  1.00  0.00     0.186 HD
HETATM   20  C   UNL     1     -41.225 -55.152  16.484  1.00  0.00     0.177 C 
HETATM   21  C   UNL     1     -41.884 -53.343  14.844  1.00  0.00     0.033 A 
HETATM   22  C   UNL     1     -40.810 -52.391  15.240  1.00  0.00     0.070 C 
ENDBRANCH   2  14
TORSDOF 5
ENDMDL
MODEL 4
REMARK VINA RESULT:      -5.1      2.357      4.884
REMARK  5 active torsions:
REMARK  status: ('A' for Active; 'I' for Inactive)
REMARK    1  A    between atoms: C_2  and  C_3 
REMARK    2  A    between atoms: C_2  and  C_13 
REMARK       I    between atoms: C_3  and  N_5 
REMARK    3  A    between atoms: N_5  and  C_6 
REMARK    4  A    between atoms: C_6  and  C_7 
REMARK    5  A    between atoms: C_7  and  C_8 
ROOT
HETATM    1  C   UNL     1     -43.080 -48.564  13.107  1.00  0.00     0.025 C 
HETATM    2  C   UNL     1     -43.450 -50.034  12.885  1.00  0.00     0.110 C 
ENDROOT
BRANCH   2   3
HETATM    3  C   UNL     1     -42.139 -50.793  12.649  1.00  0.00     0.226 C 
HETATM    4  O   UNL     1     -41.050 -50.279  12.905  1.00  0.00    -0.273 OA
HETATM    5  N   UNL     1     -42.256 -52.086  12.180  1.00  0.00    -0.360 N 
HETATM    6  H   UNL     1     -43.179 -52.498  12.108  1.00  0.00     0.162 HD
BRANCH   5   7
HETATM    7  C   UNL     1     -41.088 -52.934  12.032  1.00  0.00     0.123 C 
BRANCH   7   8
HETATM    8  C   UNL     1     -41.185 -54.195  12.889  1.00  0.00     0.024 C 
BRANCH   8   9
HETATM    9  C   UNL     1     -41.976 -53.958  14.181  1.00  0.00    -0.013 C 
HETATM   10  C   UNL     1     -41.322 -54.601  15.409  1.00  0.00     0.005 C 
HETATM   11  C   UNL     1     -42.466 -55.024  16.333  1.00  0.00     0.000 C 
HETATM   12  C   UNL     1     -43.752 -54.592  15.642  1.00  0.00     0.000 C 
HETATM   13  C   UNL     1     -43.387 -54.544  14.168  1.00  0.00     0.005 C 
ENDBRANCH   8   9
ENDBRANCH   7   8
ENDBRANCH   5   7
ENDBRANCH   2   3
BRANCH   2  14
HETATM   14  C   UNL     1     -44.323 -50.644  13.967  1.00  0.00     0.002 A 
HETATM   15  C   UNL     1     -44.003 -50.834  15.354  1.00  0.00     0.031 A 
HETATM   16  C   UNL     1     -42.754 -50.531  16.102  1.00  0.00     0.070 C 
HETATM   17  N   UNL     1     -45.019 -51.378  16.029  1.00  0.00    -0.303 N 
HETATM   18  N   UNL     1     -45.951 -51.619  15.103  1.00  0.00    -0.300 N 
ATOM     19  HN  UNL     1     -45.071 -51.569  17.029  1.00  0.00     0.186 HD
HETATM   20  C   UNL     1     -47.203 -52.209  15.517  1.00  0.00     0.177 C 
HETATM   21  C   UNL     1     -45.565 -51.268  13.834  1.00  0.00     0.033 A 
HETATM   22  C   UNL     1     -46.391 -51.585  12.636  1.00  0.00     0.070 C 
ENDBRANCH   2  14
TORSDOF 5
ENDMDL
MODEL 5
REMARK VINA RESULT:      -4.9      3.155      6.176
REMARK  5 active torsions:
REMARK  status: ('A' for Active; 'I' for Inactive)
REMARK    1  A    between atoms: C_2  and  C_3 
REMARK    2  A    between atoms: C_2  and  C_13 
REMARK       I    between atoms: C_3  and  N_5 
REMARK    3  A    between atoms: N_5  and  C_6 
REMARK    4  A    between atoms: C_6  and  C_7 
REMARK    5  A    between atoms: C_7  and  C_8 
ROOT
HETATM    1  C   UNL     1     -37.511 -50.085  11.412  1.00  0.00     0.025 C 
HETATM    2  C   UNL     1     -38.231 -50.748  12.591  1.00  0.00     0.110 C 
ENDROOT
BRANCH   2   3
HETATM    3  C   UNL     1     -37.926 -49.901  13.833  1.00  0.00     0.226 C 
HETATM    4  O   UNL     1     -37.928 -50.397  14.960  1.00  0.00    -0.273 OA
HETATM    5  N   UNL     1     -37.610 -48.575  13.607  1.00  0.00    -0.360 N 
HETATM    6  H   UNL     1     -37.501 -48.255  12.652  1.00  0.00     0.162 HD
BRANCH   5   7
HETATM    7  C   UNL     1     -37.192 -47.713  14.697  1.00  0.00     0.123 C 
BRANCH   7   8
HETATM    8  C   UNL     1     -38.302 -46.751  15.121  1.00  0.00     0.024 C 
BRANCH   8   9
HETATM    9  C   UNL     1     -39.179 -46.323  13.940  1.00  0.00    -0.013 C 
HETATM   10  C   UNL     1     -38.885 -44.896  13.462  1.00  0.00     0.005 C 
HETATM   11  C   UNL     1     -40.215 -44.326  12.966  1.00  0.00     0.000 C 
HETATM   12  C   UNL     1     -41.243 -45.436  13.135  1.00  0.00     0.000 C 
HETATM   13  C   UNL     1     -40.676 -46.305  14.246  1.00  0.00     0.005 C 
ENDBRANCH   8   9
ENDBRANCH   7   8
ENDBRANCH   5   7
ENDBRANCH   2   3
BRANCH   2  14
HETATM   14  C   UNL     1     -39.712 -51.003  12.375  1.00  0.00     0.002 A 
HETATM   15  C   UNL     1     -40.692 -50.103  11.836  1.00  0.00     0.031 A 
HETATM   16  C   UNL     1     -40.554 -48.695  11.378  1.00  0.00     0.070 C 
HETATM   17  N   UNL     1     -41.899 -50.668  11.762  1.00  0.00    -0.303 N 
HETATM   18  N   UNL     1     -41.743 -51.875  12.313  1.00  0.00    -0.300 N 
ATOM     19  HN  UNL     1     -42.752 -50.267  11.372  1.00  0.00     0.186 HD
HETATM   20  C   UNL     1     -42.884 -52.758  12.381  1.00  0.00     0.177 C 
HETATM   21  C   UNL     1     -40.470 -52.108  12.767  1.00  0.00     0.033 A 
HETATM   22  C   UNL     1     -40.115 -53.327  13.545  1.00  0.00     0.070 C 
ENDBRANCH   2  14
TORSDOF 5
ENDMDL
MODEL 6
REMARK VINA RESULT:      -4.9      1.141      2.167
REMARK  5 active torsions:
REMARK  status: ('A' for Active; 'I' for Inactive)
REMARK    1  A    between atoms: C_2  and  C_3 
REMARK    2  A    between atoms: C_2  and  C_13 
REMARK       I    between atoms: C_3  and  N_5 
REMARK    3  A    between atoms: N_5  and  C_6 
REMARK    4  A    between atoms: C_6  and  C_7 
REMARK    5  A    between atoms: C_7  and  C_8 
ROOT
HETATM    1  C   UNL     1     -40.662 -51.247  15.443  1.00  0.00     0.025 C 
HETATM    2  C   UNL     1     -40.278 -51.166  13.962  1.00  0.00     0.110 C 
ENDROOT
BRANCH   2   3
HETATM    3  C   UNL     1     -40.915 -52.377  13.269  1.00  0.00     0.226 C 
HETATM    4  O   UNL     1     -40.385 -52.902  12.289  1.00  0.00    -0.273 OA
HETATM    5  N   UNL     1     -42.079 -52.862  13.831  1.00  0.00    -0.360 N 
HETATM    6  H   UNL     1     -42.399 -52.468  14.709  1.00  0.00     0.162 HD
BRANCH   5   7
HETATM    7  C   UNL     1     -42.702 -54.072  13.328  1.00  0.00     0.123 C 
BRANCH   7   8
HETATM    8  C   UNL     1     -44.144 -53.829  12.883  1.00  0.00     0.024 C 
BRANCH   8   9
HETATM    9  C   UNL     1     -44.865 -52.819  13.783  1.00  0.00    -0.013 C 
HETATM   10  C   UNL     1     -45.708 -53.488  14.876  1.00  0.00     0.005 C 
HETATM   11  C   UNL     1     -46.915 -52.576  15.106  1.00  0.00     0.000 C 
HETATM   12  C   UNL     1     -46.734 -51.388  14.170  1.00  0.00     0.000 C 
HETATM   13  C   UNL     1     -45.862 -51.925  13.048  1.00  0.00     0.005 C 
ENDBRANCH   8   9
ENDBRANCH   7   8
ENDBRANCH   5   7
ENDBRANCH   2   3
BRANCH   2  14
HETATM   14  C   UNL     1     -40.596 -49.841  13.290  1.00  0.00     0.002 A 
HETATM   15  C   UNL     1     -41.853 -49.148  13.260  1.00  0.00     0.031 A 
HETATM   16  C   UNL     1     -43.174 -49.528  13.830  1.00  0.00     0.070 C 
HETATM   17  N   UNL     1     -41.768 -47.991  12.599  1.00  0.00    -0.303 N 
HETATM   18  N   UNL     1     -40.516 -47.958  12.134  1.00  0.00    -0.300 N 
ATOM     19  HN  UNL     1     -42.497 -47.289  12.477  1.00  0.00     0.186 HD
HETATM   20  C   UNL     1     -40.092 -46.810  11.368  1.00  0.00     0.177 C 
HETATM   21  C   UNL     1     -39.784 -49.074  12.453  1.00  0.00     0.033 A 
HETATM   22  C   UNL     1     -38.418 -49.310  11.910  1.00  0.00     0.070 C 
ENDBRANCH   2  14
TORSDOF 5
ENDMDL
MODEL 7
REMARK VINA RESULT:      -4.8      1.790      2.706
REMARK  5 active torsions:
REMARK  status: ('A' for Active; 'I' for Inactive)
REMARK    1  A    between atoms: C_2  and  C_3 
REMARK    2  A    between atoms: C_2  and  C_13 
REMARK       I    between atoms: C_3  and  N_5 
REMARK    3  A    between atoms: N_5  and  C_6 
REMARK    4  A    between atoms: C_6  and  C_7 
REMARK    5  A    between atoms: C_7  and  C_8 
ROOT
HETATM    1  C   UNL     1     -41.793 -49.194  14.703  1.00  0.00     0.025 C 
HETATM    2  C   UNL     1     -41.190 -50.574  14.425  1.00  0.00     0.110 C 
ENDROOT
BRANCH   2   3
HETATM    3  C   UNL     1     -42.245 -51.374  13.653  1.00  0.00     0.226 C 
HETATM    4  O   UNL     1     -43.052 -50.815  12.910  1.00  0.00    -0.273 OA
HETATM    5  N   UNL     1     -42.207 -52.746  13.806  1.00  0.00    -0.360 N 
HETATM    6  H   UNL     1     -41.444 -53.158  14.330  1.00  0.00     0.162 HD
BRANCH   5   7
HETATM    7  C   UNL     1     -43.083 -53.608  13.034  1.00  0.00     0.123 C 
BRANCH   7   8
HETATM    8  C   UNL     1     -44.149 -54.268  13.907  1.00  0.00     0.024 C 
BRANCH   8   9
HETATM    9  C   UNL     1     -45.480 -53.508  13.869  1.00  0.00    -0.013 C 
HETATM   10  C   UNL     1     -45.733 -52.811  12.527  1.00  0.00     0.005 C 
HETATM   11  C   UNL     1     -46.515 -51.535  12.847  1.00  0.00     0.000 C 
HETATM   12  C   UNL     1     -46.726 -51.533  14.355  1.00  0.00     0.000 C 
HETATM   13  C   UNL     1     -45.586 -52.380  14.894  1.00  0.00     0.005 C 
ENDBRANCH   8   9
ENDBRANCH   7   8
ENDBRANCH   5   7
ENDBRANCH   2   3
BRANCH   2  14
HETATM   14  C   UNL     1     -39.827 -50.554  13.755  1.00  0.00     0.002 A 
HETATM   15  C   UNL     1     -38.555 -50.874  14.337  1.00  0.00     0.031 A 
HETATM   16  C   UNL     1     -38.206 -51.272  15.727  1.00  0.00     0.070 C 
HETATM   17  N   UNL     1     -37.562 -50.776  13.449  1.00  0.00    -0.303 N 
HETATM   18  N   UNL     1     -38.147 -50.324  12.336  1.00  0.00    -0.300 N 
ATOM     19  HN  UNL     1     -36.577 -50.997  13.589  1.00  0.00     0.186 HD
HETATM   20  C   UNL     1     -37.333 -50.115  11.162  1.00  0.00     0.177 C 
HETATM   21  C   UNL     1     -39.493 -50.101  12.477  1.00  0.00     0.033 A 
HETATM   22  C   UNL     1     -40.308 -49.460  11.409  1.00  0.00     0.070 C 
ENDBRANCH   2  14
TORSDOF 5
ENDMDL
MODEL 8
REMARK VINA RESULT:      -4.8      2.150      6.174
REMARK  5 active torsions:
REMARK  status: ('A' for Active; 'I' for Inactive)
REMARK    1  A    between atoms: C_2  and  C_3 
REMARK    2  A    between atoms: C_2  and  C_13 
REMARK       I    between atoms: C_3  and  N_5 
REMARK    3  A    between atoms: N_5  and  C_6 
REMARK    4  A    between atoms: C_6  and  C_7 
REMARK    5  A    between atoms: C_7  and  C_8 
ROOT
HETATM    1  C   UNL     1     -44.000 -50.189  15.505  1.00  0.00     0.025 C 
HETATM    2  C   UNL     1     -43.952 -50.385  13.986  1.00  0.00     0.110 C 
ENDROOT
BRANCH   2   3
HETATM    3  C   UNL     1     -43.240 -49.159  13.401  1.00  0.00     0.226 C 
HETATM    4  O   UNL     1     -42.925 -48.205  14.112  1.00  0.00    -0.273 OA
HETATM    5  N   UNL     1     -42.940 -49.210  12.054  1.00  0.00    -0.360 N 
HETATM    6  H   UNL     1     -43.111 -50.071  11.548  1.00  0.00     0.162 HD
BRANCH   5   7
HETATM    7  C   UNL     1     -42.166 -48.157  11.422  1.00  0.00     0.123 C 
BRANCH   7   8
HETATM    8  C   UNL     1     -40.827 -48.671  10.895  1.00  0.00     0.024 C 
BRANCH   8   9
HETATM    9  C   UNL     1     -39.941 -49.230  12.014  1.00  0.00    -0.013 C 
HETATM   10  C   UNL     1     -39.530 -48.167  13.039  1.00  0.00     0.005 C 
HETATM   11  C   UNL     1     -38.131 -48.556  13.523  1.00  0.00     0.000 C 
HETATM   12  C   UNL     1     -37.773 -49.845  12.797  1.00  0.00     0.000 C 
HETATM   13  C   UNL     1     -38.611 -49.806  11.530  1.00  0.00     0.005 C 
ENDBRANCH   8   9
ENDBRANCH   7   8
ENDBRANCH   5   7
ENDBRANCH   2   3
BRANCH   2  14
HETATM   14  C   UNL     1     -43.364 -51.708  13.529  1.00  0.00     0.002 A 
HETATM   15  C   UNL     1     -44.041 -52.795  12.881  1.00  0.00     0.031 A 
HETATM   16  C   UNL     1     -45.473 -52.952  12.511  1.00  0.00     0.070 C 
HETATM   17  N   UNL     1     -43.209 -53.800  12.594  1.00  0.00    -0.303 N 
HETATM   18  N   UNL     1     -42.035 -53.425  13.111  1.00  0.00    -0.300 N 
ATOM     19  HN  UNL     1     -43.422 -54.661  12.092  1.00  0.00     0.186 HD
HETATM   20  C   UNL     1     -40.900 -54.305  12.961  1.00  0.00     0.177 C 
HETATM   21  C   UNL     1     -42.081 -52.212  13.749  1.00  0.00     0.033 A 
HETATM   22  C   UNL     1     -40.926 -51.677  14.521  1.00  0.00     0.070 C 
ENDBRANCH   2  14
TORSDOF 5
ENDMDL
MODEL 9
REMARK VINA RESULT:      -4.8      2.531      3.883
REMARK  5 active torsions:
REMARK  status: ('A' for Active; 'I' for Inactive)
REMARK    1  A    between atoms: C_2  and  C_3 
REMARK    2  A    between atoms: C_2  and  C_13 
REMARK       I    between atoms: C_3  and  N_5 
REMARK    3  A    between atoms: N_5  and  C_6 
REMARK    4  A    between atoms: C_6  and  C_7 
REMARK    5  A    between atoms: C_7  and  C_8 
ROOT
HETATM    1  C   UNL     1     -40.988 -47.745  14.041  1.00  0.00     0.025 C 
HETATM    2  C   UNL     1     -40.302 -47.827  12.674  1.00  0.00     0.110 C 
ENDROOT
BRANCH   2   3
HETATM    3  C   UNL     1     -39.770 -49.258  12.527  1.00  0.00     0.226 C 
HETATM    4  O   UNL     1     -38.759 -49.498  11.867  1.00  0.00    -0.273 OA
HETATM    5  N   UNL     1     -40.462 -50.241  13.208  1.00  0.00    -0.360 N 
HETATM    6  H   UNL     1     -41.209 -49.967  13.835  1.00  0.00     0.162 HD
BRANCH   5   7
HETATM    7  C   UNL     1     -39.980 -51.610  13.233  1.00  0.00     0.123 C 
BRANCH   7   8
HETATM    8  C   UNL     1     -40.771 -52.511  12.286  1.00  0.00     0.024 C 
BRANCH   8   9
HETATM    9  C   UNL     1     -41.356 -53.733  13.003  1.00  0.00    -0.013 C 
HETATM   10  C   UNL     1     -42.887 -53.708  13.075  1.00  0.00     0.005 C 
HETATM   11  C   UNL     1     -43.267 -54.389  14.392  1.00  0.00     0.000 C 
HETATM   12  C   UNL     1     -41.958 -54.820  15.039  1.00  0.00     0.000 C 
HETATM   13  C   UNL     1     -40.923 -53.869  14.462  1.00  0.00     0.005 C 
ENDBRANCH   8   9
ENDBRANCH   7   8
ENDBRANCH   5   7
ENDBRANCH   2   3
BRANCH   2  14
HETATM   14  C   UNL     1     -41.152 -47.369  11.502  1.00  0.00     0.002 A 
HETATM   15  C   UNL     1     -40.880 -46.303  10.581  1.00  0.00     0.031 A 
HETATM   16  C   UNL     1     -39.742 -45.346  10.526  1.00  0.00     0.070 C 
HETATM   17  N   UNL     1     -41.834 -46.192   9.652  1.00  0.00    -0.303 N 
HETATM   18  N   UNL     1     -42.750 -47.100   9.998  1.00  0.00    -0.300 N 
ATOM     19  HN  UNL     1     -41.857 -45.554   8.857  1.00  0.00     0.186 HD
HETATM   20  C   UNL     1     -43.928 -47.243   9.175  1.00  0.00     0.177 C 
HETATM   21  C   UNL     1     -42.434 -47.789  11.141  1.00  0.00     0.033 A 
HETATM   22  C   UNL     1     -43.382 -48.740  11.784  1.00  0.00     0.070 C 
ENDBRANCH   2  14
TORSDOF 5
ENDMDL
