MODEL 1
REMARK VINA RESULT:      -5.6      0.000      0.000
REMARK  7 active torsions:
REMARK  status: ('A' for Active; 'I' for Inactive)
REMARK    1  A    between atoms: C_2  and  N_3 
REMARK    2  A    between atoms: N_6  and  C_7 
REMARK    3  A    between atoms: C_7  and  C_8 
REMARK    4  A    between atoms: C_8  and  O_9 
REMARK    5  A    between atoms: C_8  and  C_10 
REMARK    6  A    between atoms: C_10  and  O_11 
REMARK    7  A    between atoms: O_11  and  C_12 
ROOT
HETATM    1  C   UNL     1     -42.703 -50.384  14.572  1.00  0.00     0.069 A 
HETATM    2  C   UNL     1     -44.050 -50.435  14.209  1.00  0.00     0.038 A 
HETATM    3  C   UNL     1     -44.987 -51.055  15.038  1.00  0.00     0.025 A 
HETATM    4  C   UNL     1     -44.576 -51.651  16.231  1.00  0.00     0.044 A 
HETATM    5  C   UNL     1     -45.534 -52.272  17.096  1.00  0.00     0.099 C 
HETATM    6  N   UNL     1     -46.311 -52.770  17.800  1.00  0.00    -0.191 NA
HETATM    7  C   UNL     1     -43.219 -51.633  16.579  1.00  0.00     0.025 A 
HETATM    8  C   UNL     1     -42.283 -51.002  15.750  1.00  0.00     0.038 A 
ENDROOT
BRANCH   1   9
HETATM    9  O   UNL     1     -41.898 -49.740  13.677  1.00  0.00    -0.349 OA
BRANCH   9  10
HETATM   10  C   UNL     1     -42.055 -50.087  12.297  1.00  0.00     0.209 C 
BRANCH  10  11
HETATM   11  C   UNL     1     -40.773 -50.797  11.822  1.00  0.00     0.161 C 
BRANCH  11  12
HETATM   12  C   UNL     1     -41.071 -52.279  11.540  1.00  0.00     0.168 C 
BRANCH  12  13
HETATM   13  N   UNL     1     -41.285 -53.055  12.736  1.00  0.00    -0.295 N 
HETATM   14  C   UNL     1     -40.272 -53.401  13.653  1.00  0.00     0.330 A 
HETATM   15  N   UNL     1     -40.883 -54.218  14.632  1.00  0.00    -0.298 N 
HETATM   16  O   UNL     1     -39.094 -53.082  13.582  1.00  0.00    -0.246 OA
HETATM   17  C   UNL     1     -42.240 -54.367  14.315  1.00  0.00     0.065 A 
HETATM   18  C   UNL     1     -42.493 -53.634  13.152  1.00  0.00     0.066 A 
HETATM   19  C   UNL     1     -43.233 -55.084  14.950  1.00  0.00     0.032 A 
HETATM   20  C   UNL     1     -43.747 -53.586  12.580  1.00  0.00     0.032 A 
HETATM   21  C   UNL     1     -44.767 -54.300  13.217  1.00  0.00     0.002 A 
HETATM   22  C   UNL     1     -44.513 -55.042  14.390  1.00  0.00     0.002 A 
BRANCH  15  23
HETATM   23  C   UNL     1     -40.165 -54.945  15.648  1.00  0.00     0.130 C 
HETATM   24  C   UNL     1     -40.069 -54.147  16.941  1.00  0.00     0.027 C 
ENDBRANCH  15  23
ENDBRANCH  12  13
ENDBRANCH  11  12
BRANCH  11  25
HETATM   25  O   UNL     1     -40.274 -50.138  10.652  1.00  0.00    -0.392 OA
HETATM   26  H   UNL     1     -39.760 -50.774  10.122  1.00  0.00     0.210 HD
ENDBRANCH  11  25
ENDBRANCH  10  11
ENDBRANCH   9  10
ENDBRANCH   1   9
TORSDOF 7
ENDMDL
MODEL 2
REMARK VINA RESULT:      -5.5      2.415      4.754
REMARK  7 active torsions:
REMARK  status: ('A' for Active; 'I' for Inactive)
REMARK    1  A    between atoms: C_2  and  N_3 
REMARK    2  A    between atoms: N_6  and  C_7 
REMARK    3  A    between atoms: C_7  and  C_8 
REMARK    4  A    between atoms: C_8  and  O_9 
REMARK    5  A    between atoms: C_8  and  C_10 
REMARK    6  A    between atoms: C_10  and  O_11 
REMARK    7  A    between atoms: O_11  and  C_12 
ROOT
HETATM    1  C   UNL     1     -45.350 -53.085  13.486  1.00  0.00     0.069 A 
HETATM    2  C   UNL     1     -45.433 -53.676  14.748  1.00  0.00     0.038 A 
HETATM    3  C   UNL     1     -46.212 -53.101  15.754  1.00  0.00     0.025 A 
HETATM    4  C   UNL     1     -46.901 -51.912  15.508  1.00  0.00     0.044 A 
HETATM    5  C   UNL     1     -47.718 -51.326  16.529  1.00  0.00     0.099 C 
HETATM    6  N   UNL     1     -48.385 -50.855  17.353  1.00  0.00    -0.191 NA
HETATM    7  C   UNL     1     -46.789 -51.297  14.254  1.00  0.00     0.025 A 
HETATM    8  C   UNL     1     -46.014 -51.881  13.245  1.00  0.00     0.038 A 
ENDROOT
BRANCH   1   9
HETATM    9  O   UNL     1     -44.562 -53.755  12.595  1.00  0.00    -0.349 OA
BRANCH   9  10
HETATM   10  C   UNL     1     -43.315 -54.257  13.083  1.00  0.00     0.209 C 
BRANCH  10  11
HETATM   11  C   UNL     1     -42.181 -53.369  12.533  1.00  0.00     0.161 C 
BRANCH  11  12
HETATM   12  C   UNL     1     -41.805 -52.300  13.571  1.00  0.00     0.168 C 
BRANCH  12  13
HETATM   13  N   UNL     1     -41.036 -51.214  13.017  1.00  0.00    -0.295 N 
HETATM   14  C   UNL     1     -39.634 -51.227  12.864  1.00  0.00     0.330 A 
HETATM   15  N   UNL     1     -39.275 -49.956  12.360  1.00  0.00    -0.298 N 
HETATM   16  O   UNL     1     -38.885 -52.150  13.153  1.00  0.00    -0.246 OA
HETATM   17  C   UNL     1     -40.436 -49.185  12.210  1.00  0.00     0.065 A 
HETATM   18  C   UNL     1     -41.527 -49.968  12.600  1.00  0.00     0.066 A 
HETATM   19  C   UNL     1     -40.596 -47.884  11.778  1.00  0.00     0.032 A 
HETATM   20  C   UNL     1     -42.818 -49.484  12.571  1.00  0.00     0.032 A 
HETATM   21  C   UNL     1     -42.997 -48.170  12.127  1.00  0.00     0.002 A 
HETATM   22  C   UNL     1     -41.898 -47.378  11.735  1.00  0.00     0.002 A 
BRANCH  15  23
HETATM   23  C   UNL     1     -37.921 -49.481  12.239  1.00  0.00     0.130 C 
HETATM   24  C   UNL     1     -37.263 -49.992  10.965  1.00  0.00     0.027 C 
ENDBRANCH  15  23
ENDBRANCH  12  13
ENDBRANCH  11  12
BRANCH  11  25
HETATM   25  O   UNL     1     -41.055 -54.192  12.206  1.00  0.00    -0.392 OA
HETATM   26  H   UNL     1     -40.313 -53.966  12.797  1.00  0.00     0.210 HD
ENDBRANCH  11  25
ENDBRANCH  10  11
ENDBRANCH   9  10
ENDBRANCH   1   9
TORSDOF 7
ENDMDL
MODEL 3
REMARK VINA RESULT:      -5.3      1.739      2.450
REMARK  7 active torsions:
REMARK  status: ('A' for Active; 'I' for Inactive)
REMARK    1  A    between atoms: C_2  and  N_3 
REMARK    2  A    between atoms: N_6  and  C_7 
REMARK    3  A    between atoms: C_7  and  C_8 
REMARK    4  A    between atoms: C_8  and  O_9 
REMARK    5  A    between atoms: C_8  and  C_10 
REMARK    6  A    between atoms: C_10  and  O_11 
REMARK    7  A    between atoms: O_11  and  C_12 
ROOT
HETATM    1  C   UNL     1     -44.363 -51.123  14.068  1.00  0.00     0.069 A 
HETATM    2  C   UNL     1     -45.614 -51.543  13.612  1.00  0.00     0.038 A 
HETATM    3  C   UNL     1     -46.709 -51.587  14.477  1.00  0.00     0.025 A 
HETATM    4  C   UNL     1     -46.553 -51.229  15.817  1.00  0.00     0.044 A 
HETATM    5  C   UNL     1     -47.676 -51.254  16.707  1.00  0.00     0.099 C 
HETATM    6  N   UNL     1     -48.586 -51.267  17.426  1.00  0.00    -0.191 NA
HETATM    7  C   UNL     1     -45.290 -50.843  16.285  1.00  0.00     0.025 A 
HETATM    8  C   UNL     1     -44.196 -50.792  15.413  1.00  0.00     0.038 A 
ENDROOT
BRANCH   1   9
HETATM    9  O   UNL     1     -43.384 -51.119  13.116  1.00  0.00    -0.349 OA
BRANCH   9  10
HETATM   10  C   UNL     1     -43.208 -52.322  12.362  1.00  0.00     0.209 C 
BRANCH  10  11
HETATM   11  C   UNL     1     -41.705 -52.661  12.327  1.00  0.00     0.161 C 
BRANCH  11  12
HETATM   12  C   UNL     1     -41.478 -54.083  12.866  1.00  0.00     0.168 C 
BRANCH  12  13
HETATM   13  N   UNL     1     -41.006 -54.107  14.228  1.00  0.00    -0.295 N 
HETATM   14  C   UNL     1     -39.646 -54.080  14.600  1.00  0.00     0.330 A 
HETATM   15  N   UNL     1     -39.616 -54.194  16.009  1.00  0.00    -0.298 N 
HETATM   16  O   UNL     1     -38.691 -54.010  13.840  1.00  0.00    -0.246 OA
HETATM   17  C   UNL     1     -40.931 -54.290  16.484  1.00  0.00     0.065 A 
HETATM   18  C   UNL     1     -41.792 -54.219  15.384  1.00  0.00     0.066 A 
HETATM   19  C   UNL     1     -41.409 -54.439  17.770  1.00  0.00     0.032 A 
HETATM   20  C   UNL     1     -43.162 -54.292  15.526  1.00  0.00     0.032 A 
HETATM   21  C   UNL     1     -43.663 -54.434  16.824  1.00  0.00     0.002 A 
HETATM   22  C   UNL     1     -42.796 -54.507  17.935  1.00  0.00     0.002 A 
BRANCH  15  23
HETATM   23  C   UNL     1     -38.419 -54.398  16.783  1.00  0.00     0.130 C 
HETATM   24  C   UNL     1     -37.996 -55.860  16.781  1.00  0.00     0.027 C 
ENDBRANCH  15  23
ENDBRANCH  12  13
ENDBRANCH  11  12
BRANCH  11  25
HETATM   25  O   UNL     1     -41.224 -52.534  10.984  1.00  0.00    -0.392 OA
HETATM   26  H   UNL     1     -40.437 -51.958  10.980  1.00  0.00     0.210 HD
ENDBRANCH  11  25
ENDBRANCH  10  11
ENDBRANCH   9  10
ENDBRANCH   1   9
TORSDOF 7
ENDMDL
MODEL 4
REMARK VINA RESULT:      -5.3      1.930      3.850
REMARK  7 active torsions:
REMARK  status: ('A' for Active; 'I' for Inactive)
REMARK    1  A    between atoms: C_2  and  N_3 
REMARK    2  A    between atoms: N_6  and  C_7 
REMARK    3  A    between atoms: C_7  and  C_8 
REMARK    4  A    between atoms: C_8  and  O_9 
REMARK    5  A    between atoms: C_8  and  C_10 
REMARK    6  A    between atoms: C_10  and  O_11 
REMARK    7  A    between atoms: O_11  and  C_12 
ROOT
HETATM    1  C   UNL     1     -42.191 -54.137  14.592  1.00  0.00     0.069 A 
HETATM    2  C   UNL     1     -41.952 -53.648  15.878  1.00  0.00     0.038 A 
HETATM    3  C   UNL     1     -42.969 -53.635  16.835  1.00  0.00     0.025 A 
HETATM    4  C   UNL     1     -44.244 -54.095  16.503  1.00  0.00     0.044 A 
HETATM    5  C   UNL     1     -45.288 -54.103  17.484  1.00  0.00     0.099 C 
HETATM    6  N   UNL     1     -46.131 -54.116  18.281  1.00  0.00    -0.191 NA
HETATM    7  C   UNL     1     -44.495 -54.551  15.202  1.00  0.00     0.025 A 
HETATM    8  C   UNL     1     -43.472 -54.571  14.248  1.00  0.00     0.038 A 
ENDROOT
BRANCH   1   9
HETATM    9  O   UNL     1     -41.109 -54.100  13.761  1.00  0.00    -0.349 OA
BRANCH   9  10
HETATM   10  C   UNL     1     -40.719 -52.817  13.261  1.00  0.00     0.209 C 
BRANCH  10  11
HETATM   11  C   UNL     1     -41.786 -52.339  12.256  1.00  0.00     0.161 C 
BRANCH  11  12
HETATM   12  C   UNL     1     -42.124 -50.862  12.516  1.00  0.00     0.168 C 
BRANCH  12  13
HETATM   13  N   UNL     1     -42.894 -50.656  13.718  1.00  0.00    -0.295 N 
HETATM   14  C   UNL     1     -42.368 -50.149  14.924  1.00  0.00     0.330 A 
HETATM   15  N   UNL     1     -43.425 -50.175  15.862  1.00  0.00    -0.298 N 
HETATM   16  O   UNL     1     -41.213 -49.798  15.117  1.00  0.00    -0.246 OA
HETATM   17  C   UNL     1     -44.571 -50.688  15.238  1.00  0.00     0.065 A 
HETATM   18  C   UNL     1     -44.247 -50.970  13.908  1.00  0.00     0.066 A 
HETATM   19  C   UNL     1     -45.833 -50.926  15.743  1.00  0.00     0.032 A 
HETATM   20  C   UNL     1     -45.171 -51.496  13.030  1.00  0.00     0.032 A 
HETATM   21  C   UNL     1     -46.458 -51.734  13.523  1.00  0.00     0.002 A 
HETATM   22  C   UNL     1     -46.786 -51.452  14.865  1.00  0.00     0.002 A 
BRANCH  15  23
HETATM   23  C   UNL     1     -43.269 -49.921  17.271  1.00  0.00     0.130 C 
HETATM   24  C   UNL     1     -43.632 -48.485  17.622  1.00  0.00     0.027 C 
ENDBRANCH  15  23
ENDBRANCH  12  13
ENDBRANCH  11  12
BRANCH  11  25
HETATM   25  O   UNL     1     -41.299 -52.532  10.923  1.00  0.00    -0.392 OA
HETATM   26  H   UNL     1     -42.013 -52.333  10.290  1.00  0.00     0.210 HD
ENDBRANCH  11  25
ENDBRANCH  10  11
ENDBRANCH   9  10
ENDBRANCH   1   9
TORSDOF 7
ENDMDL
MODEL 5
REMARK VINA RESULT:      -5.3      2.953      5.967
REMARK  7 active torsions:
REMARK  status: ('A' for Active; 'I' for Inactive)
REMARK    1  A    between atoms: C_2  and  N_3 
REMARK    2  A    between atoms: N_6  and  C_7 
REMARK    3  A    between atoms: C_7  and  C_8 
REMARK    4  A    between atoms: C_8  and  O_9 
REMARK    5  A    between atoms: C_8  and  C_10 
REMARK    6  A    between atoms: C_10  and  O_11 
REMARK    7  A    between atoms: O_11  and  C_12 
ROOT
HETATM    1  C   UNL     1     -43.174 -54.446  14.576  1.00  0.00     0.069 A 
HETATM    2  C   UNL     1     -42.656 -54.185  13.306  1.00  0.00     0.038 A 
HETATM    3  C   UNL     1     -41.577 -53.314  13.142  1.00  0.00     0.025 A 
HETATM    4  C   UNL     1     -41.020 -52.678  14.253  1.00  0.00     0.044 A 
HETATM    5  C   UNL     1     -39.901 -51.798  14.096  1.00  0.00     0.099 C 
HETATM    6  N   UNL     1     -38.990 -51.090  13.969  1.00  0.00    -0.191 NA
HETATM    7  C   UNL     1     -41.563 -52.909  15.524  1.00  0.00     0.025 A 
HETATM    8  C   UNL     1     -42.639 -53.790  15.685  1.00  0.00     0.038 A 
ENDROOT
BRANCH   1   9
HETATM    9  O   UNL     1     -44.221 -55.322  14.593  1.00  0.00    -0.349 OA
BRANCH   9  10
HETATM   10  C   UNL     1     -45.378 -54.965  13.831  1.00  0.00     0.209 C 
BRANCH  10  11
HETATM   11  C   UNL     1     -46.492 -54.534  14.806  1.00  0.00     0.161 C 
BRANCH  11  12
HETATM   12  C   UNL     1     -46.846 -53.056  14.573  1.00  0.00     0.168 C 
BRANCH  12  13
HETATM   13  N   UNL     1     -45.987 -52.144  15.285  1.00  0.00    -0.295 N 
HETATM   14  C   UNL     1     -46.036 -51.925  16.677  1.00  0.00     0.330 A 
HETATM   15  N   UNL     1     -45.089 -50.914  16.956  1.00  0.00    -0.298 N 
HETATM   16  O   UNL     1     -46.784 -52.480  17.469  1.00  0.00    -0.246 OA
HETATM   17  C   UNL     1     -44.476 -50.525  15.757  1.00  0.00     0.065 A 
HETATM   18  C   UNL     1     -45.018 -51.297  14.726  1.00  0.00     0.066 A 
HETATM   19  C   UNL     1     -43.514 -49.565  15.514  1.00  0.00     0.032 A 
HETATM   20  C   UNL     1     -44.620 -51.145  13.414  1.00  0.00     0.032 A 
HETATM   21  C   UNL     1     -43.639 -50.183  13.153  1.00  0.00     0.002 A 
HETATM   22  C   UNL     1     -43.091 -49.401  14.192  1.00  0.00     0.002 A 
BRANCH  15  23
HETATM   23  C   UNL     1     -44.953 -50.255  18.230  1.00  0.00     0.130 C 
HETATM   24  C   UNL     1     -45.954 -49.118  18.379  1.00  0.00     0.027 C 
ENDBRANCH  15  23
ENDBRANCH  12  13
ENDBRANCH  11  12
BRANCH  11  25
HETATM   25  O   UNL     1     -47.635 -55.376  14.618  1.00  0.00    -0.392 OA
HETATM   26  H   UNL     1     -47.435 -56.266  14.963  1.00  0.00     0.210 HD
ENDBRANCH  11  25
ENDBRANCH  10  11
ENDBRANCH   9  10
ENDBRANCH   1   9
TORSDOF 7
ENDMDL
MODEL 6
REMARK VINA RESULT:      -5.3      2.442      5.309
REMARK  7 active torsions:
REMARK  status: ('A' for Active; 'I' for Inactive)
REMARK    1  A    between atoms: C_2  and  N_3 
REMARK    2  A    between atoms: N_6  and  C_7 
REMARK    3  A    between atoms: C_7  and  C_8 
REMARK    4  A    between atoms: C_8  and  O_9 
REMARK    5  A    between atoms: C_8  and  C_10 
REMARK    6  A    between atoms: C_10  and  O_11 
REMARK    7  A    between atoms: O_11  and  C_12 
ROOT
HETATM    1  C   UNL     1     -45.346 -53.031  13.397  1.00  0.00     0.069 A 
HETATM    2  C   UNL     1     -45.327 -53.632  14.657  1.00  0.00     0.038 A 
HETATM    3  C   UNL     1     -46.118 -53.137  15.695  1.00  0.00     0.025 A 
HETATM    4  C   UNL     1     -46.922 -52.016  15.484  1.00  0.00     0.044 A 
HETATM    5  C   UNL     1     -47.751 -51.513  16.538  1.00  0.00     0.099 C 
HETATM    6  N   UNL     1     -48.428 -51.110  17.390  1.00  0.00    -0.191 NA
HETATM    7  C   UNL     1     -46.915 -51.388  14.231  1.00  0.00     0.025 A 
HETATM    8  C   UNL     1     -46.127 -51.893  13.190  1.00  0.00     0.038 A 
ENDROOT
BRANCH   1   9
HETATM    9  O   UNL     1     -44.533 -53.621  12.473  1.00  0.00    -0.349 OA
BRANCH   9  10
HETATM   10  C   UNL     1     -43.313 -54.194  12.954  1.00  0.00     0.209 C 
BRANCH  10  11
HETATM   11  C   UNL     1     -42.143 -53.292  12.513  1.00  0.00     0.161 C 
BRANCH  11  12
HETATM   12  C   UNL     1     -41.811 -52.287  13.627  1.00  0.00     0.168 C 
BRANCH  12  13
HETATM   13  N   UNL     1     -41.340 -51.018  13.129  1.00  0.00    -0.295 N 
HETATM   14  C   UNL     1     -42.177 -49.938  12.782  1.00  0.00     0.330 A 
HETATM   15  N   UNL     1     -41.332 -48.926  12.274  1.00  0.00    -0.298 N 
HETATM   16  O   UNL     1     -43.396 -49.912  12.871  1.00  0.00    -0.246 OA
HETATM   17  C   UNL     1     -40.006 -49.381  12.311  1.00  0.00     0.065 A 
HETATM   18  C   UNL     1     -40.009 -50.669  12.855  1.00  0.00     0.066 A 
HETATM   19  C   UNL     1     -38.839 -48.769  11.905  1.00  0.00     0.032 A 
HETATM   20  C   UNL     1     -38.847 -51.393  13.018  1.00  0.00     0.032 A 
HETATM   21  C   UNL     1     -37.653 -50.783  12.620  1.00  0.00     0.002 A 
HETATM   22  C   UNL     1     -37.649 -49.485  12.069  1.00  0.00     0.002 A 
BRANCH  15  23
HETATM   23  C   UNL     1     -41.797 -47.725  11.628  1.00  0.00     0.130 C 
HETATM   24  C   UNL     1     -42.102 -47.966  10.156  1.00  0.00     0.027 C 
ENDBRANCH  15  23
ENDBRANCH  12  13
ENDBRANCH  11  12
BRANCH  11  25
HETATM   25  O   UNL     1     -41.010 -54.111  12.200  1.00  0.00    -0.392 OA
HETATM   26  H   UNL     1     -41.032 -54.336  11.252  1.00  0.00     0.210 HD
ENDBRANCH  11  25
ENDBRANCH  10  11
ENDBRANCH   9  10
ENDBRANCH   1   9
TORSDOF 7
ENDMDL
MODEL 7
REMARK VINA RESULT:      -5.2      2.861      5.402
REMARK  7 active torsions:
REMARK  status: ('A' for Active; 'I' for Inactive)
REMARK    1  A    between atoms: C_2  and  N_3 
REMARK    2  A    between atoms: N_6  and  C_7 
REMARK    3  A    between atoms: C_7  and  C_8 
REMARK    4  A    between atoms: C_8  and  O_9 
REMARK    5  A    between atoms: C_8  and  C_10 
REMARK    6  A    between atoms: C_10  and  O_11 
REMARK    7  A    between atoms: O_11  and  C_12 
ROOT
HETATM    1  C   UNL     1     -38.448 -51.287  13.558  1.00  0.00     0.069 A 
HETATM    2  C   UNL     1     -38.893 -50.690  14.739  1.00  0.00     0.038 A 
HETATM    3  C   UNL     1     -39.001 -49.301  14.837  1.00  0.00     0.025 A 
HETATM    4  C   UNL     1     -38.641 -48.496  13.756  1.00  0.00     0.044 A 
HETATM    5  C   UNL     1     -38.766 -47.071  13.842  1.00  0.00     0.099 C 
HETATM    6  N   UNL     1     -38.874 -45.918  13.910  1.00  0.00    -0.191 NA
HETATM    7  C   UNL     1     -38.158 -49.092  12.583  1.00  0.00     0.025 A 
HETATM    8  C   UNL     1     -38.060 -50.485  12.484  1.00  0.00     0.038 A 
ENDROOT
BRANCH   1   9
HETATM    9  O   UNL     1     -38.400 -52.651  13.595  1.00  0.00    -0.349 OA
BRANCH   9  10
HETATM   10  C   UNL     1     -39.222 -53.303  14.568  1.00  0.00     0.209 C 
BRANCH  10  11
HETATM   11  C   UNL     1     -39.793 -54.590  13.941  1.00  0.00     0.161 C 
BRANCH  11  12
HETATM   12  C   UNL     1     -40.901 -54.234  12.937  1.00  0.00     0.168 C 
BRANCH  12  13
HETATM   13  N   UNL     1     -41.996 -53.508  13.529  1.00  0.00    -0.295 N 
HETATM   14  C   UNL     1     -42.936 -54.068  14.418  1.00  0.00     0.330 A 
HETATM   15  N   UNL     1     -43.874 -53.050  14.701  1.00  0.00    -0.298 N 
HETATM   16  O   UNL     1     -42.946 -55.221  14.825  1.00  0.00    -0.246 OA
HETATM   17  C   UNL     1     -43.513 -51.892  13.997  1.00  0.00     0.065 A 
HETATM   18  C   UNL     1     -42.342 -52.170  13.286  1.00  0.00     0.066 A 
HETATM   19  C   UNL     1     -44.124 -50.657  13.932  1.00  0.00     0.032 A 
HETATM   20  C   UNL     1     -41.735 -51.226  12.485  1.00  0.00     0.032 A 
HETATM   21  C   UNL     1     -42.338 -49.965  12.416  1.00  0.00     0.002 A 
HETATM   22  C   UNL     1     -43.520 -49.684  13.132  1.00  0.00     0.002 A 
BRANCH  15  23
HETATM   23  C   UNL     1     -45.107 -53.255  15.418  1.00  0.00     0.130 C 
HETATM   24  C   UNL     1     -46.150 -53.941  14.548  1.00  0.00     0.027 C 
ENDBRANCH  15  23
ENDBRANCH  12  13
ENDBRANCH  11  12
BRANCH  11  25
HETATM   25  O   UNL     1     -38.733 -55.317  13.307  1.00  0.00    -0.392 OA
HETATM   26  H   UNL     1     -37.885 -54.875  13.499  1.00  0.00     0.210 HD
ENDBRANCH  11  25
ENDBRANCH  10  11
ENDBRANCH   9  10
ENDBRANCH   1   9
TORSDOF 7
ENDMDL
MODEL 8
REMARK VINA RESULT:      -5.2      3.078      5.330
REMARK  7 active torsions:
REMARK  status: ('A' for Active; 'I' for Inactive)
REMARK    1  A    between atoms: C_2  and  N_3 
REMARK    2  A    between atoms: N_6  and  C_7 
REMARK    3  A    between atoms: C_7  and  C_8 
REMARK    4  A    between atoms: C_8  and  O_9 
REMARK    5  A    between atoms: C_8  and  C_10 
REMARK    6  A    between atoms: C_10  and  O_11 
REMARK    7  A    between atoms: O_11  and  C_12 
ROOT
HETATM    1  C   UNL     1     -40.778 -49.268  12.111  1.00  0.00     0.069 A 
HETATM    2  C   UNL     1     -39.748 -48.433  12.547  1.00  0.00     0.038 A 
HETATM    3  C   UNL     1     -39.605 -47.146  12.025  1.00  0.00     0.025 A 
HETATM    4  C   UNL     1     -40.484 -46.692  11.042  1.00  0.00     0.044 A 
HETATM    5  C   UNL     1     -40.356 -45.366  10.515  1.00  0.00     0.099 C 
HETATM    6  N   UNL     1     -40.256 -44.289  10.094  1.00  0.00    -0.191 NA
HETATM    7  C   UNL     1     -41.496 -47.541  10.576  1.00  0.00     0.025 A 
HETATM    8  C   UNL     1     -41.642 -48.828  11.107  1.00  0.00     0.038 A 
ENDROOT
BRANCH   1   9
HETATM    9  O   UNL     1     -40.807 -50.495  12.709  1.00  0.00    -0.349 OA
BRANCH   9  10
HETATM   10  C   UNL     1     -41.729 -51.453  12.180  1.00  0.00     0.209 C 
BRANCH  10  11
HETATM   11  C   UNL     1     -41.259 -52.862  12.592  1.00  0.00     0.161 C 
BRANCH  11  12
HETATM   12  C   UNL     1     -42.471 -53.721  12.987  1.00  0.00     0.168 C 
BRANCH  12  13
HETATM   13  N   UNL     1     -43.205 -53.191  14.109  1.00  0.00    -0.295 N 
HETATM   14  C   UNL     1     -42.787 -53.286  15.452  1.00  0.00     0.330 A 
HETATM   15  N   UNL     1     -43.816 -52.712  16.232  1.00  0.00    -0.298 N 
HETATM   16  O   UNL     1     -41.752 -53.802  15.851  1.00  0.00    -0.246 OA
HETATM   17  C   UNL     1     -44.841 -52.276  15.380  1.00  0.00     0.065 A 
HETATM   18  C   UNL     1     -44.456 -52.557  14.066  1.00  0.00     0.066 A 
HETATM   19  C   UNL     1     -46.051 -51.680  15.669  1.00  0.00     0.032 A 
HETATM   20  C   UNL     1     -45.262 -52.251  12.990  1.00  0.00     0.032 A 
HETATM   21  C   UNL     1     -46.488 -51.637  13.265  1.00  0.00     0.002 A 
HETATM   22  C   UNL     1     -46.879 -51.354  14.590  1.00  0.00     0.002 A 
BRANCH  15  23
HETATM   23  C   UNL     1     -43.879 -52.775  17.670  1.00  0.00     0.130 C 
HETATM   24  C   UNL     1     -44.453 -54.102  18.145  1.00  0.00     0.027 C 
ENDBRANCH  15  23
ENDBRANCH  12  13
ENDBRANCH  11  12
BRANCH  11  25
HETATM   25  O   UNL     1     -40.536 -53.455  11.507  1.00  0.00    -0.392 OA
HETATM   26  H   UNL     1     -39.680 -52.999  11.408  1.00  0.00     0.210 HD
ENDBRANCH  11  25
ENDBRANCH  10  11
ENDBRANCH   9  10
ENDBRANCH   1   9
TORSDOF 7
ENDMDL
MODEL 9
REMARK VINA RESULT:      -5.1      2.588      4.364
REMARK  7 active torsions:
REMARK  status: ('A' for Active; 'I' for Inactive)
REMARK    1  A    between atoms: C_2  and  N_3 
REMARK    2  A    between atoms: N_6  and  C_7 
REMARK    3  A    between atoms: C_7  and  C_8 
REMARK    4  A    between atoms: C_8  and  O_9 
REMARK    5  A    between atoms: C_8  and  C_10 
REMARK    6  A    between atoms: C_10  and  O_11 
REMARK    7  A    between atoms: O_11  and  C_12 
ROOT
HETATM    1  C   UNL     1     -43.319 -50.560  13.665  1.00  0.00     0.069 A 
HETATM    2  C   UNL     1     -42.374 -50.452  12.644  1.00  0.00     0.038 A 
HETATM    3  C   UNL     1     -41.008 -50.442  12.935  1.00  0.00     0.025 A 
HETATM    4  C   UNL     1     -40.578 -50.520  14.261  1.00  0.00     0.044 A 
HETATM    5  C   UNL     1     -39.179 -50.531  14.567  1.00  0.00     0.099 C 
HETATM    6  N   UNL     1     -38.046 -50.546  14.815  1.00  0.00    -0.191 NA
HETATM    7  C   UNL     1     -41.527 -50.592  15.290  1.00  0.00     0.025 A 
HETATM    8  C   UNL     1     -42.894 -50.610  14.993  1.00  0.00     0.038 A 
ENDROOT
BRANCH   1   9
HETATM    9  O   UNL     1     -44.616 -50.566  13.240  1.00  0.00    -0.349 OA
BRANCH   9  10
HETATM   10  C   UNL     1     -45.430 -51.667  13.656  1.00  0.00     0.209 C 
BRANCH  10  11
HETATM   11  C   UNL     1     -45.255 -52.815  12.642  1.00  0.00     0.161 C 
BRANCH  11  12
HETATM   12  C   UNL     1     -45.244 -54.164  13.377  1.00  0.00     0.168 C 
BRANCH  12  13
HETATM   13  N   UNL     1     -44.225 -54.252  14.393  1.00  0.00    -0.295 N 
HETATM   14  C   UNL     1     -44.483 -54.312  15.778  1.00  0.00     0.330 A 
HETATM   15  N   UNL     1     -43.224 -54.313  16.420  1.00  0.00    -0.298 N 
HETATM   16  O   UNL     1     -45.586 -54.321  16.307  1.00  0.00    -0.246 OA
HETATM   17  C   UNL     1     -42.219 -54.254  15.444  1.00  0.00     0.065 A 
HETATM   18  C   UNL     1     -42.837 -54.233  14.190  1.00  0.00     0.066 A 
HETATM   19  C   UNL     1     -40.846 -54.209  15.576  1.00  0.00     0.032 A 
HETATM   20  C   UNL     1     -42.109 -54.170  13.021  1.00  0.00     0.032 A 
HETATM   21  C   UNL     1     -40.716 -54.133  13.137  1.00  0.00     0.002 A 
HETATM   22  C   UNL     1     -40.090 -54.152  14.401  1.00  0.00     0.002 A 
BRANCH  15  23
HETATM   23  C   UNL     1     -43.034 -54.175  17.841  1.00  0.00     0.130 C 
HETATM   24  C   UNL     1     -43.038 -52.713  18.264  1.00  0.00     0.027 C 
ENDBRANCH  15  23
ENDBRANCH  12  13
ENDBRANCH  11  12
BRANCH  11  25
HETATM   25  O   UNL     1     -46.315 -52.759  11.679  1.00  0.00    -0.392 OA
HETATM   26  H   UNL     1     -47.155 -52.581  12.140  1.00  0.00     0.210 HD
ENDBRANCH  11  25
ENDBRANCH  10  11
ENDBRANCH   9  10
ENDBRANCH   1   9
TORSDOF 7
ENDMDL
