MODEL 1
REMARK VINA RESULT:      -6.7      0.000      0.000
REMARK  7 active torsions:
REMARK  status: ('A' for Active; 'I' for Inactive)
REMARK    1  A    between atoms: C_2  and  N_4 
REMARK       I    between atoms: N_4  and  C_5 
REMARK    2  A    between atoms: C_5  and  C_7 
REMARK    3  A    between atoms: C_7  and  C_8 
REMARK    4  A    between atoms: C_8  and  N_9 
REMARK    5  A    between atoms: C_13  and  C_14 
REMARK    6  A    between atoms: C_14  and  N_15 
REMARK    7  A    between atoms: N_15  and  C_16 
ROOT
HETATM    1  N   UNL     1     -41.351 -53.848  13.031  1.00  0.00     0.093 N 
HETATM    2  C   UNL     1     -40.038 -54.171  13.639  1.00  0.00     0.298 C 
HETATM    3  C   UNL     1     -39.233 -52.951  14.128  1.00  0.00     0.198 C 
HETATM    4  O   UNL     1     -39.117 -51.937  13.120  1.00  0.00    -0.381 OA
HETATM    5  C   UNL     1     -40.426 -51.530  12.665  1.00  0.00     0.163 C 
HETATM    6  C   UNL     1     -41.156 -52.740  12.065  1.00  0.00     0.305 C 
ENDROOT
BRANCH   5   7
HETATM    7  C   UNL     1     -40.273 -50.421  11.611  1.00  0.00     0.127 C 
BRANCH   7   8
HETATM    8  N   UNL     1     -40.936 -49.210  12.104  1.00  0.00    -0.275 NA
HETATM    9  H   UNL     1     -40.242 -48.528  12.403  1.00  0.00     0.129 HD
BRANCH   8  10
HETATM   10  C   UNL     1     -41.817 -48.618  11.183  1.00  0.00     0.094 A 
HETATM   11  C   UNL     1     -43.025 -48.129  11.663  1.00  0.00     0.045 A 
HETATM   12  C   UNL     1     -43.936 -47.562  10.779  1.00  0.00     0.022 A 
HETATM   13  C   UNL     1     -43.597 -47.512   9.443  1.00  0.00     0.107 A 
HETATM   14  N   UNL     1     -42.431 -47.997   8.982  1.00  0.00    -0.311 N 
HETATM   15  N   UNL     1     -41.543 -48.562   9.862  1.00  0.00    -0.290 N 
ATOM     16  HN  UNL     1     -42.208 -47.945   7.987  1.00  0.00     0.186 HD
ATOM     17  HN  UNL     1     -40.664 -48.945   9.515  1.00  0.00     0.188 HD
ENDBRANCH   8  10
ENDBRANCH   7   8
ENDBRANCH   5   7
BRANCH   1  18
HETATM   18  C   UNL     1     -42.378 -53.575  14.062  1.00  0.00     0.282 C 
BRANCH  18  19
HETATM   19  C   UNL     1     -43.350 -54.732  14.346  1.00  0.00     0.133 C 
BRANCH  19  20
HETATM   20  C   UNL     1     -44.824 -54.424  14.129  1.00  0.00     0.219 C 
HETATM   21  N   UNL     1     -45.122 -53.092  13.997  1.00  0.00    -0.357 N 
HETATM   22  H   UNL     1     -44.334 -52.468  13.820  1.00  0.00     0.162 HD
HETATM   23  O   UNL     1     -45.677 -55.307  14.167  1.00  0.00    -0.274 OA
BRANCH  21  24
HETATM   24  C   UNL     1     -46.457 -52.577  13.760  1.00  0.00     0.076 C 
HETATM   25  C   UNL     1     -46.793 -51.542  14.830  1.00  0.00     0.032 C 
HETATM   26  C   UNL     1     -46.553 -51.967  12.366  1.00  0.00     0.032 C 
ENDBRANCH  21  24
ENDBRANCH  19  20
ENDBRANCH  18  19
ENDBRANCH   1  18
TORSDOF 7
ENDMDL
MODEL 2
REMARK VINA RESULT:      -6.7      2.327      6.587
REMARK  7 active torsions:
REMARK  status: ('A' for Active; 'I' for Inactive)
REMARK    1  A    between atoms: C_2  and  N_4 
REMARK       I    between atoms: N_4  and  C_5 
REMARK    2  A    between atoms: C_5  and  C_7 
REMARK    3  A    between atoms: C_7  and  C_8 
REMARK    4  A    between atoms: C_8  and  N_9 
REMARK    5  A    between atoms: C_13  and  C_14 
REMARK    6  A    between atoms: C_14  and  N_15 
REMARK    7  A    between atoms: N_15  and  C_16 
ROOT
HETATM    1  N   UNL     1     -40.435 -48.948  12.608  1.00  0.00     0.093 N 
HETATM    2  C   UNL     1     -38.979 -49.162  12.789  1.00  0.00     0.298 C 
HETATM    3  C   UNL     1     -38.423 -50.434  12.118  1.00  0.00     0.198 C 
HETATM    4  O   UNL     1     -39.179 -51.603  12.462  1.00  0.00    -0.381 OA
HETATM    5  C   UNL     1     -40.570 -51.420  12.121  1.00  0.00     0.163 C 
HETATM    6  C   UNL     1     -41.132 -50.224  12.903  1.00  0.00     0.305 C 
ENDROOT
BRANCH   5   7
HETATM    7  C   UNL     1     -41.349 -52.699  12.469  1.00  0.00     0.127 C 
BRANCH   7   8
HETATM    8  N   UNL     1     -42.619 -52.689  11.736  1.00  0.00    -0.275 NA
HETATM    9  H   UNL     1     -42.528 -53.218  10.870  1.00  0.00     0.129 HD
BRANCH   8  10
HETATM   10  C   UNL     1     -43.716 -53.168  12.471  1.00  0.00     0.094 A 
HETATM   11  C   UNL     1     -43.487 -54.186  13.388  1.00  0.00     0.045 A 
HETATM   12  C   UNL     1     -44.552 -54.707  14.114  1.00  0.00     0.022 A 
HETATM   13  C   UNL     1     -45.808 -54.184  13.888  1.00  0.00     0.107 A 
HETATM   14  N   UNL     1     -46.026 -53.207  12.992  1.00  0.00    -0.311 N 
HETATM   15  N   UNL     1     -44.969 -52.706  12.274  1.00  0.00    -0.290 N 
ATOM     16  HN  UNL     1     -46.967 -52.840  12.847  1.00  0.00     0.186 HD
ATOM     17  HN  UNL     1     -45.132 -51.975  11.582  1.00  0.00     0.188 HD
ENDBRANCH   8  10
ENDBRANCH   7   8
ENDBRANCH   5   7
BRANCH   1  18
HETATM   18  C   UNL     1     -40.744 -48.387  11.274  1.00  0.00     0.282 C 
BRANCH  18  19
HETATM   19  C   UNL     1     -40.973 -46.867  11.235  1.00  0.00     0.133 C 
BRANCH  19  20
HETATM   20  C   UNL     1     -41.981 -46.378  10.205  1.00  0.00     0.219 C 
HETATM   21  N   UNL     1     -42.642 -47.371   9.528  1.00  0.00    -0.357 N 
HETATM   22  H   UNL     1     -42.580 -48.308   9.927  1.00  0.00     0.162 HD
HETATM   23  O   UNL     1     -42.109 -45.184   9.950  1.00  0.00    -0.274 OA
BRANCH  21  24
HETATM   24  C   UNL     1     -43.658 -47.130   8.523  1.00  0.00     0.076 C 
HETATM   25  C   UNL     1     -43.458 -48.102   7.363  1.00  0.00     0.032 C 
HETATM   26  C   UNL     1     -45.051 -47.285   9.125  1.00  0.00     0.032 C 
ENDBRANCH  21  24
ENDBRANCH  19  20
ENDBRANCH  18  19
ENDBRANCH   1  18
TORSDOF 7
ENDMDL
MODEL 3
REMARK VINA RESULT:      -6.6      1.788      2.306
REMARK  7 active torsions:
REMARK  status: ('A' for Active; 'I' for Inactive)
REMARK    1  A    between atoms: C_2  and  N_4 
REMARK       I    between atoms: N_4  and  C_5 
REMARK    2  A    between atoms: C_5  and  C_7 
REMARK    3  A    between atoms: C_7  and  C_8 
REMARK    4  A    between atoms: C_8  and  N_9 
REMARK    5  A    between atoms: C_13  and  C_14 
REMARK    6  A    between atoms: C_14  and  N_15 
REMARK    7  A    between atoms: N_15  and  C_16 
ROOT
HETATM    1  N   UNL     1     -40.885 -51.407  12.063  1.00  0.00     0.093 N 
HETATM    2  C   UNL     1     -39.830 -51.289  13.099  1.00  0.00     0.298 C 
HETATM    3  C   UNL     1     -39.857 -49.975  13.904  1.00  0.00     0.198 C 
HETATM    4  O   UNL     1     -39.901 -48.820  13.055  1.00  0.00    -0.381 OA
HETATM    5  C   UNL     1     -41.038 -48.891  12.168  1.00  0.00     0.163 C 
HETATM    6  C   UNL     1     -40.918 -50.143  11.287  1.00  0.00     0.305 C 
ENDROOT
BRANCH   5   7
HETATM    7  C   UNL     1     -41.079 -47.626  11.295  1.00  0.00     0.127 C 
BRANCH   7   8
HETATM    8  N   UNL     1     -42.467 -47.162  11.207  1.00  0.00    -0.275 NA
HETATM    9  H   UNL     1     -42.511 -46.158  11.375  1.00  0.00     0.129 HD
BRANCH   8  10
HETATM   10  C   UNL     1     -43.103 -47.468   9.992  1.00  0.00     0.094 A 
HETATM   11  C   UNL     1     -44.488 -47.374   9.943  1.00  0.00     0.045 A 
HETATM   12  C   UNL     1     -45.156 -47.697   8.767  1.00  0.00     0.022 A 
HETATM   13  C   UNL     1     -44.404 -48.105   7.686  1.00  0.00     0.107 A 
HETATM   14  N   UNL     1     -43.065 -48.205   7.742  1.00  0.00    -0.311 N 
HETATM   15  N   UNL     1     -42.417 -47.892   8.910  1.00  0.00    -0.290 N 
ATOM     16  HN  UNL     1     -42.536 -48.510   6.924  1.00  0.00     0.186 HD
ATOM     17  HN  UNL     1     -41.402 -47.982   8.961  1.00  0.00     0.188 HD
ENDBRANCH   8  10
ENDBRANCH   7   8
ENDBRANCH   5   7
BRANCH   1  18
HETATM   18  C   UNL     1     -42.189 -51.787  12.652  1.00  0.00     0.282 C 
BRANCH  18  19
HETATM   19  C   UNL     1     -42.730 -53.161  12.224  1.00  0.00     0.133 C 
BRANCH  19  20
HETATM   20  C   UNL     1     -44.218 -53.384  12.449  1.00  0.00     0.219 C 
HETATM   21  N   UNL     1     -44.968 -52.238  12.526  1.00  0.00    -0.357 N 
HETATM   22  H   UNL     1     -44.519 -51.382  12.198  1.00  0.00     0.162 HD
HETATM   23  O   UNL     1     -44.678 -54.507  12.637  1.00  0.00    -0.274 OA
BRANCH  21  24
HETATM   24  C   UNL     1     -46.405 -52.219  12.713  1.00  0.00     0.076 C 
HETATM   25  C   UNL     1     -46.738 -51.416  13.968  1.00  0.00     0.032 C 
HETATM   26  C   UNL     1     -47.093 -51.622  11.490  1.00  0.00     0.032 C 
ENDBRANCH  21  24
ENDBRANCH  19  20
ENDBRANCH  18  19
ENDBRANCH   1  18
TORSDOF 7
ENDMDL
MODEL 4
REMARK VINA RESULT:      -6.4      1.249      1.630
REMARK  7 active torsions:
REMARK  status: ('A' for Active; 'I' for Inactive)
REMARK    1  A    between atoms: C_2  and  N_4 
REMARK       I    between atoms: N_4  and  C_5 
REMARK    2  A    between atoms: C_5  and  C_7 
REMARK    3  A    between atoms: C_7  and  C_8 
REMARK    4  A    between atoms: C_8  and  N_9 
REMARK    5  A    between atoms: C_13  and  C_14 
REMARK    6  A    between atoms: C_14  and  N_15 
REMARK    7  A    between atoms: N_15  and  C_16 
ROOT
HETATM    1  N   UNL     1     -41.260 -54.488  14.339  1.00  0.00     0.093 N 
HETATM    2  C   UNL     1     -40.364 -54.794  15.480  1.00  0.00     0.298 C 
HETATM    3  C   UNL     1     -39.702 -53.565  16.132  1.00  0.00     0.198 C 
HETATM    4  O   UNL     1     -39.063 -52.717  15.167  1.00  0.00    -0.381 OA
HETATM    5  C   UNL     1     -40.009 -52.305  14.156  1.00  0.00     0.163 C 
HETATM    6  C   UNL     1     -40.556 -53.546  13.435  1.00  0.00     0.305 C 
ENDROOT
BRANCH   5   7
HETATM    7  C   UNL     1     -39.306 -51.373  13.156  1.00  0.00     0.127 C 
BRANCH   7   8
HETATM    8  N   UNL     1     -39.964 -51.503  11.852  1.00  0.00    -0.275 NA
HETATM    9  H   UNL     1     -40.549 -52.337  11.837  1.00  0.00     0.129 HD
BRANCH   8  10
HETATM   10  C   UNL     1     -40.724 -50.383  11.473  1.00  0.00     0.094 A 
HETATM   11  C   UNL     1     -41.686 -49.921  12.362  1.00  0.00     0.045 A 
HETATM   12  C   UNL     1     -42.478 -48.833  12.012  1.00  0.00     0.022 A 
HETATM   13  C   UNL     1     -42.273 -48.254  10.777  1.00  0.00     0.107 A 
HETATM   14  N   UNL     1     -41.349 -48.713   9.916  1.00  0.00    -0.311 N 
HETATM   15  N   UNL     1     -40.579 -49.792  10.268  1.00  0.00    -0.290 N 
ATOM     16  HN  UNL     1     -41.221 -48.262   9.009  1.00  0.00     0.186 HD
ATOM     17  HN  UNL     1     -39.887 -50.153   9.611  1.00  0.00     0.188 HD
ENDBRANCH   8  10
ENDBRANCH   7   8
ENDBRANCH   5   7
BRANCH   1  18
HETATM   18  C   UNL     1     -42.584 -54.009  14.796  1.00  0.00     0.282 C 
BRANCH  18  19
HETATM   19  C   UNL     1     -43.708 -55.059  14.775  1.00  0.00     0.133 C 
BRANCH  19  20
HETATM   20  C   UNL     1     -45.088 -54.541  14.396  1.00  0.00     0.219 C 
HETATM   21  N   UNL     1     -45.197 -53.174  14.346  1.00  0.00    -0.357 N 
HETATM   22  H   UNL     1     -44.321 -52.651  14.329  1.00  0.00     0.162 HD
HETATM   23  O   UNL     1     -46.039 -55.302  14.244  1.00  0.00    -0.274 OA
BRANCH  21  24
HETATM   24  C   UNL     1     -46.411 -52.469  13.984  1.00  0.00     0.076 C 
HETATM   25  C   UNL     1     -46.888 -51.647  15.178  1.00  0.00     0.032 C 
HETATM   26  C   UNL     1     -46.168 -51.576  12.772  1.00  0.00     0.032 C 
ENDBRANCH  21  24
ENDBRANCH  19  20
ENDBRANCH  18  19
ENDBRANCH   1  18
TORSDOF 7
ENDMDL
MODEL 5
REMARK VINA RESULT:      -6.3      3.196      7.005
REMARK  7 active torsions:
REMARK  status: ('A' for Active; 'I' for Inactive)
REMARK    1  A    between atoms: C_2  and  N_4 
REMARK       I    between atoms: N_4  and  C_5 
REMARK    2  A    between atoms: C_5  and  C_7 
REMARK    3  A    between atoms: C_7  and  C_8 
REMARK    4  A    between atoms: C_8  and  N_9 
REMARK    5  A    between atoms: C_13  and  C_14 
REMARK    6  A    between atoms: C_14  and  N_15 
REMARK    7  A    between atoms: N_15  and  C_16 
ROOT
HETATM    1  N   UNL     1     -40.101 -48.685  12.791  1.00  0.00     0.093 N 
HETATM    2  C   UNL     1     -38.665 -49.054  12.824  1.00  0.00     0.298 C 
HETATM    3  C   UNL     1     -38.282 -50.246  11.926  1.00  0.00     0.198 C 
HETATM    4  O   UNL     1     -39.128 -51.384  12.144  1.00  0.00    -0.381 OA
HETATM    5  C   UNL     1     -40.512 -51.026  11.944  1.00  0.00     0.163 C 
HETATM    6  C   UNL     1     -40.902 -49.925  12.940  1.00  0.00     0.305 C 
ENDROOT
BRANCH   5   7
HETATM    7  C   UNL     1     -41.392 -52.269  12.151  1.00  0.00     0.127 C 
BRANCH   7   8
HETATM    8  N   UNL     1     -40.549 -53.464  12.037  1.00  0.00    -0.275 NA
HETATM    9  H   UNL     1     -39.690 -53.240  11.538  1.00  0.00     0.129 HD
BRANCH   8  10
HETATM   10  C   UNL     1     -40.240 -54.072  13.266  1.00  0.00     0.094 A 
HETATM   11  C   UNL     1     -41.259 -54.201  14.200  1.00  0.00     0.045 A 
HETATM   12  C   UNL     1     -40.986 -54.772  15.439  1.00  0.00     0.022 A 
HETATM   13  C   UNL     1     -39.695 -55.188  15.689  1.00  0.00     0.107 A 
HETATM   14  N   UNL     1     -38.710 -55.051  14.785  1.00  0.00    -0.311 N 
HETATM   15  N   UNL     1     -38.989 -54.479  13.570  1.00  0.00    -0.290 N 
ATOM     16  HN  UNL     1     -37.765 -55.370  15.000  1.00  0.00     0.186 HD
ATOM     17  HN  UNL     1     -38.241 -54.359  12.887  1.00  0.00     0.188 HD
ENDBRANCH   8  10
ENDBRANCH   7   8
ENDBRANCH   5   7
BRANCH   1  18
HETATM   18  C   UNL     1     -40.435 -47.893  11.586  1.00  0.00     0.282 C 
BRANCH  18  19
HETATM   19  C   UNL     1     -41.681 -47.001  11.708  1.00  0.00     0.133 C 
BRANCH  19  20
HETATM   20  C   UNL     1     -42.309 -46.561  10.393  1.00  0.00     0.219 C 
HETATM   21  N   UNL     1     -43.324 -47.366   9.942  1.00  0.00    -0.357 N 
HETATM   22  H   UNL     1     -43.715 -48.023  10.618  1.00  0.00     0.162 HD
HETATM   23  O   UNL     1     -41.865 -45.611   9.756  1.00  0.00    -0.274 OA
BRANCH  21  24
HETATM   24  C   UNL     1     -44.076 -47.121   8.727  1.00  0.00     0.076 C 
HETATM   25  C   UNL     1     -43.492 -47.964   7.596  1.00  0.00     0.032 C 
HETATM   26  C   UNL     1     -45.551 -47.445   8.938  1.00  0.00     0.032 C 
ENDBRANCH  21  24
ENDBRANCH  19  20
ENDBRANCH  18  19
ENDBRANCH   1  18
TORSDOF 7
ENDMDL
MODEL 6
REMARK VINA RESULT:      -6.2      2.018      2.725
REMARK  7 active torsions:
REMARK  status: ('A' for Active; 'I' for Inactive)
REMARK    1  A    between atoms: C_2  and  N_4 
REMARK       I    between atoms: N_4  and  C_5 
REMARK    2  A    between atoms: C_5  and  C_7 
REMARK    3  A    between atoms: C_7  and  C_8 
REMARK    4  A    between atoms: C_8  and  N_9 
REMARK    5  A    between atoms: C_13  and  C_14 
REMARK    6  A    between atoms: C_14  and  N_15 
REMARK    7  A    between atoms: N_15  and  C_16 
ROOT
HETATM    1  N   UNL     1     -40.618 -54.248  14.549  1.00  0.00     0.093 N 
HETATM    2  C   UNL     1     -40.101 -54.343  15.935  1.00  0.00     0.298 C 
HETATM    3  C   UNL     1     -39.645 -53.006  16.550  1.00  0.00     0.198 C 
HETATM    4  O   UNL     1     -38.741 -52.295  15.693  1.00  0.00    -0.381 OA
HETATM    5  C   UNL     1     -39.342 -52.077  14.399  1.00  0.00     0.163 C 
HETATM    6  C   UNL     1     -39.668 -53.432  13.754  1.00  0.00     0.305 C 
ENDROOT
BRANCH   5   7
HETATM    7  C   UNL     1     -38.366 -51.285  13.513  1.00  0.00     0.127 C 
BRANCH   7   8
HETATM    8  N   UNL     1     -38.830 -51.355  12.124  1.00  0.00    -0.275 NA
HETATM    9  H   UNL     1     -39.333 -52.227  11.967  1.00  0.00     0.129 HD
BRANCH   8  10
HETATM   10  C   UNL     1     -39.626 -50.268  11.725  1.00  0.00     0.094 A 
HETATM   11  C   UNL     1     -39.195 -48.991  12.059  1.00  0.00     0.045 A 
HETATM   12  C   UNL     1     -39.971 -47.892  11.707  1.00  0.00     0.022 A 
HETATM   13  C   UNL     1     -41.152 -48.121  11.034  1.00  0.00     0.107 A 
HETATM   14  N   UNL     1     -41.570 -49.360  10.723  1.00  0.00    -0.311 N 
HETATM   15  N   UNL     1     -40.801 -50.438  11.083  1.00  0.00    -0.290 N 
ATOM     16  HN  UNL     1     -42.449 -49.498  10.224  1.00  0.00     0.186 HD
ATOM     17  HN  UNL     1     -41.122 -51.381  10.862  1.00  0.00     0.188 HD
ENDBRANCH   8  10
ENDBRANCH   7   8
ENDBRANCH   5   7
BRANCH   1  18
HETATM   18  C   UNL     1     -42.012 -53.751  14.518  1.00  0.00     0.282 C 
BRANCH  18  19
HETATM   19  C   UNL     1     -42.558 -53.406  13.122  1.00  0.00     0.133 C 
BRANCH  19  20
HETATM   20  C   UNL     1     -43.477 -52.196  13.054  1.00  0.00     0.219 C 
HETATM   21  N   UNL     1     -44.816 -52.481  13.143  1.00  0.00    -0.357 N 
HETATM   22  H   UNL     1     -45.057 -53.415  13.476  1.00  0.00     0.162 HD
HETATM   23  O   UNL     1     -43.038 -51.068  12.841  1.00  0.00    -0.274 OA
BRANCH  21  24
HETATM   24  C   UNL     1     -45.863 -51.479  13.124  1.00  0.00     0.076 C 
HETATM   25  C   UNL     1     -46.803 -51.758  11.955  1.00  0.00     0.032 C 
HETATM   26  C   UNL     1     -46.625 -51.480  14.445  1.00  0.00     0.032 C 
ENDBRANCH  21  24
ENDBRANCH  19  20
ENDBRANCH  18  19
ENDBRANCH   1  18
TORSDOF 7
ENDMDL
MODEL 7
REMARK VINA RESULT:      -6.2      3.768      6.681
REMARK  7 active torsions:
REMARK  status: ('A' for Active; 'I' for Inactive)
REMARK    1  A    between atoms: C_2  and  N_4 
REMARK       I    between atoms: N_4  and  C_5 
REMARK    2  A    between atoms: C_5  and  C_7 
REMARK    3  A    between atoms: C_7  and  C_8 
REMARK    4  A    between atoms: C_8  and  N_9 
REMARK    5  A    between atoms: C_13  and  C_14 
REMARK    6  A    between atoms: C_14  and  N_15 
REMARK    7  A    between atoms: N_15  and  C_16 
ROOT
HETATM    1  N   UNL     1     -41.912 -47.181  12.423  1.00  0.00     0.093 N 
HETATM    2  C   UNL     1     -41.040 -46.409  13.341  1.00  0.00     0.298 C 
HETATM    3  C   UNL     1     -39.533 -46.497  13.030  1.00  0.00     0.198 C 
HETATM    4  O   UNL     1     -39.087 -47.853  12.888  1.00  0.00    -0.381 OA
HETATM    5  C   UNL     1     -39.853 -48.530  11.868  1.00  0.00     0.163 C 
HETATM    6  C   UNL     1     -41.335 -48.539  12.267  1.00  0.00     0.305 C 
ENDROOT
BRANCH   5   7
HETATM    7  C   UNL     1     -39.332 -49.968  11.714  1.00  0.00     0.127 C 
BRANCH   7   8
HETATM    8  N   UNL     1     -40.452 -50.833  11.329  1.00  0.00    -0.275 NA
HETATM    9  H   UNL     1     -40.409 -51.039  10.332  1.00  0.00     0.129 HD
BRANCH   8  10
HETATM   10  C   UNL     1     -40.533 -52.032  12.058  1.00  0.00     0.094 A 
HETATM   11  C   UNL     1     -40.178 -52.000  13.400  1.00  0.00     0.045 A 
HETATM   12  C   UNL     1     -40.217 -53.172  14.148  1.00  0.00     0.022 A 
HETATM   13  C   UNL     1     -40.611 -54.332  13.514  1.00  0.00     0.107 A 
HETATM   14  N   UNL     1     -40.944 -54.359  12.212  1.00  0.00    -0.311 N 
HETATM   15  N   UNL     1     -40.893 -53.199  11.482  1.00  0.00    -0.290 N 
ATOM     16  HN  UNL     1     -41.232 -55.233  11.772  1.00  0.00     0.186 HD
ATOM     17  HN  UNL     1     -41.129 -53.218  10.490  1.00  0.00     0.188 HD
ENDBRANCH   8  10
ENDBRANCH   7   8
ENDBRANCH   5   7
BRANCH   1  18
HETATM   18  C   UNL     1     -42.127 -46.468  11.143  1.00  0.00     0.282 C 
BRANCH  18  19
HETATM   19  C   UNL     1     -42.421 -47.365   9.930  1.00  0.00     0.133 C 
BRANCH  19  20
HETATM   20  C   UNL     1     -43.618 -46.958   9.083  1.00  0.00     0.219 C 
HETATM   21  N   UNL     1     -44.654 -47.856   9.080  1.00  0.00    -0.357 N 
HETATM   22  H   UNL     1     -44.633 -48.573   9.806  1.00  0.00     0.162 HD
HETATM   23  O   UNL     1     -43.599 -45.944   8.390  1.00  0.00    -0.274 OA
BRANCH  21  24
HETATM   24  C   UNL     1     -45.898 -47.659   8.362  1.00  0.00     0.076 C 
HETATM   25  C   UNL     1     -46.394 -49.004   7.838  1.00  0.00     0.032 C 
HETATM   26  C   UNL     1     -46.940 -47.013   9.269  1.00  0.00     0.032 C 
ENDBRANCH  21  24
ENDBRANCH  19  20
ENDBRANCH  18  19
ENDBRANCH   1  18
TORSDOF 7
ENDMDL
MODEL 8
REMARK VINA RESULT:      -6.1      1.965      2.970
REMARK  7 active torsions:
REMARK  status: ('A' for Active; 'I' for Inactive)
REMARK    1  A    between atoms: C_2  and  N_4 
REMARK       I    between atoms: N_4  and  C_5 
REMARK    2  A    between atoms: C_5  and  C_7 
REMARK    3  A    between atoms: C_7  and  C_8 
REMARK    4  A    between atoms: C_8  and  N_9 
REMARK    5  A    between atoms: C_13  and  C_14 
REMARK    6  A    between atoms: C_14  and  N_15 
REMARK    7  A    between atoms: N_15  and  C_16 
ROOT
HETATM    1  N   UNL     1     -39.332 -50.633  12.044  1.00  0.00     0.093 N 
HETATM    2  C   UNL     1     -38.328 -50.003  12.937  1.00  0.00     0.298 C 
HETATM    3  C   UNL     1     -38.865 -48.844  13.798  1.00  0.00     0.198 C 
HETATM    4  O   UNL     1     -39.568 -47.868  13.017  1.00  0.00    -0.381 OA
HETATM    5  C   UNL     1     -40.645 -48.492  12.284  1.00  0.00     0.163 C 
HETATM    6  C   UNL     1     -40.067 -49.555  11.338  1.00  0.00     0.305 C 
ENDROOT
BRANCH   5   7
HETATM    7  C   UNL     1     -41.400 -47.419  11.482  1.00  0.00     0.127 C 
BRANCH   7   8
HETATM    8  N   UNL     1     -41.473 -47.845  10.081  1.00  0.00    -0.275 NA
HETATM    9  H   UNL     1     -41.099 -48.788   9.982  1.00  0.00     0.129 HD
BRANCH   8  10
HETATM   10  C   UNL     1     -42.762 -47.785   9.524  1.00  0.00     0.094 A 
HETATM   11  C   UNL     1     -43.822 -47.492  10.372  1.00  0.00     0.045 A 
HETATM   12  C   UNL     1     -45.116 -47.452   9.864  1.00  0.00     0.022 A 
HETATM   13  C   UNL     1     -45.292 -47.711   8.521  1.00  0.00     0.107 A 
HETATM   14  N   UNL     1     -44.264 -48.004   7.707  1.00  0.00    -0.311 N 
HETATM   15  N   UNL     1     -42.993 -48.050   8.221  1.00  0.00    -0.290 N 
ATOM     16  HN  UNL     1     -44.427 -48.191   6.717  1.00  0.00     0.186 HD
ATOM     17  HN  UNL     1     -42.211 -48.287   7.610  1.00  0.00     0.188 HD
ENDBRANCH   8  10
ENDBRANCH   7   8
ENDBRANCH   5   7
BRANCH   1  18
HETATM   18  C   UNL     1     -40.204 -51.575  12.781  1.00  0.00     0.282 C 
BRANCH  18  19
HETATM   19  C   UNL     1     -41.227 -52.336  11.921  1.00  0.00     0.133 C 
BRANCH  19  20
HETATM   20  C   UNL     1     -42.390 -52.961  12.677  1.00  0.00     0.219 C 
HETATM   21  N   UNL     1     -43.572 -52.271  12.590  1.00  0.00    -0.357 N 
HETATM   22  H   UNL     1     -43.628 -51.561  11.859  1.00  0.00     0.162 HD
HETATM   23  O   UNL     1     -42.237 -53.955  13.382  1.00  0.00    -0.274 OA
BRANCH  21  24
HETATM   24  C   UNL     1     -44.810 -52.699  13.212  1.00  0.00     0.076 C 
HETATM   25  C   UNL     1     -44.992 -51.955  14.531  1.00  0.00     0.032 C 
HETATM   26  C   UNL     1     -45.990 -52.446  12.279  1.00  0.00     0.032 C 
ENDBRANCH  21  24
ENDBRANCH  19  20
ENDBRANCH  18  19
ENDBRANCH   1  18
TORSDOF 7
ENDMDL
MODEL 9
REMARK VINA RESULT:      -5.7      3.143      6.875
REMARK  7 active torsions:
REMARK  status: ('A' for Active; 'I' for Inactive)
REMARK    1  A    between atoms: C_2  and  N_4 
REMARK       I    between atoms: N_4  and  C_5 
REMARK    2  A    between atoms: C_5  and  C_7 
REMARK    3  A    between atoms: C_7  and  C_8 
REMARK    4  A    between atoms: C_8  and  N_9 
REMARK    5  A    between atoms: C_13  and  C_14 
REMARK    6  A    between atoms: C_14  and  N_15 
REMARK    7  A    between atoms: N_15  and  C_16 
ROOT
HETATM    1  N   UNL     1     -40.760 -46.957  13.670  1.00  0.00     0.093 N 
HETATM    2  C   UNL     1     -39.469 -47.420  14.234  1.00  0.00     0.298 C 
HETATM    3  C   UNL     1     -38.555 -48.160  13.238  1.00  0.00     0.198 C 
HETATM    4  O   UNL     1     -39.243 -49.214  12.550  1.00  0.00    -0.381 OA
HETATM    5  C   UNL     1     -40.410 -48.696  11.875  1.00  0.00     0.163 C 
HETATM    6  C   UNL     1     -41.363 -48.079  12.909  1.00  0.00     0.305 C 
ENDROOT
BRANCH   5   7
HETATM    7  C   UNL     1     -41.108 -49.839  11.120  1.00  0.00     0.127 C 
BRANCH   7   8
HETATM    8  N   UNL     1     -40.369 -51.082  11.364  1.00  0.00    -0.275 NA
HETATM    9  H   UNL     1     -39.516 -50.885  11.885  1.00  0.00     0.129 HD
BRANCH   8  10
HETATM   10  C   UNL     1     -41.110 -52.075  12.025  1.00  0.00     0.094 A 
HETATM   11  C   UNL     1     -40.521 -52.712  13.109  1.00  0.00     0.045 A 
HETATM   12  C   UNL     1     -41.211 -53.721  13.771  1.00  0.00     0.022 A 
HETATM   13  C   UNL     1     -42.470 -54.052  13.314  1.00  0.00     0.107 A 
HETATM   14  N   UNL     1     -43.032 -53.440  12.258  1.00  0.00    -0.311 N 
HETATM   15  N   UNL     1     -42.337 -52.452  11.607  1.00  0.00    -0.290 N 
ATOM     16  HN  UNL     1     -43.965 -53.707  11.944  1.00  0.00     0.186 HD
ATOM     17  HN  UNL     1     -42.754 -51.996  10.795  1.00  0.00     0.188 HD
ENDBRANCH   8  10
ENDBRANCH   7   8
ENDBRANCH   5   7
BRANCH   1  18
HETATM   18  C   UNL     1     -40.598 -45.713  12.884  1.00  0.00     0.282 C 
BRANCH  18  19
HETATM   19  C   UNL     1     -41.896 -45.129  12.301  1.00  0.00     0.133 C 
BRANCH  19  20
HETATM   20  C   UNL     1     -42.095 -45.326  10.806  1.00  0.00     0.219 C 
HETATM   21  N   UNL     1     -43.282 -45.918  10.454  1.00  0.00    -0.357 N 
HETATM   22  H   UNL     1     -44.001 -45.951  11.178  1.00  0.00     0.162 HD
HETATM   23  O   UNL     1     -41.210 -45.056   9.999  1.00  0.00    -0.274 OA
BRANCH  21  24
HETATM   24  C   UNL     1     -43.687 -46.178   9.087  1.00  0.00     0.076 C 
HETATM   25  C   UNL     1     -43.295 -47.604   8.710  1.00  0.00     0.032 C 
HETATM   26  C   UNL     1     -45.189 -45.969   8.927  1.00  0.00     0.032 C 
ENDBRANCH  21  24
ENDBRANCH  19  20
ENDBRANCH  18  19
ENDBRANCH   1  18
TORSDOF 7
ENDMDL
