MODEL 1
REMARK VINA RESULT:      -6.6      0.000      0.000
REMARK  5 active torsions:
REMARK  status: ('A' for Active; 'I' for Inactive)
REMARK    1  A    between atoms: C_6  and  O_8 
REMARK    2  A    between atoms: O_8  and  C_9 
REMARK    3  A    between atoms: C_9  and  C_10 
REMARK       I    between atoms: C_10  and  N_12 
REMARK    4  A    between atoms: N_12  and  C_13 
REMARK    5  A    between atoms: C_18  and  N_21 
ROOT
HETATM    1  C   UNL     1     -41.714 -50.348  12.413  1.00  0.00     0.246 C 
HETATM    2  O   UNL     1     -42.770 -49.926  12.889  1.00  0.00    -0.271 OA
HETATM    3  N   UNL     1     -40.969 -49.715  11.447  1.00  0.00    -0.311 N 
HETATM    4  H   UNL     1     -39.976 -49.919  11.426  1.00  0.00     0.170 HD
ENDROOT
BRANCH   3   5
HETATM    5  C   UNL     1     -41.332 -48.467  10.921  1.00  0.00     0.124 A 
HETATM    6  C   UNL     1     -40.615 -47.330  11.214  1.00  0.00     0.067 A 
HETATM    7  C   UNL     1     -41.016 -46.201  10.557  1.00  0.00     0.110 A 
HETATM    8  N   UNL     1     -42.043 -46.184   9.683  1.00  0.00    -0.202 N 
HETATM    9  C   UNL     1     -42.716 -47.332   9.478  1.00  0.00     0.680 A 
ATOM     10  HN  UNL     1     -42.301 -45.328   9.192  1.00  0.00     0.183 HD
HETATM   11  N   UNL     1     -42.406 -48.471  10.120  1.00  0.00    -0.176 N 
ATOM     12  HN  UNL     1     -42.971 -49.312  10.001  1.00  0.00     0.186 HD
BRANCH   9  13
HETATM   13  N   UNL     1     -43.795 -47.313   8.604  1.00  0.00    -0.226 N 
HETATM   14  C   UNL     1     -45.120 -47.364   9.204  1.00  0.00     0.168 C 
HETATM   15  C   UNL     1     -43.630 -48.071   7.371  1.00  0.00     0.168 C 
ENDBRANCH   9  13
ENDBRANCH   3   5
BRANCH   1  16
HETATM   16  C   UNL     1     -41.170 -51.704  12.847  1.00  0.00     0.271 C 
BRANCH  16  17
HETATM   17  O   UNL     1     -41.891 -52.836  12.378  1.00  0.00    -0.377 OA
BRANCH  17  18
HETATM   18  C   UNL     1     -42.968 -53.203  13.261  1.00  0.00     0.122 C 
HETATM   19  C   UNL     1     -42.715 -54.548  13.960  1.00  0.00     0.032 C 
HETATM   20  C   UNL     1     -43.910 -55.027  14.771  1.00  0.00     0.003 C 
HETATM   21  C   UNL     1     -45.179 -55.081  13.928  1.00  0.00     0.004 C 
HETATM   22  C   UNL     1     -45.478 -53.751  13.223  1.00  0.00    -0.016 C 
HETATM   23  C   UNL     1     -45.963 -52.686  14.209  1.00  0.00     0.010 C 
HETATM   24  C   UNL     1     -44.255 -53.271  12.425  1.00  0.00     0.036 C 
ENDBRANCH  17  18
ENDBRANCH  16  17
ENDBRANCH   1  16
TORSDOF 5
ENDMDL
MODEL 2
REMARK VINA RESULT:      -6.4      1.382      1.928
REMARK  5 active torsions:
REMARK  status: ('A' for Active; 'I' for Inactive)
REMARK    1  A    between atoms: C_6  and  O_8 
REMARK    2  A    between atoms: O_8  and  C_9 
REMARK    3  A    between atoms: C_9  and  C_10 
REMARK       I    between atoms: C_10  and  N_12 
REMARK    4  A    between atoms: N_12  and  C_13 
REMARK    5  A    between atoms: C_18  and  N_21 
ROOT
HETATM    1  C   UNL     1     -41.467 -51.100  12.040  1.00  0.00     0.246 C 
HETATM    2  O   UNL     1     -42.447 -50.700  12.670  1.00  0.00    -0.271 OA
HETATM    3  N   UNL     1     -40.726 -50.347  11.161  1.00  0.00    -0.311 N 
HETATM    4  H   UNL     1     -39.760 -50.621  11.022  1.00  0.00     0.170 HD
ENDROOT
BRANCH   3   5
HETATM    5  C   UNL     1     -41.002 -48.994  10.918  1.00  0.00     0.124 A 
HETATM    6  C   UNL     1     -40.187 -47.998  11.403  1.00  0.00     0.067 A 
HETATM    7  C   UNL     1     -40.515 -46.730  11.011  1.00  0.00     0.110 A 
HETATM    8  N   UNL     1     -41.562 -46.457  10.207  1.00  0.00    -0.202 N 
HETATM    9  C   UNL     1     -42.332 -47.485   9.803  1.00  0.00     0.680 A 
ATOM     10  HN  UNL     1     -41.765 -45.502   9.914  1.00  0.00     0.183 HD
HETATM   11  N   UNL     1     -42.097 -48.752  10.183  1.00  0.00    -0.176 N 
ATOM     12  HN  UNL     1     -42.731 -49.507   9.921  1.00  0.00     0.186 HD
BRANCH   9  13
HETATM   13  N   UNL     1     -43.432 -47.206   9.002  1.00  0.00    -0.226 N 
HETATM   14  C   UNL     1     -43.487 -47.882   7.714  1.00  0.00     0.168 C 
HETATM   15  C   UNL     1     -43.893 -45.825   9.010  1.00  0.00     0.168 C 
ENDBRANCH   9  13
ENDBRANCH   3   5
BRANCH   1  16
HETATM   16  C   UNL     1     -41.026 -52.554  12.156  1.00  0.00     0.271 C 
BRANCH  16  17
HETATM   17  O   UNL     1     -40.316 -52.890  13.340  1.00  0.00    -0.377 OA
BRANCH  17  18
HETATM   18  C   UNL     1     -41.187 -53.351  14.390  1.00  0.00     0.122 C 
HETATM   19  C   UNL     1     -40.427 -54.119  15.483  1.00  0.00     0.032 C 
HETATM   20  C   UNL     1     -41.350 -54.749  16.515  1.00  0.00     0.003 C 
HETATM   21  C   UNL     1     -42.405 -55.634  15.861  1.00  0.00     0.004 C 
HETATM   22  C   UNL     1     -43.200 -54.902  14.772  1.00  0.00    -0.016 C 
HETATM   23  C   UNL     1     -44.169 -53.881  15.372  1.00  0.00     0.010 C 
HETATM   24  C   UNL     1     -42.252 -54.254  13.750  1.00  0.00     0.036 C 
ENDBRANCH  17  18
ENDBRANCH  16  17
ENDBRANCH   1  16
TORSDOF 5
ENDMDL
MODEL 3
REMARK VINA RESULT:      -6.2      1.381      2.609
REMARK  5 active torsions:
REMARK  status: ('A' for Active; 'I' for Inactive)
REMARK    1  A    between atoms: C_6  and  O_8 
REMARK    2  A    between atoms: O_8  and  C_9 
REMARK    3  A    between atoms: C_9  and  C_10 
REMARK       I    between atoms: C_10  and  N_12 
REMARK    4  A    between atoms: N_12  and  C_13 
REMARK    5  A    between atoms: C_18  and  N_21 
ROOT
HETATM    1  C   UNL     1     -40.977 -50.360  11.682  1.00  0.00     0.246 C 
HETATM    2  O   UNL     1     -39.844 -50.100  11.273  1.00  0.00    -0.271 OA
HETATM    3  N   UNL     1     -42.074 -49.542  11.555  1.00  0.00    -0.311 N 
HETATM    4  H   UNL     1     -42.983 -49.991  11.548  1.00  0.00     0.170 HD
ENDROOT
BRANCH   3   5
HETATM    5  C   UNL     1     -42.014 -48.307  10.893  1.00  0.00     0.124 A 
HETATM    6  C   UNL     1     -43.014 -47.903  10.039  1.00  0.00     0.067 A 
HETATM    7  C   UNL     1     -42.879 -46.639   9.538  1.00  0.00     0.110 A 
HETATM    8  N   UNL     1     -41.844 -45.832   9.847  1.00  0.00    -0.202 N 
HETATM    9  C   UNL     1     -40.889 -46.315  10.663  1.00  0.00     0.680 A 
ATOM     10  HN  UNL     1     -41.786 -44.884   9.474  1.00  0.00     0.183 HD
HETATM   11  N   UNL     1     -40.932 -47.564  11.159  1.00  0.00    -0.176 N 
ATOM     12  HN  UNL     1     -40.164 -47.933  11.720  1.00  0.00     0.186 HD
BRANCH   9  13
HETATM   13  N   UNL     1     -39.803 -45.501  10.958  1.00  0.00    -0.226 N 
HETATM   14  C   UNL     1     -39.784 -44.896  12.282  1.00  0.00     0.168 C 
HETATM   15  C   UNL     1     -39.325 -44.658   9.871  1.00  0.00     0.168 C 
ENDBRANCH   9  13
ENDBRANCH   3   5
BRANCH   1  16
HETATM   16  C   UNL     1     -41.235 -51.652  12.449  1.00  0.00     0.271 C 
BRANCH  16  17
HETATM   17  O   UNL     1     -42.299 -52.457  11.960  1.00  0.00    -0.377 OA
BRANCH  17  18
HETATM   18  C   UNL     1     -43.167 -52.915  13.014  1.00  0.00     0.122 C 
HETATM   19  C   UNL     1     -42.658 -54.211  13.666  1.00  0.00     0.032 C 
HETATM   20  C   UNL     1     -43.642 -54.795  14.669  1.00  0.00     0.003 C 
HETATM   21  C   UNL     1     -45.020 -55.000  14.052  1.00  0.00     0.004 C 
HETATM   22  C   UNL     1     -45.575 -53.725  13.402  1.00  0.00    -0.016 C 
HETATM   23  C   UNL     1     -45.999 -52.696  14.452  1.00  0.00     0.010 C 
HETATM   24  C   UNL     1     -44.561 -53.137  12.408  1.00  0.00     0.036 C 
ENDBRANCH  17  18
ENDBRANCH  16  17
ENDBRANCH   1  16
TORSDOF 5
ENDMDL
MODEL 4
REMARK VINA RESULT:      -6.1      2.552      7.687
REMARK  5 active torsions:
REMARK  status: ('A' for Active; 'I' for Inactive)
REMARK    1  A    between atoms: C_6  and  O_8 
REMARK    2  A    between atoms: O_8  and  C_9 
REMARK    3  A    between atoms: C_9  and  C_10 
REMARK       I    between atoms: C_10  and  N_12 
REMARK    4  A    between atoms: N_12  and  C_13 
REMARK    5  A    between atoms: C_18  and  N_21 
ROOT
HETATM    1  C   UNL     1     -41.443 -49.958  11.798  1.00  0.00     0.246 C 
HETATM    2  O   UNL     1     -42.103 -49.666  12.797  1.00  0.00    -0.271 OA
HETATM    3  N   UNL     1     -41.122 -51.236  11.406  1.00  0.00    -0.311 N 
HETATM    4  H   UNL     1     -40.948 -51.382  10.418  1.00  0.00     0.170 HD
ENDROOT
BRANCH   3   5
HETATM    5  C   UNL     1     -41.561 -52.367  12.108  1.00  0.00     0.124 A 
HETATM    6  C   UNL     1     -40.686 -53.154  12.819  1.00  0.00     0.067 A 
HETATM    7  C   UNL     1     -41.260 -54.166  13.536  1.00  0.00     0.110 A 
HETATM    8  N   UNL     1     -42.589 -54.392  13.555  1.00  0.00    -0.202 N 
HETATM    9  C   UNL     1     -43.375 -53.598  12.804  1.00  0.00     0.680 A 
ATOM     10  HN  UNL     1     -42.986 -55.142  14.120  1.00  0.00     0.183 HD
HETATM   11  N   UNL     1     -42.877 -52.611  12.039  1.00  0.00    -0.176 N 
ATOM     12  HN  UNL     1     -43.483 -52.065  11.426  1.00  0.00     0.186 HD
BRANCH   9  13
HETATM   13  N   UNL     1     -44.741 -53.848  12.793  1.00  0.00    -0.226 N 
HETATM   14  C   UNL     1     -45.613 -52.691  12.653  1.00  0.00     0.168 C 
HETATM   15  C   UNL     1     -45.207 -54.884  13.704  1.00  0.00     0.168 C 
ENDBRANCH   9  13
ENDBRANCH   3   5
BRANCH   1  16
HETATM   16  C   UNL     1     -40.858 -48.859  10.920  1.00  0.00     0.271 C 
BRANCH  16  17
HETATM   17  O   UNL     1     -41.763 -47.833  10.533  1.00  0.00    -0.377 OA
BRANCH  17  18
HETATM   18  C   UNL     1     -41.492 -46.584  11.197  1.00  0.00     0.122 C 
HETATM   19  C   UNL     1     -42.394 -45.448  10.690  1.00  0.00     0.032 C 
HETATM   20  C   UNL     1     -42.015 -44.090  11.264  1.00  0.00     0.003 C 
HETATM   21  C   UNL     1     -40.545 -43.768  11.022  1.00  0.00     0.004 C 
HETATM   22  C   UNL     1     -39.606 -44.871  11.528  1.00  0.00    -0.016 C 
HETATM   23  C   UNL     1     -39.536 -44.896  13.057  1.00  0.00     0.010 C 
HETATM   24  C   UNL     1     -40.015 -46.238  10.956  1.00  0.00     0.036 C 
ENDBRANCH  17  18
ENDBRANCH  16  17
ENDBRANCH   1  16
TORSDOF 5
ENDMDL
MODEL 5
REMARK VINA RESULT:      -6.1      1.638      3.023
REMARK  5 active torsions:
REMARK  status: ('A' for Active; 'I' for Inactive)
REMARK    1  A    between atoms: C_6  and  O_8 
REMARK    2  A    between atoms: O_8  and  C_9 
REMARK    3  A    between atoms: C_9  and  C_10 
REMARK       I    between atoms: C_10  and  N_12 
REMARK    4  A    between atoms: N_12  and  C_13 
REMARK    5  A    between atoms: C_18  and  N_21 
ROOT
HETATM    1  C   UNL     1     -41.311 -50.374  11.731  1.00  0.00     0.246 C 
HETATM    2  O   UNL     1     -40.138 -50.187  11.404  1.00  0.00    -0.271 OA
HETATM    3  N   UNL     1     -42.342 -49.488  11.530  1.00  0.00    -0.311 N 
HETATM    4  H   UNL     1     -43.276 -49.878  11.458  1.00  0.00     0.170 HD
ENDROOT
BRANCH   3   5
HETATM    5  C   UNL     1     -42.158 -48.261  10.877  1.00  0.00     0.124 A 
HETATM    6  C   UNL     1     -43.028 -47.828   9.904  1.00  0.00     0.067 A 
HETATM    7  C   UNL     1     -42.789 -46.573   9.420  1.00  0.00     0.110 A 
HETATM    8  N   UNL     1     -41.773 -45.800   9.853  1.00  0.00    -0.202 N 
HETATM    9  C   UNL     1     -40.943 -46.310  10.783  1.00  0.00     0.680 A 
ATOM     10  HN  UNL     1     -41.636 -44.858   9.487  1.00  0.00     0.183 HD
HETATM   11  N   UNL     1     -41.091 -47.552  11.273  1.00  0.00    -0.176 N 
ATOM     12  HN  UNL     1     -40.413 -47.944  11.926  1.00  0.00     0.186 HD
BRANCH   9  13
HETATM   13  N   UNL     1     -39.875 -45.531  11.208  1.00  0.00    -0.226 N 
HETATM   14  C   UNL     1     -39.609 -45.517  12.639  1.00  0.00     0.168 C 
HETATM   15  C   UNL     1     -39.700 -44.259  10.521  1.00  0.00     0.168 C 
ENDBRANCH   9  13
ENDBRANCH   3   5
BRANCH   1  16
HETATM   16  C   UNL     1     -41.703 -51.645  12.475  1.00  0.00     0.271 C 
BRANCH  16  17
HETATM   17  O   UNL     1     -42.298 -51.452  13.752  1.00  0.00    -0.377 OA
BRANCH  17  18
HETATM   18  C   UNL     1     -43.625 -52.005  13.827  1.00  0.00     0.122 C 
HETATM   19  C   UNL     1     -43.874 -53.072  12.748  1.00  0.00     0.032 C 
HETATM   20  C   UNL     1     -45.317 -53.551  12.711  1.00  0.00     0.003 C 
HETATM   21  C   UNL     1     -46.293 -52.389  12.564  1.00  0.00     0.004 C 
HETATM   22  C   UNL     1     -46.090 -51.307  13.633  1.00  0.00    -0.016 C 
HETATM   23  C   UNL     1     -46.573 -51.774  15.008  1.00  0.00     0.010 C 
HETATM   24  C   UNL     1     -44.623 -50.849  13.671  1.00  0.00     0.036 C 
ENDBRANCH  17  18
ENDBRANCH  16  17
ENDBRANCH   1  16
TORSDOF 5
ENDMDL
MODEL 6
REMARK VINA RESULT:      -5.7      1.932      3.287
REMARK  5 active torsions:
REMARK  status: ('A' for Active; 'I' for Inactive)
REMARK    1  A    between atoms: C_6  and  O_8 
REMARK    2  A    between atoms: O_8  and  C_9 
REMARK    3  A    between atoms: C_9  and  C_10 
REMARK       I    between atoms: C_10  and  N_12 
REMARK    4  A    between atoms: N_12  and  C_13 
REMARK    5  A    between atoms: C_18  and  N_21 
ROOT
HETATM    1  C   UNL     1     -41.443 -52.392  13.076  1.00  0.00     0.246 C 
HETATM    2  O   UNL     1     -41.898 -52.306  11.934  1.00  0.00    -0.271 OA
HETATM    3  N   UNL     1     -40.412 -51.635  13.579  1.00  0.00    -0.311 N 
HETATM    4  H   UNL     1     -40.392 -51.497  14.584  1.00  0.00     0.170 HD
ENDROOT
BRANCH   3   5
HETATM    5  C   UNL     1     -39.785 -50.631  12.827  1.00  0.00     0.124 A 
HETATM    6  C   UNL     1     -38.453 -50.711  12.496  1.00  0.00     0.067 A 
HETATM    7  C   UNL     1     -37.993 -49.718  11.677  1.00  0.00     0.110 A 
HETATM    8  N   UNL     1     -38.776 -48.720  11.220  1.00  0.00    -0.202 N 
HETATM    9  C   UNL     1     -40.062 -48.694  11.619  1.00  0.00     0.680 A 
ATOM     10  HN  UNL     1     -38.407 -48.007  10.592  1.00  0.00     0.183 HD
HETATM   11  N   UNL     1     -40.573 -49.612  12.457  1.00  0.00    -0.176 N 
ATOM     12  HN  UNL     1     -41.530 -49.535  12.801  1.00  0.00     0.186 HD
BRANCH   9  13
HETATM   13  N   UNL     1     -40.865 -47.650  11.179  1.00  0.00    -0.226 N 
HETATM   14  C   UNL     1     -41.930 -47.996  10.249  1.00  0.00     0.168 C 
HETATM   15  C   UNL     1     -40.185 -46.388  10.920  1.00  0.00     0.168 C 
ENDBRANCH   9  13
ENDBRANCH   3   5
BRANCH   1  16
HETATM   16  C   UNL     1     -41.984 -53.445  14.037  1.00  0.00     0.271 C 
BRANCH  16  17
HETATM   17  O   UNL     1     -42.672 -52.944  15.175  1.00  0.00    -0.377 OA
BRANCH  17  18
HETATM   18  C   UNL     1     -44.099 -52.922  14.986  1.00  0.00     0.122 C 
HETATM   19  C   UNL     1     -44.560 -53.918  13.909  1.00  0.00     0.032 C 
HETATM   20  C   UNL     1     -46.041 -53.795  13.585  1.00  0.00     0.003 C 
HETATM   21  C   UNL     1     -46.418 -52.367  13.205  1.00  0.00     0.004 C 
HETATM   22  C   UNL     1     -45.991 -51.341  14.262  1.00  0.00    -0.016 C 
HETATM   23  C   UNL     1     -46.860 -51.428  15.518  1.00  0.00     0.010 C 
HETATM   24  C   UNL     1     -44.497 -51.492  14.594  1.00  0.00     0.036 C 
ENDBRANCH  17  18
ENDBRANCH  16  17
ENDBRANCH   1  16
TORSDOF 5
ENDMDL
MODEL 7
REMARK VINA RESULT:      -5.6      2.252      3.745
REMARK  5 active torsions:
REMARK  status: ('A' for Active; 'I' for Inactive)
REMARK    1  A    between atoms: C_6  and  O_8 
REMARK    2  A    between atoms: O_8  and  C_9 
REMARK    3  A    between atoms: C_9  and  C_10 
REMARK       I    between atoms: C_10  and  N_12 
REMARK    4  A    between atoms: N_12  and  C_13 
REMARK    5  A    between atoms: C_18  and  N_21 
ROOT
HETATM    1  C   UNL     1     -40.754 -48.832  11.622  1.00  0.00     0.246 C 
HETATM    2  O   UNL     1     -40.926 -48.123  12.615  1.00  0.00    -0.271 OA
HETATM    3  N   UNL     1     -41.306 -48.611  10.383  1.00  0.00    -0.311 N 
HETATM    4  H   UNL     1     -40.806 -48.985   9.584  1.00  0.00     0.170 HD
ENDROOT
BRANCH   3   5
HETATM    5  C   UNL     1     -42.115 -47.498  10.112  1.00  0.00     0.124 A 
HETATM    6  C   UNL     1     -43.268 -47.614   9.371  1.00  0.00     0.067 A 
HETATM    7  C   UNL     1     -44.012 -46.473   9.266  1.00  0.00     0.110 A 
HETATM    8  N   UNL     1     -43.655 -45.306   9.840  1.00  0.00    -0.202 N 
HETATM    9  C   UNL     1     -42.494 -45.267  10.521  1.00  0.00     0.680 A 
ATOM     10  HN  UNL     1     -44.246 -44.479   9.762  1.00  0.00     0.183 HD
HETATM   11  N   UNL     1     -41.689 -46.338  10.629  1.00  0.00    -0.176 N 
ATOM     12  HN  UNL     1     -40.782 -46.269  11.091  1.00  0.00     0.186 HD
BRANCH   9  13
HETATM   13  N   UNL     1     -42.104 -44.060  11.086  1.00  0.00    -0.226 N 
HETATM   14  C   UNL     1     -41.325 -44.138  12.313  1.00  0.00     0.168 C 
HETATM   15  C   UNL     1     -43.083 -42.983  11.026  1.00  0.00     0.168 C 
ENDBRANCH   9  13
ENDBRANCH   3   5
BRANCH   1  16
HETATM   16  C   UNL     1     -39.921 -50.104  11.728  1.00  0.00     0.271 C 
BRANCH  16  17
HETATM   17  O   UNL     1     -40.650 -51.323  11.696  1.00  0.00    -0.377 OA
BRANCH  17  18
HETATM   18  C   UNL     1     -40.614 -52.016  12.957  1.00  0.00     0.122 C 
HETATM   19  C   UNL     1     -39.255 -51.872  13.662  1.00  0.00     0.032 C 
HETATM   20  C   UNL     1     -39.145 -52.727  14.916  1.00  0.00     0.003 C 
HETATM   21  C   UNL     1     -39.457 -54.191  14.628  1.00  0.00     0.004 C 
HETATM   22  C   UNL     1     -40.814 -54.383  13.938  1.00  0.00    -0.016 C 
HETATM   23  C   UNL     1     -41.977 -54.137  14.902  1.00  0.00     0.010 C 
HETATM   24  C   UNL     1     -40.917 -53.497  12.686  1.00  0.00     0.036 C 
ENDBRANCH  17  18
ENDBRANCH  16  17
ENDBRANCH   1  16
TORSDOF 5
ENDMDL
MODEL 8
REMARK VINA RESULT:      -5.6      1.946      3.166
REMARK  5 active torsions:
REMARK  status: ('A' for Active; 'I' for Inactive)
REMARK    1  A    between atoms: C_6  and  O_8 
REMARK    2  A    between atoms: O_8  and  C_9 
REMARK    3  A    between atoms: C_9  and  C_10 
REMARK       I    between atoms: C_10  and  N_12 
REMARK    4  A    between atoms: N_12  and  C_13 
REMARK    5  A    between atoms: C_18  and  N_21 
ROOT
HETATM    1  C   UNL     1     -41.770 -49.852  12.059  1.00  0.00     0.246 C 
HETATM    2  O   UNL     1     -40.683 -49.312  12.268  1.00  0.00    -0.271 OA
HETATM    3  N   UNL     1     -42.865 -49.241  11.495  1.00  0.00    -0.311 N 
HETATM    4  H   UNL     1     -43.527 -49.839  11.014  1.00  0.00     0.170 HD
ENDROOT
BRANCH   3   5
HETATM    5  C   UNL     1     -42.834 -47.911  11.054  1.00  0.00     0.124 A 
HETATM    6  C   UNL     1     -43.178 -47.575   9.766  1.00  0.00     0.067 A 
HETATM    7  C   UNL     1     -43.201 -46.235   9.497  1.00  0.00     0.110 A 
HETATM    8  N   UNL     1     -42.906 -45.295  10.418  1.00  0.00    -0.202 N 
HETATM    9  C   UNL     1     -42.545 -45.708  11.647  1.00  0.00     0.680 A 
ATOM     10  HN  UNL     1     -42.955 -44.302  10.190  1.00  0.00     0.183 HD
HETATM   11  N   UNL     1     -42.458 -47.009  11.972  1.00  0.00    -0.176 N 
ATOM     12  HN  UNL     1     -42.117 -47.301  12.888  1.00  0.00     0.186 HD
BRANCH   9  13
HETATM   13  N   UNL     1     -42.208 -44.745  12.590  1.00  0.00    -0.226 N 
HETATM   14  C   UNL     1     -42.880 -44.833  13.878  1.00  0.00     0.168 C 
HETATM   15  C   UNL     1     -41.996 -43.398  12.079  1.00  0.00     0.168 C 
ENDBRANCH   9  13
ENDBRANCH   3   5
BRANCH   1  16
HETATM   16  C   UNL     1     -42.003 -51.295  12.493  1.00  0.00     0.271 C 
BRANCH  16  17
HETATM   17  O   UNL     1     -42.670 -51.464  13.736  1.00  0.00    -0.377 OA
BRANCH  17  18
HETATM   18  C   UNL     1     -43.923 -52.159  13.595  1.00  0.00     0.122 C 
HETATM   19  C   UNL     1     -45.115 -51.194  13.487  1.00  0.00     0.032 C 
HETATM   20  C   UNL     1     -46.458 -51.909  13.498  1.00  0.00     0.003 C 
HETATM   21  C   UNL     1     -46.602 -52.819  14.712  1.00  0.00     0.004 C 
HETATM   22  C   UNL     1     -45.439 -53.812  14.849  1.00  0.00    -0.016 C 
HETATM   23  C   UNL     1     -45.509 -54.913  13.789  1.00  0.00     0.010 C 
HETATM   24  C   UNL     1     -44.090 -53.076  14.816  1.00  0.00     0.036 C 
ENDBRANCH  17  18
ENDBRANCH  16  17
ENDBRANCH   1  16
TORSDOF 5
ENDMDL
MODEL 9
REMARK VINA RESULT:      -5.5      1.905      2.873
REMARK  5 active torsions:
REMARK  status: ('A' for Active; 'I' for Inactive)
REMARK    1  A    between atoms: C_6  and  O_8 
REMARK    2  A    between atoms: O_8  and  C_9 
REMARK    3  A    between atoms: C_9  and  C_10 
REMARK       I    between atoms: C_10  and  N_12 
REMARK    4  A    between atoms: N_12  and  C_13 
REMARK    5  A    between atoms: C_18  and  N_21 
ROOT
HETATM    1  C   UNL     1     -40.708 -49.506  11.726  1.00  0.00     0.246 C 
HETATM    2  O   UNL     1     -41.854 -49.922  11.901  1.00  0.00    -0.271 OA
HETATM    3  N   UNL     1     -40.380 -48.269  11.224  1.00  0.00    -0.311 N 
HETATM    4  H   UNL     1     -39.479 -47.889  11.493  1.00  0.00     0.170 HD
ENDROOT
BRANCH   3   5
HETATM    5  C   UNL     1     -41.352 -47.317  10.888  1.00  0.00     0.124 A 
HETATM    6  C   UNL     1     -41.369 -46.073  11.475  1.00  0.00     0.067 A 
HETATM    7  C   UNL     1     -42.307 -45.208  10.985  1.00  0.00     0.110 A 
HETATM    8  N   UNL     1     -43.166 -45.536   9.999  1.00  0.00    -0.202 N 
HETATM    9  C   UNL     1     -43.108 -46.786   9.501  1.00  0.00     0.680 A 
ATOM     10  HN  UNL     1     -43.839 -44.859   9.640  1.00  0.00     0.183 HD
HETATM   11  N   UNL     1     -42.241 -47.703   9.963  1.00  0.00    -0.176 N 
ATOM     12  HN  UNL     1     -42.259 -48.664   9.619  1.00  0.00     0.186 HD
BRANCH   9  13
HETATM   13  N   UNL     1     -44.012 -47.140   8.508  1.00  0.00    -0.226 N 
HETATM   14  C   UNL     1     -45.386 -47.366   8.930  1.00  0.00     0.168 C 
HETATM   15  C   UNL     1     -43.509 -48.043   7.482  1.00  0.00     0.168 C 
ENDBRANCH   9  13
ENDBRANCH   3   5
BRANCH   1  16
HETATM   16  C   UNL     1     -39.515 -50.410  12.014  1.00  0.00     0.271 C 
BRANCH  16  17
HETATM   17  O   UNL     1     -39.184 -50.575  13.387  1.00  0.00    -0.377 OA
BRANCH  17  18
HETATM   18  C   UNL     1     -39.907 -51.661  13.997  1.00  0.00     0.122 C 
HETATM   19  C   UNL     1     -39.242 -52.146  15.295  1.00  0.00     0.032 C 
HETATM   20  C   UNL     1     -39.900 -53.393  15.867  1.00  0.00     0.003 C 
HETATM   21  C   UNL     1     -39.970 -54.516  14.838  1.00  0.00     0.004 C 
HETATM   22  C   UNL     1     -40.643 -54.079  13.530  1.00  0.00    -0.016 C 
HETATM   23  C   UNL     1     -42.152 -53.900  13.704  1.00  0.00     0.010 C 
HETATM   24  C   UNL     1     -39.980 -52.807  12.976  1.00  0.00     0.036 C 
ENDBRANCH  17  18
ENDBRANCH  16  17
ENDBRANCH   1  16
TORSDOF 5
ENDMDL
