MODEL 1
REMARK VINA RESULT:      -5.5      0.000      0.000
REMARK  7 active torsions:
REMARK  status: ('A' for Active; 'I' for Inactive)
REMARK    1  A    between atoms: C_2  and  C_4 
REMARK    2  A    between atoms: C_4  and  N_6 
REMARK       I    between atoms: N_6  and  C_7 
REMARK    3  A    between atoms: C_7  and  C_9 
REMARK    4  A    between atoms: C_9  and  N_10 
REMARK    5  A    between atoms: N_10  and  C_11 
REMARK    6  A    between atoms: C_11  and  C_12 
REMARK    7  A    between atoms: C_12  and  N_13 
ROOT
HETATM    1  C   UNL     1     -42.461 -51.020  13.120  1.00  0.00     0.371 C 
ENDROOT
BRANCH   1   2
HETATM    2  C   UNL     1     -43.566 -52.065  12.946  1.00  0.00     0.246 C 
HETATM    3  N   UNL     1     -44.841 -51.543  12.968  1.00  0.00    -0.355 N 
HETATM    4  H   UNL     1     -44.905 -50.530  13.012  1.00  0.00     0.162 HD
HETATM    5  O   UNL     1     -43.316 -53.251  12.756  1.00  0.00    -0.272 OA
BRANCH   3   6
HETATM    6  C   UNL     1     -46.023 -52.355  12.714  1.00  0.00     0.083 C 
HETATM    7  C   UNL     1     -46.877 -51.683  11.634  1.00  0.00     0.032 C 
BRANCH   6   8
HETATM    8  C   UNL     1     -46.812 -52.607  14.023  1.00  0.00    -0.000 C 
HETATM    9  C   UNL     1     -46.334 -53.877  14.737  1.00  0.00     0.011 C 
HETATM   10  C   UNL     1     -46.691 -51.423  14.992  1.00  0.00     0.011 C 
ENDBRANCH   6   8
ENDBRANCH   3   6
ENDBRANCH   1   2
BRANCH   1  11
HETATM   11  N   UNL     1     -42.087 -50.421  11.814  1.00  0.00     0.093 N 
HETATM   12  H   UNL     1     -42.851 -50.627  11.163  1.00  0.00     0.316 HD
BRANCH  11  13
HETATM   13  C   UNL     1     -41.968 -48.953  11.919  1.00  0.00     0.291 C 
BRANCH  13  14
HETATM   14  C   UNL     1     -41.604 -48.271  10.598  1.00  0.00     0.178 C 
BRANCH  14  15
HETATM   15  N   UNL     1     -42.780 -47.891   9.843  1.00  0.00    -0.302 N 
HETATM   16  C   UNL     1     -43.976 -47.469  10.347  1.00  0.00     0.111 A 
HETATM   17  C   UNL     1     -44.800 -47.292   9.262  1.00  0.00     0.037 A 
HETATM   18  C   UNL     1     -44.006 -47.627   8.150  1.00  0.00     0.108 A 
HETATM   19  N   UNL     1     -42.766 -47.980   8.499  1.00  0.00    -0.310 N 
ATOM     20  HN  UNL     1     -41.993 -48.254   7.892  1.00  0.00     0.186 HD
ENDBRANCH  14  15
ENDBRANCH  13  14
ENDBRANCH  11  13
ENDBRANCH   1  11
TORSDOF 7
ENDMDL
MODEL 2
REMARK VINA RESULT:      -5.4      3.283      4.144
REMARK  7 active torsions:
REMARK  status: ('A' for Active; 'I' for Inactive)
REMARK    1  A    between atoms: C_2  and  C_4 
REMARK    2  A    between atoms: C_4  and  N_6 
REMARK       I    between atoms: N_6  and  C_7 
REMARK    3  A    between atoms: C_7  and  C_9 
REMARK    4  A    between atoms: C_9  and  N_10 
REMARK    5  A    between atoms: N_10  and  C_11 
REMARK    6  A    between atoms: C_11  and  C_12 
REMARK    7  A    between atoms: C_12  and  N_13 
ROOT
HETATM    1  C   UNL     1     -42.856 -53.701  12.817  1.00  0.00     0.371 C 
ENDROOT
BRANCH   1   2
HETATM    2  C   UNL     1     -44.371 -53.668  13.034  1.00  0.00     0.246 C 
HETATM    3  N   UNL     1     -44.850 -52.453  13.472  1.00  0.00    -0.355 N 
HETATM    4  H   UNL     1     -44.169 -51.700  13.522  1.00  0.00     0.162 HD
HETATM    5  O   UNL     1     -45.085 -54.635  12.788  1.00  0.00    -0.272 OA
BRANCH   3   6
HETATM    6  C   UNL     1     -46.272 -52.185  13.636  1.00  0.00     0.083 C 
HETATM    7  C   UNL     1     -46.832 -51.606  12.333  1.00  0.00     0.032 C 
BRANCH   6   8
HETATM    8  C   UNL     1     -46.524 -51.261  14.853  1.00  0.00    -0.000 C 
HETATM    9  C   UNL     1     -47.473 -51.907  15.868  1.00  0.00     0.011 C 
HETATM   10  C   UNL     1     -45.214 -50.897  15.567  1.00  0.00     0.011 C 
ENDBRANCH   6   8
ENDBRANCH   3   6
ENDBRANCH   1   2
BRANCH   1  11
HETATM   11  N   UNL     1     -42.466 -52.848  11.667  1.00  0.00     0.093 N 
HETATM   12  H   UNL     1     -43.015 -51.986  11.737  1.00  0.00     0.316 HD
BRANCH  11  13
HETATM   13  C   UNL     1     -41.038 -52.479  11.741  1.00  0.00     0.291 C 
BRANCH  13  14
HETATM   14  C   UNL     1     -40.801 -51.004  12.071  1.00  0.00     0.178 C 
BRANCH  14  15
HETATM   15  N   UNL     1     -39.392 -50.668  12.069  1.00  0.00    -0.302 N 
HETATM   16  C   UNL     1     -38.499 -50.878  13.079  1.00  0.00     0.111 A 
HETATM   17  C   UNL     1     -37.311 -50.338  12.648  1.00  0.00     0.037 A 
HETATM   18  C   UNL     1     -37.591 -49.833  11.365  1.00  0.00     0.108 A 
HETATM   19  N   UNL     1     -38.858 -50.044  11.001  1.00  0.00    -0.310 N 
ATOM     20  HN  UNL     1     -39.313 -49.793  10.124  1.00  0.00     0.186 HD
ENDBRANCH  14  15
ENDBRANCH  13  14
ENDBRANCH  11  13
ENDBRANCH   1  11
TORSDOF 7
ENDMDL
MODEL 3
REMARK VINA RESULT:      -5.4      1.910      2.640
REMARK  7 active torsions:
REMARK  status: ('A' for Active; 'I' for Inactive)
REMARK    1  A    between atoms: C_2  and  C_4 
REMARK    2  A    between atoms: C_4  and  N_6 
REMARK       I    between atoms: N_6  and  C_7 
REMARK    3  A    between atoms: C_7  and  C_9 
REMARK    4  A    between atoms: C_9  and  N_10 
REMARK    5  A    between atoms: N_10  and  C_11 
REMARK    6  A    between atoms: C_11  and  C_12 
REMARK    7  A    between atoms: C_12  and  N_13 
ROOT
HETATM    1  C   UNL     1     -42.492 -49.037  11.849  1.00  0.00     0.371 C 
ENDROOT
BRANCH   1   2
HETATM    2  C   UNL     1     -43.209 -49.519  13.113  1.00  0.00     0.246 C 
HETATM    3  N   UNL     1     -43.959 -50.661  12.933  1.00  0.00    -0.355 N 
HETATM    4  H   UNL     1     -43.888 -51.098  12.018  1.00  0.00     0.162 HD
HETATM    5  O   UNL     1     -43.077 -48.952  14.193  1.00  0.00    -0.272 OA
BRANCH   3   6
HETATM    6  C   UNL     1     -44.631 -51.338  14.033  1.00  0.00     0.083 C 
HETATM    7  C   UNL     1     -44.088 -52.765  14.157  1.00  0.00     0.032 C 
BRANCH   6   8
HETATM    8  C   UNL     1     -46.168 -51.301  13.849  1.00  0.00    -0.000 C 
HETATM    9  C   UNL     1     -46.581 -51.763  12.447  1.00  0.00     0.011 C 
HETATM   10  C   UNL     1     -46.883 -52.179  14.886  1.00  0.00     0.011 C 
ENDBRANCH   6   8
ENDBRANCH   3   6
ENDBRANCH   1   2
BRANCH   1  11
HETATM   11  N   UNL     1     -43.385 -48.182  11.026  1.00  0.00     0.093 N 
HETATM   12  H   UNL     1     -43.628 -47.369  11.600  1.00  0.00     0.316 HD
BRANCH  11  13
HETATM   13  C   UNL     1     -42.685 -47.691   9.822  1.00  0.00     0.291 C 
BRANCH  13  14
HETATM   14  C   UNL     1     -43.550 -46.797   8.932  1.00  0.00     0.178 C 
BRANCH  14  15
HETATM   15  N   UNL     1     -44.881 -47.339   8.749  1.00  0.00    -0.302 N 
HETATM   16  C   UNL     1     -46.024 -46.933   9.375  1.00  0.00     0.111 A 
HETATM   17  C   UNL     1     -47.013 -47.779   8.937  1.00  0.00     0.037 A 
HETATM   18  C   UNL     1     -46.367 -48.655   8.045  1.00  0.00     0.108 A 
HETATM   19  N   UNL     1     -45.067 -48.382   7.917  1.00  0.00    -0.310 N 
ATOM     20  HN  UNL     1     -44.378 -48.851   7.329  1.00  0.00     0.186 HD
ENDBRANCH  14  15
ENDBRANCH  13  14
ENDBRANCH  11  13
ENDBRANCH   1  11
TORSDOF 7
ENDMDL
MODEL 4
REMARK VINA RESULT:      -5.2      1.266      2.003
REMARK  7 active torsions:
REMARK  status: ('A' for Active; 'I' for Inactive)
REMARK    1  A    between atoms: C_2  and  C_4 
REMARK    2  A    between atoms: C_4  and  N_6 
REMARK       I    between atoms: N_6  and  C_7 
REMARK    3  A    between atoms: C_7  and  C_9 
REMARK    4  A    between atoms: C_9  and  N_10 
REMARK    5  A    between atoms: N_10  and  C_11 
REMARK    6  A    between atoms: C_11  and  C_12 
REMARK    7  A    between atoms: C_12  and  N_13 
ROOT
HETATM    1  C   UNL     1     -42.593 -49.073  12.707  1.00  0.00     0.371 C 
ENDROOT
BRANCH   1   2
HETATM    2  C   UNL     1     -42.998 -50.403  13.348  1.00  0.00     0.246 C 
HETATM    3  N   UNL     1     -44.196 -50.906  12.887  1.00  0.00    -0.355 N 
HETATM    4  H   UNL     1     -44.630 -50.392  12.125  1.00  0.00     0.162 HD
HETATM    5  O   UNL     1     -42.284 -50.977  14.162  1.00  0.00    -0.272 OA
BRANCH   3   6
HETATM    6  C   UNL     1     -44.704 -52.209  13.293  1.00  0.00     0.083 C 
HETATM    7  C   UNL     1     -44.101 -53.291  12.392  1.00  0.00     0.032 C 
BRANCH   6   8
HETATM    8  C   UNL     1     -46.253 -52.225  13.284  1.00  0.00    -0.000 C 
HETATM    9  C   UNL     1     -46.834 -51.511  14.509  1.00  0.00     0.011 C 
HETATM   10  C   UNL     1     -46.818 -51.567  12.017  1.00  0.00     0.011 C 
ENDBRANCH   6   8
ENDBRANCH   3   6
ENDBRANCH   1   2
BRANCH   1  11
HETATM   11  N   UNL     1     -42.303 -49.247  11.261  1.00  0.00     0.093 N 
HETATM   12  H   UNL     1     -43.192 -49.132  10.765  1.00  0.00     0.316 HD
BRANCH  11  13
HETATM   13  C   UNL     1     -41.378 -48.204  10.777  1.00  0.00     0.291 C 
BRANCH  13  14
HETATM   14  C   UNL     1     -42.086 -46.963  10.226  1.00  0.00     0.178 C 
BRANCH  14  15
HETATM   15  N   UNL     1     -43.348 -47.295   9.599  1.00  0.00    -0.302 N 
HETATM   16  C   UNL     1     -43.534 -47.776   8.336  1.00  0.00     0.111 A 
HETATM   17  C   UNL     1     -44.894 -47.871   8.166  1.00  0.00     0.037 A 
HETATM   18  C   UNL     1     -45.440 -47.430   9.386  1.00  0.00     0.108 A 
HETATM   19  N   UNL     1     -44.499 -47.090  10.269  1.00  0.00    -0.310 N 
ATOM     20  HN  UNL     1     -44.622 -46.754  11.225  1.00  0.00     0.186 HD
ENDBRANCH  14  15
ENDBRANCH  13  14
ENDBRANCH  11  13
ENDBRANCH   1  11
TORSDOF 7
ENDMDL
MODEL 5
REMARK VINA RESULT:      -5.1      2.595      4.113
REMARK  7 active torsions:
REMARK  status: ('A' for Active; 'I' for Inactive)
REMARK    1  A    between atoms: C_2  and  C_4 
REMARK    2  A    between atoms: C_4  and  N_6 
REMARK       I    between atoms: N_6  and  C_7 
REMARK    3  A    between atoms: C_7  and  C_9 
REMARK    4  A    between atoms: C_9  and  N_10 
REMARK    5  A    between atoms: N_10  and  C_11 
REMARK    6  A    between atoms: C_11  and  C_12 
REMARK    7  A    between atoms: C_12  and  N_13 
ROOT
HETATM    1  C   UNL     1     -42.816 -49.091  12.632  1.00  0.00     0.371 C 
ENDROOT
BRANCH   1   2
HETATM    2  C   UNL     1     -43.501 -50.175  13.468  1.00  0.00     0.246 C 
HETATM    3  N   UNL     1     -44.099 -51.167  12.721  1.00  0.00    -0.355 N 
HETATM    4  H   UNL     1     -43.950 -51.116  11.716  1.00  0.00     0.162 HD
HETATM    5  O   UNL     1     -43.469 -50.169  14.693  1.00  0.00    -0.272 OA
BRANCH   3   6
HETATM    6  C   UNL     1     -44.711 -52.341  13.326  1.00  0.00     0.083 C 
HETATM    7  C   UNL     1     -44.228 -53.598  12.595  1.00  0.00     0.032 C 
BRANCH   6   8
HETATM    8  C   UNL     1     -46.255 -52.217  13.336  1.00  0.00    -0.000 C 
HETATM    9  C   UNL     1     -46.751 -51.427  14.551  1.00  0.00     0.011 C 
HETATM   10  C   UNL     1     -46.775 -51.537  12.062  1.00  0.00     0.011 C 
ENDBRANCH   6   8
ENDBRANCH   3   6
ENDBRANCH   1   2
BRANCH   1  11
HETATM   11  N   UNL     1     -42.049 -49.691  11.511  1.00  0.00     0.093 N 
HETATM   12  H   UNL     1     -42.733 -49.979  10.805  1.00  0.00     0.316 HD
BRANCH  11  13
HETATM   13  C   UNL     1     -41.153 -48.696  10.890  1.00  0.00     0.291 C 
BRANCH  13  14
HETATM   14  C   UNL     1     -40.032 -48.217  11.815  1.00  0.00     0.178 C 
BRANCH  14  15
HETATM   15  N   UNL     1     -38.991 -49.212  11.964  1.00  0.00    -0.302 N 
HETATM   16  C   UNL     1     -38.563 -49.784  13.127  1.00  0.00     0.111 A 
HETATM   17  C   UNL     1     -37.522 -50.610  12.780  1.00  0.00     0.037 A 
HETATM   18  C   UNL     1     -37.403 -50.471  11.385  1.00  0.00     0.108 A 
HETATM   19  N   UNL     1     -38.308 -49.628  10.880  1.00  0.00    -0.310 N 
ATOM     20  HN  UNL     1     -38.447 -49.362   9.905  1.00  0.00     0.186 HD
ENDBRANCH  14  15
ENDBRANCH  13  14
ENDBRANCH  11  13
ENDBRANCH   1  11
TORSDOF 7
ENDMDL
MODEL 6
REMARK VINA RESULT:      -5.1      2.305      3.214
REMARK  7 active torsions:
REMARK  status: ('A' for Active; 'I' for Inactive)
REMARK    1  A    between atoms: C_2  and  C_4 
REMARK    2  A    between atoms: C_4  and  N_6 
REMARK       I    between atoms: N_6  and  C_7 
REMARK    3  A    between atoms: C_7  and  C_9 
REMARK    4  A    between atoms: C_9  and  N_10 
REMARK    5  A    between atoms: N_10  and  C_11 
REMARK    6  A    between atoms: C_11  and  C_12 
REMARK    7  A    between atoms: C_12  and  N_13 
ROOT
HETATM    1  C   UNL     1     -42.161 -48.854  11.656  1.00  0.00     0.371 C 
ENDROOT
BRANCH   1   2
HETATM    2  C   UNL     1     -41.754 -50.308  11.910  1.00  0.00     0.246 C 
HETATM    3  N   UNL     1     -42.761 -51.091  12.430  1.00  0.00    -0.355 N 
HETATM    4  H   UNL     1     -43.672 -50.648  12.509  1.00  0.00     0.162 HD
HETATM    5  O   UNL     1     -40.639 -50.731  11.623  1.00  0.00    -0.272 OA
BRANCH   3   6
HETATM    6  C   UNL     1     -42.608 -52.524  12.643  1.00  0.00     0.083 C 
HETATM    7  C   UNL     1     -43.944 -53.222  12.372  1.00  0.00     0.032 C 
BRANCH   6   8
HETATM    8  C   UNL     1     -42.063 -52.816  14.064  1.00  0.00    -0.000 C 
HETATM    9  C   UNL     1     -42.757 -51.955  15.124  1.00  0.00     0.011 C 
HETATM   10  C   UNL     1     -42.234 -54.294  14.441  1.00  0.00     0.011 C 
ENDBRANCH   6   8
ENDBRANCH   3   6
ENDBRANCH   1   2
BRANCH   1  11
HETATM   11  N   UNL     1     -41.884 -48.463  10.251  1.00  0.00     0.093 N 
HETATM   12  H   UNL     1     -42.146 -49.261   9.664  1.00  0.00     0.316 HD
BRANCH  11  13
HETATM   13  C   UNL     1     -42.718 -47.314   9.847  1.00  0.00     0.291 C 
BRANCH  13  14
HETATM   14  C   UNL     1     -43.307 -47.446   8.441  1.00  0.00     0.178 C 
BRANCH  14  15
HETATM   15  N   UNL     1     -44.707 -47.815   8.473  1.00  0.00    -0.302 N 
HETATM   16  C   UNL     1     -45.619 -47.485   9.433  1.00  0.00     0.111 A 
HETATM   17  C   UNL     1     -46.788 -48.111   9.073  1.00  0.00     0.037 A 
HETATM   18  C   UNL     1     -46.479 -48.787   7.878  1.00  0.00     0.108 A 
HETATM   19  N   UNL     1     -45.212 -48.598   7.500  1.00  0.00    -0.310 N 
ATOM     20  HN  UNL     1     -44.739 -48.961   6.673  1.00  0.00     0.186 HD
ENDBRANCH  14  15
ENDBRANCH  13  14
ENDBRANCH  11  13
ENDBRANCH   1  11
TORSDOF 7
ENDMDL
MODEL 7
REMARK VINA RESULT:      -5.1      2.014      2.687
REMARK  7 active torsions:
REMARK  status: ('A' for Active; 'I' for Inactive)
REMARK    1  A    between atoms: C_2  and  C_4 
REMARK    2  A    between atoms: C_4  and  N_6 
REMARK       I    between atoms: N_6  and  C_7 
REMARK    3  A    between atoms: C_7  and  C_9 
REMARK    4  A    between atoms: C_9  and  N_10 
REMARK    5  A    between atoms: N_10  and  C_11 
REMARK    6  A    between atoms: C_11  and  C_12 
REMARK    7  A    between atoms: C_12  and  N_13 
ROOT
HETATM    1  C   UNL     1     -41.077 -51.118  12.524  1.00  0.00     0.371 C 
ENDROOT
BRANCH   1   2
HETATM    2  C   UNL     1     -42.188 -51.699  13.403  1.00  0.00     0.246 C 
HETATM    3  N   UNL     1     -43.430 -51.709  12.805  1.00  0.00    -0.355 N 
HETATM    4  H   UNL     1     -43.457 -51.413  11.833  1.00  0.00     0.162 HD
HETATM    5  O   UNL     1     -41.964 -52.155  14.519  1.00  0.00    -0.272 OA
BRANCH   3   6
HETATM    6  C   UNL     1     -44.595 -52.316  13.433  1.00  0.00     0.083 C 
HETATM    7  C   UNL     1     -44.808 -53.719  12.856  1.00  0.00     0.032 C 
BRANCH   6   8
HETATM    8  C   UNL     1     -45.843 -51.412  13.271  1.00  0.00    -0.000 C 
HETATM    9  C   UNL     1     -46.684 -51.821  12.057  1.00  0.00     0.011 C 
HETATM   10  C   UNL     1     -46.733 -51.450  14.521  1.00  0.00     0.011 C 
ENDBRANCH   6   8
ENDBRANCH   3   6
ENDBRANCH   1   2
BRANCH   1  11
HETATM   11  N   UNL     1     -41.646 -50.373  11.373  1.00  0.00     0.093 N 
HETATM   12  H   UNL     1     -42.622 -50.168  11.606  1.00  0.00     0.316 HD
BRANCH  11  13
HETATM   13  C   UNL     1     -40.949 -49.086  11.179  1.00  0.00     0.291 C 
BRANCH  13  14
HETATM   14  C   UNL     1     -41.793 -48.033  10.458  1.00  0.00     0.178 C 
BRANCH  14  15
HETATM   15  N   UNL     1     -41.253 -46.699  10.625  1.00  0.00    -0.302 N 
HETATM   16  C   UNL     1     -41.953 -45.560  10.900  1.00  0.00     0.111 A 
HETATM   17  C   UNL     1     -41.031 -44.542  10.897  1.00  0.00     0.037 A 
HETATM   18  C   UNL     1     -39.803 -45.171  10.616  1.00  0.00     0.108 A 
HETATM   19  N   UNL     1     -39.932 -46.491  10.462  1.00  0.00    -0.310 N 
ATOM     20  HN  UNL     1     -39.204 -47.178  10.268  1.00  0.00     0.186 HD
ENDBRANCH  14  15
ENDBRANCH  13  14
ENDBRANCH  11  13
ENDBRANCH   1  11
TORSDOF 7
ENDMDL
MODEL 8
REMARK VINA RESULT:      -5.0      1.928      6.056
REMARK  7 active torsions:
REMARK  status: ('A' for Active; 'I' for Inactive)
REMARK    1  A    between atoms: C_2  and  C_4 
REMARK    2  A    between atoms: C_4  and  N_6 
REMARK       I    between atoms: N_6  and  C_7 
REMARK    3  A    between atoms: C_7  and  C_9 
REMARK    4  A    between atoms: C_9  and  N_10 
REMARK    5  A    between atoms: N_10  and  C_11 
REMARK    6  A    between atoms: C_11  and  C_12 
REMARK    7  A    between atoms: C_12  and  N_13 
ROOT
HETATM    1  C   UNL     1     -41.034 -50.126  11.491  1.00  0.00     0.371 C 
ENDROOT
BRANCH   1   2
HETATM    2  C   UNL     1     -41.111 -48.682  10.987  1.00  0.00     0.246 C 
HETATM    3  N   UNL     1     -42.284 -48.378  10.331  1.00  0.00    -0.355 N 
HETATM    4  H   UNL     1     -42.992 -49.108  10.327  1.00  0.00     0.162 HD
HETATM    5  O   UNL     1     -40.218 -47.869  11.200  1.00  0.00    -0.272 OA
BRANCH   3   6
HETATM    6  C   UNL     1     -42.597 -47.033   9.870  1.00  0.00     0.083 C 
HETATM    7  C   UNL     1     -42.894 -46.139  11.078  1.00  0.00     0.032 C 
BRANCH   6   8
HETATM    8  C   UNL     1     -43.760 -47.055   8.847  1.00  0.00    -0.000 C 
HETATM    9  C   UNL     1     -43.442 -47.954   7.648  1.00  0.00     0.011 C 
HETATM   10  C   UNL     1     -45.068 -47.538   9.490  1.00  0.00     0.011 C 
ENDBRANCH   6   8
ENDBRANCH   3   6
ENDBRANCH   1   2
BRANCH   1  11
HETATM   11  N   UNL     1     -42.359 -50.592  11.971  1.00  0.00     0.093 N 
HETATM   12  H   UNL     1     -42.853 -50.971  11.157  1.00  0.00     0.316 HD
BRANCH  11  13
HETATM   13  C   UNL     1     -42.212 -51.681  12.957  1.00  0.00     0.291 C 
BRANCH  13  14
HETATM   14  C   UNL     1     -43.262 -52.786  12.812  1.00  0.00     0.178 C 
BRANCH  14  15
HETATM   15  N   UNL     1     -44.606 -52.284  13.007  1.00  0.00    -0.302 N 
HETATM   16  C   UNL     1     -45.113 -51.719  14.141  1.00  0.00     0.111 A 
HETATM   17  C   UNL     1     -46.437 -51.464  13.875  1.00  0.00     0.037 A 
HETATM   18  C   UNL     1     -46.629 -51.906  12.553  1.00  0.00     0.108 A 
HETATM   19  N   UNL     1     -45.509 -52.395  12.013  1.00  0.00    -0.310 N 
ATOM     20  HN  UNL     1     -45.371 -52.766  11.073  1.00  0.00     0.186 HD
ENDBRANCH  14  15
ENDBRANCH  13  14
ENDBRANCH  11  13
ENDBRANCH   1  11
TORSDOF 7
ENDMDL
MODEL 9
REMARK VINA RESULT:      -4.9      2.817      3.692
REMARK  7 active torsions:
REMARK  status: ('A' for Active; 'I' for Inactive)
REMARK    1  A    between atoms: C_2  and  C_4 
REMARK    2  A    between atoms: C_4  and  N_6 
REMARK       I    between atoms: N_6  and  C_7 
REMARK    3  A    between atoms: C_7  and  C_9 
REMARK    4  A    between atoms: C_9  and  N_10 
REMARK    5  A    between atoms: N_10  and  C_11 
REMARK    6  A    between atoms: C_11  and  C_12 
REMARK    7  A    between atoms: C_12  and  N_13 
ROOT
HETATM    1  C   UNL     1     -41.567 -50.920  12.224  1.00  0.00     0.371 C 
ENDROOT
BRANCH   1   2
HETATM    2  C   UNL     1     -41.232 -52.372  12.574  1.00  0.00     0.246 C 
HETATM    3  N   UNL     1     -41.872 -52.841  13.701  1.00  0.00    -0.355 N 
HETATM    4  H   UNL     1     -42.549 -52.210  14.121  1.00  0.00     0.162 HD
HETATM    5  O   UNL     1     -40.493 -53.056  11.874  1.00  0.00    -0.272 OA
BRANCH   3   6
HETATM    6  C   UNL     1     -41.769 -54.225  14.140  1.00  0.00     0.083 C 
HETATM    7  C   UNL     1     -43.150 -54.722  14.576  1.00  0.00     0.032 C 
BRANCH   6   8
HETATM    8  C   UNL     1     -40.705 -54.374  15.256  1.00  0.00    -0.000 C 
HETATM    9  C   UNL     1     -41.148 -55.371  16.332  1.00  0.00     0.011 C 
HETATM   10  C   UNL     1     -39.352 -54.829  14.691  1.00  0.00     0.011 C 
ENDBRANCH   6   8
ENDBRANCH   3   6
ENDBRANCH   1   2
BRANCH   1  11
HETATM   11  N   UNL     1     -40.800 -50.469  11.036  1.00  0.00     0.093 N 
HETATM   12  H   UNL     1     -41.260 -50.875  10.215  1.00  0.00     0.316 HD
BRANCH  11  13
HETATM   13  C   UNL     1     -40.849 -49.000  10.899  1.00  0.00     0.291 C 
BRANCH  13  14
HETATM   14  C   UNL     1     -42.224 -48.401  11.203  1.00  0.00     0.178 C 
BRANCH  14  15
HETATM   15  N   UNL     1     -42.763 -47.680  10.069  1.00  0.00    -0.302 N 
HETATM   16  C   UNL     1     -43.355 -46.450  10.085  1.00  0.00     0.111 A 
HETATM   17  C   UNL     1     -43.765 -46.212   8.796  1.00  0.00     0.037 A 
HETATM   18  C   UNL     1     -43.367 -47.355   8.077  1.00  0.00     0.108 A 
HETATM   19  N   UNL     1     -42.742 -48.248   8.848  1.00  0.00    -0.310 N 
ATOM     20  HN  UNL     1     -42.345 -49.148   8.576  1.00  0.00     0.186 HD
ENDBRANCH  14  15
ENDBRANCH  13  14
ENDBRANCH  11  13
ENDBRANCH   1  11
TORSDOF 7
ENDMDL
