MODEL 1
REMARK VINA RESULT:      -5.5      0.000      0.000
REMARK  8 active torsions:
REMARK  status: ('A' for Active; 'I' for Inactive)
REMARK    1  A    between atoms: O_2  and  C_3 
REMARK    2  A    between atoms: C_6  and  C_7 
REMARK    3  A    between atoms: C_7  and  O_8 
REMARK    4  A    between atoms: O_8  and  C_9 
REMARK    5  A    between atoms: C_9  and  C_10 
REMARK    6  A    between atoms: C_10  and  O_11 
REMARK    7  A    between atoms: C_10  and  C_12 
REMARK    8  A    between atoms: C_12  and  N_13 
ROOT
HETATM    1  C   UNL     1     -41.275 -53.010  12.479  1.00  0.00     0.160 C 
ENDROOT
BRANCH   1   2
HETATM    2  C   UNL     1     -40.709 -51.664  12.954  1.00  0.00     0.201 C 
BRANCH   2   3
HETATM    3  O   UNL     1     -41.719 -50.668  12.760  1.00  0.00    -0.384 OA
BRANCH   3   4
HETATM    4  C   UNL     1     -42.091 -50.033  13.982  1.00  0.00     0.206 C 
BRANCH   4   5
HETATM    5  C   UNL     1     -43.504 -50.429  14.318  1.00  0.00    -0.034 A 
HETATM    6  C   UNL     1     -43.981 -50.298  15.631  1.00  0.00     0.012 A 
HETATM    7  C   UNL     1     -45.302 -50.632  15.943  1.00  0.00     0.037 A 
HETATM    8  C   UNL     1     -46.169 -51.086  14.952  1.00  0.00     0.068 A 
HETATM    9  C   UNL     1     -45.697 -51.244  13.648  1.00  0.00     0.037 A 
HETATM   10  C   UNL     1     -44.374 -50.916  13.334  1.00  0.00     0.012 A 
BRANCH   8  11
HETATM   11  O   UNL     1     -47.439 -51.377  15.369  1.00  0.00    -0.356 OA
HETATM   12  C   UNL     1     -47.656 -51.289  16.773  1.00  0.00     0.210 C 
ENDBRANCH   8  11
ENDBRANCH   4   5
ENDBRANCH   3   4
ENDBRANCH   2   3
ENDBRANCH   1   2
BRANCH   1  13
HETATM   13  O   UNL     1     -40.536 -53.407  11.316  1.00  0.00    -0.392 OA
HETATM   14  H   UNL     1     -40.893 -54.277  11.049  1.00  0.00     0.210 HD
ENDBRANCH   1  13
BRANCH   1  15
HETATM   15  C   UNL     1     -41.151 -54.068  13.584  1.00  0.00     0.164 C 
BRANCH  15  16
HETATM   16  N   UNL     1     -42.121 -53.905  14.655  1.00  0.00    -0.332 N 
HETATM   17  C   UNL     1     -41.863 -53.517  15.954  1.00  0.00     0.080 A 
HETATM   18  C   UNL     1     -40.539 -53.100  16.479  1.00  0.00     0.089 C 
HETATM   19  N   UNL     1     -42.959 -53.575  16.685  1.00  0.00    -0.344 N 
HETATM   20  C   UNL     1     -43.953 -54.004  15.844  1.00  0.00     0.060 A 
ATOM     21  HN  UNL     1     -43.049 -53.348  17.676  1.00  0.00     0.167 HD
HETATM   22  C   UNL     1     -45.307 -54.243  16.117  1.00  0.00     0.032 A 
HETATM   23  C   UNL     1     -43.463 -54.214  14.560  1.00  0.00     0.062 A 
HETATM   24  C   UNL     1     -46.138 -54.685  15.079  1.00  0.00     0.002 A 
HETATM   25  C   UNL     1     -45.629 -54.880  13.795  1.00  0.00     0.002 A 
HETATM   26  C   UNL     1     -44.278 -54.650  13.506  1.00  0.00     0.032 A 
ENDBRANCH  15  16
ENDBRANCH   1  15
TORSDOF 8
ENDMDL
MODEL 2
REMARK VINA RESULT:      -5.4      4.244      6.615
REMARK  8 active torsions:
REMARK  status: ('A' for Active; 'I' for Inactive)
REMARK    1  A    between atoms: O_2  and  C_3 
REMARK    2  A    between atoms: C_6  and  C_7 
REMARK    3  A    between atoms: C_7  and  O_8 
REMARK    4  A    between atoms: O_8  and  C_9 
REMARK    5  A    between atoms: C_9  and  C_10 
REMARK    6  A    between atoms: C_10  and  O_11 
REMARK    7  A    between atoms: C_10  and  C_12 
REMARK    8  A    between atoms: C_12  and  N_13 
ROOT
HETATM    1  C   UNL     1     -40.554 -49.602  11.590  1.00  0.00     0.160 C 
ENDROOT
BRANCH   1   2
HETATM    2  C   UNL     1     -40.474 -50.851  12.478  1.00  0.00     0.201 C 
BRANCH   2   3
HETATM    3  O   UNL     1     -41.126 -51.924  11.790  1.00  0.00    -0.384 OA
BRANCH   3   4
HETATM    4  C   UNL     1     -40.864 -53.190  12.395  1.00  0.00     0.206 C 
BRANCH   4   5
HETATM    5  C   UNL     1     -42.119 -53.663  13.080  1.00  0.00    -0.034 A 
HETATM    6  C   UNL     1     -43.377 -53.304  12.576  1.00  0.00     0.012 A 
HETATM    7  C   UNL     1     -44.546 -53.766  13.189  1.00  0.00     0.037 A 
HETATM    8  C   UNL     1     -44.477 -54.604  14.300  1.00  0.00     0.068 A 
HETATM    9  C   UNL     1     -43.230 -54.946  14.825  1.00  0.00     0.037 A 
HETATM   10  C   UNL     1     -42.059 -54.479  14.217  1.00  0.00     0.012 A 
BRANCH   8  11
HETATM   11  O   UNL     1     -45.681 -55.001  14.813  1.00  0.00    -0.356 OA
HETATM   12  C   UNL     1     -46.724 -54.035  14.741  1.00  0.00     0.210 C 
ENDBRANCH   8  11
ENDBRANCH   4   5
ENDBRANCH   3   4
ENDBRANCH   2   3
ENDBRANCH   1   2
BRANCH   1  13
HETATM   13  O   UNL     1     -40.540 -50.037  10.223  1.00  0.00    -0.392 OA
HETATM   14  H   UNL     1     -40.501 -49.228   9.678  1.00  0.00     0.210 HD
ENDBRANCH   1  13
BRANCH   1  15
HETATM   15  C   UNL     1     -41.832 -48.806  11.888  1.00  0.00     0.164 C 
BRANCH  15  16
HETATM   16  N   UNL     1     -42.025 -47.666  11.007  1.00  0.00    -0.332 N 
HETATM   17  C   UNL     1     -41.123 -46.652  10.757  1.00  0.00     0.080 A 
HETATM   18  C   UNL     1     -39.734 -46.588  11.278  1.00  0.00     0.089 C 
HETATM   19  N   UNL     1     -41.664 -45.725   9.991  1.00  0.00    -0.344 N 
HETATM   20  C   UNL     1     -42.942 -46.146   9.732  1.00  0.00     0.060 A 
ATOM     21  HN  UNL     1     -41.221 -44.867   9.659  1.00  0.00     0.167 HD
HETATM   22  C   UNL     1     -43.947 -45.527   8.975  1.00  0.00     0.032 A 
HETATM   23  C   UNL     1     -43.200 -47.365  10.349  1.00  0.00     0.062 A 
HETATM   24  C   UNL     1     -45.191 -46.160   8.856  1.00  0.00     0.002 A 
HETATM   25  C   UNL     1     -45.426 -47.388   9.475  1.00  0.00     0.002 A 
HETATM   26  C   UNL     1     -44.436 -48.018  10.238  1.00  0.00     0.032 A 
ENDBRANCH  15  16
ENDBRANCH   1  15
TORSDOF 8
ENDMDL
MODEL 3
REMARK VINA RESULT:      -5.4      4.233      7.209
REMARK  8 active torsions:
REMARK  status: ('A' for Active; 'I' for Inactive)
REMARK    1  A    between atoms: O_2  and  C_3 
REMARK    2  A    between atoms: C_6  and  C_7 
REMARK    3  A    between atoms: C_7  and  O_8 
REMARK    4  A    between atoms: O_8  and  C_9 
REMARK    5  A    between atoms: C_9  and  C_10 
REMARK    6  A    between atoms: C_10  and  O_11 
REMARK    7  A    between atoms: C_10  and  C_12 
REMARK    8  A    between atoms: C_12  and  N_13 
ROOT
HETATM    1  C   UNL     1     -40.447 -49.732  11.661  1.00  0.00     0.160 C 
ENDROOT
BRANCH   1   2
HETATM    2  C   UNL     1     -40.507 -50.976  12.559  1.00  0.00     0.201 C 
BRANCH   2   3
HETATM    3  O   UNL     1     -41.148 -52.022  11.820  1.00  0.00    -0.384 OA
BRANCH   3   4
HETATM    4  C   UNL     1     -40.929 -53.305  12.403  1.00  0.00     0.206 C 
BRANCH   4   5
HETATM    5  C   UNL     1     -42.201 -53.750  13.076  1.00  0.00    -0.034 A 
HETATM    6  C   UNL     1     -43.446 -53.409  12.528  1.00  0.00     0.012 A 
HETATM    7  C   UNL     1     -44.630 -53.846  13.130  1.00  0.00     0.037 A 
HETATM    8  C   UNL     1     -44.590 -54.641  14.273  1.00  0.00     0.068 A 
HETATM    9  C   UNL     1     -43.357 -54.964  14.841  1.00  0.00     0.037 A 
HETATM   10  C   UNL     1     -42.171 -54.523  14.244  1.00  0.00     0.012 A 
BRANCH   8  11
HETATM   11  O   UNL     1     -45.807 -55.016  14.772  1.00  0.00    -0.356 OA
HETATM   12  C   UNL     1     -46.788 -53.986  14.828  1.00  0.00     0.210 C 
ENDBRANCH   8  11
ENDBRANCH   4   5
ENDBRANCH   3   4
ENDBRANCH   2   3
ENDBRANCH   1   2
BRANCH   1  13
HETATM   13  O   UNL     1     -40.463 -50.177  10.298  1.00  0.00    -0.392 OA
HETATM   14  H   UNL     1     -40.568 -49.376   9.749  1.00  0.00     0.210 HD
ENDBRANCH   1  13
BRANCH   1  15
HETATM   15  C   UNL     1     -41.638 -48.806  11.940  1.00  0.00     0.164 C 
BRANCH  15  16
HETATM   16  N   UNL     1     -41.459 -47.459  11.422  1.00  0.00    -0.332 N 
HETATM   17  C   UNL     1     -41.978 -46.948  10.250  1.00  0.00     0.080 A 
HETATM   18  C   UNL     1     -42.903 -47.662   9.335  1.00  0.00     0.089 C 
HETATM   19  N   UNL     1     -41.530 -45.726  10.035  1.00  0.00    -0.344 N 
HETATM   20  C   UNL     1     -40.709 -45.433  11.092  1.00  0.00     0.060 A 
ATOM     21  HN  UNL     1     -41.751 -45.121   9.243  1.00  0.00     0.167 HD
HETATM   22  C   UNL     1     -39.972 -44.268  11.350  1.00  0.00     0.032 A 
HETATM   23  C   UNL     1     -40.647 -46.497  11.986  1.00  0.00     0.062 A 
HETATM   24  C   UNL     1     -39.193 -44.204  12.512  1.00  0.00     0.002 A 
HETATM   25  C   UNL     1     -39.152 -45.279  13.401  1.00  0.00     0.002 A 
HETATM   26  C   UNL     1     -39.878 -46.451  13.157  1.00  0.00     0.032 A 
ENDBRANCH  15  16
ENDBRANCH   1  15
TORSDOF 8
ENDMDL
MODEL 4
REMARK VINA RESULT:      -5.2      2.455      4.840
REMARK  8 active torsions:
REMARK  status: ('A' for Active; 'I' for Inactive)
REMARK    1  A    between atoms: O_2  and  C_3 
REMARK    2  A    between atoms: C_6  and  C_7 
REMARK    3  A    between atoms: C_7  and  O_8 
REMARK    4  A    between atoms: O_8  and  C_9 
REMARK    5  A    between atoms: C_9  and  C_10 
REMARK    6  A    between atoms: C_10  and  O_11 
REMARK    7  A    between atoms: C_10  and  C_12 
REMARK    8  A    between atoms: C_12  and  N_13 
ROOT
HETATM    1  C   UNL     1     -38.819 -50.297  12.644  1.00  0.00     0.160 C 
ENDROOT
BRANCH   1   2
HETATM    2  C   UNL     1     -38.587 -51.419  13.666  1.00  0.00     0.201 C 
BRANCH   2   3
HETATM    3  O   UNL     1     -39.227 -52.602  13.175  1.00  0.00    -0.384 OA
BRANCH   3   4
HETATM    4  C   UNL     1     -39.239 -53.649  14.144  1.00  0.00     0.206 C 
BRANCH   4   5
HETATM    5  C   UNL     1     -40.663 -54.086  14.361  1.00  0.00    -0.034 A 
HETATM    6  C   UNL     1     -41.612 -53.932  13.340  1.00  0.00     0.012 A 
HETATM    7  C   UNL     1     -42.928 -54.365  13.522  1.00  0.00     0.037 A 
HETATM    8  C   UNL     1     -43.313 -54.974  14.715  1.00  0.00     0.068 A 
HETATM    9  C   UNL     1     -42.383 -55.109  15.747  1.00  0.00     0.037 A 
HETATM   10  C   UNL     1     -41.066 -54.670  15.569  1.00  0.00     0.012 A 
BRANCH   8  11
HETATM   11  O   UNL     1     -44.622 -55.364  14.781  1.00  0.00    -0.356 OA
HETATM   12  C   UNL     1     -45.463 -54.861  13.748  1.00  0.00     0.210 C 
ENDBRANCH   8  11
ENDBRANCH   4   5
ENDBRANCH   3   4
ENDBRANCH   2   3
ENDBRANCH   1   2
BRANCH   1  13
HETATM   13  O   UNL     1     -39.377 -50.892  11.464  1.00  0.00    -0.392 OA
HETATM   14  H   UNL     1     -38.707 -50.788  10.761  1.00  0.00     0.210 HD
ENDBRANCH   1  13
BRANCH   1  15
HETATM   15  C   UNL     1     -39.768 -49.234  13.213  1.00  0.00     0.164 C 
BRANCH  15  16
HETATM   16  N   UNL     1     -41.174 -49.535  12.996  1.00  0.00    -0.332 N 
HETATM   17  C   UNL     1     -41.947 -49.147  11.920  1.00  0.00     0.080 A 
HETATM   18  C   UNL     1     -41.453 -48.419  10.725  1.00  0.00     0.089 C 
HETATM   19  N   UNL     1     -43.204 -49.503  12.097  1.00  0.00    -0.344 N 
HETATM   20  C   UNL     1     -43.250 -50.141  13.310  1.00  0.00     0.060 A 
ATOM     21  HN  UNL     1     -43.985 -49.337  11.461  1.00  0.00     0.167 HD
HETATM   22  C   UNL     1     -44.347 -50.706  13.977  1.00  0.00     0.032 A 
HETATM   23  C   UNL     1     -41.991 -50.184  13.898  1.00  0.00     0.062 A 
HETATM   24  C   UNL     1     -44.142 -51.309  15.224  1.00  0.00     0.002 A 
HETATM   25  C   UNL     1     -42.868 -51.351  15.793  1.00  0.00     0.002 A 
HETATM   26  C   UNL     1     -41.763 -50.788  15.143  1.00  0.00     0.032 A 
ENDBRANCH  15  16
ENDBRANCH   1  15
TORSDOF 8
ENDMDL
MODEL 5
REMARK VINA RESULT:      -5.2      3.044      4.612
REMARK  8 active torsions:
REMARK  status: ('A' for Active; 'I' for Inactive)
REMARK    1  A    between atoms: O_2  and  C_3 
REMARK    2  A    between atoms: C_6  and  C_7 
REMARK    3  A    between atoms: C_7  and  O_8 
REMARK    4  A    between atoms: O_8  and  C_9 
REMARK    5  A    between atoms: C_9  and  C_10 
REMARK    6  A    between atoms: C_10  and  O_11 
REMARK    7  A    between atoms: C_10  and  C_12 
REMARK    8  A    between atoms: C_12  and  N_13 
ROOT
HETATM    1  C   UNL     1     -41.345 -52.509  12.263  1.00  0.00     0.160 C 
ENDROOT
BRANCH   1   2
HETATM    2  C   UNL     1     -40.281 -51.638  12.946  1.00  0.00     0.201 C 
BRANCH   2   3
HETATM    3  O   UNL     1     -39.778 -50.714  11.974  1.00  0.00    -0.384 OA
BRANCH   3   4
HETATM    4  C   UNL     1     -39.576 -49.413  12.523  1.00  0.00     0.206 C 
BRANCH   4   5
HETATM    5  C   UNL     1     -40.392 -48.425  11.732  1.00  0.00    -0.034 A 
HETATM    6  C   UNL     1     -39.924 -47.118  11.537  1.00  0.00     0.012 A 
HETATM    7  C   UNL     1     -40.660 -46.206  10.776  1.00  0.00     0.037 A 
HETATM    8  C   UNL     1     -41.863 -46.587  10.185  1.00  0.00     0.068 A 
HETATM    9  C   UNL     1     -42.350 -47.878  10.395  1.00  0.00     0.037 A 
HETATM   10  C   UNL     1     -41.618 -48.791  11.161  1.00  0.00     0.012 A 
BRANCH   8  11
HETATM   11  O   UNL     1     -42.495 -45.617   9.458  1.00  0.00    -0.356 OA
HETATM   12  C   UNL     1     -43.784 -45.965   8.963  1.00  0.00     0.210 C 
ENDBRANCH   8  11
ENDBRANCH   4   5
ENDBRANCH   3   4
ENDBRANCH   2   3
ENDBRANCH   1   2
BRANCH   1  13
HETATM   13  O   UNL     1     -40.698 -53.249  11.219  1.00  0.00    -0.392 OA
HETATM   14  H   UNL     1     -41.312 -53.967  10.972  1.00  0.00     0.210 HD
ENDBRANCH   1  13
BRANCH   1  15
HETATM   15  C   UNL     1     -41.995 -53.461  13.276  1.00  0.00     0.164 C 
BRANCH  15  16
HETATM   16  N   UNL     1     -42.885 -52.793  14.212  1.00  0.00    -0.332 N 
HETATM   17  C   UNL     1     -42.648 -52.553  15.551  1.00  0.00     0.080 A 
HETATM   18  C   UNL     1     -41.385 -52.856  16.268  1.00  0.00     0.089 C 
HETATM   19  N   UNL     1     -43.710 -52.022  16.124  1.00  0.00    -0.344 N 
HETATM   20  C   UNL     1     -44.655 -51.907  15.138  1.00  0.00     0.060 A 
ATOM     21  HN  UNL     1     -43.808 -51.751  17.103  1.00  0.00     0.167 HD
HETATM   22  C   UNL     1     -45.965 -51.412  15.214  1.00  0.00     0.032 A 
HETATM   23  C   UNL     1     -44.168 -52.376  13.923  1.00  0.00     0.062 A 
HETATM   24  C   UNL     1     -46.751 -51.398  14.056  1.00  0.00     0.002 A 
HETATM   25  C   UNL     1     -46.240 -51.864  12.843  1.00  0.00     0.002 A 
HETATM   26  C   UNL     1     -44.936 -52.365  12.750  1.00  0.00     0.032 A 
ENDBRANCH  15  16
ENDBRANCH   1  15
TORSDOF 8
ENDMDL
MODEL 6
REMARK VINA RESULT:      -5.1      1.773      5.150
REMARK  8 active torsions:
REMARK  status: ('A' for Active; 'I' for Inactive)
REMARK    1  A    between atoms: O_2  and  C_3 
REMARK    2  A    between atoms: C_6  and  C_7 
REMARK    3  A    between atoms: C_7  and  O_8 
REMARK    4  A    between atoms: O_8  and  C_9 
REMARK    5  A    between atoms: C_9  and  C_10 
REMARK    6  A    between atoms: C_10  and  O_11 
REMARK    7  A    between atoms: C_10  and  C_12 
REMARK    8  A    between atoms: C_12  and  N_13 
ROOT
HETATM    1  C   UNL     1     -46.083 -53.813  14.473  1.00  0.00     0.160 C 
ENDROOT
BRANCH   1   2
HETATM    2  C   UNL     1     -45.536 -55.022  13.701  1.00  0.00     0.201 C 
BRANCH   2   3
HETATM    3  O   UNL     1     -44.754 -54.530  12.607  1.00  0.00    -0.384 OA
BRANCH   3   4
HETATM    4  C   UNL     1     -44.522 -53.125  12.701  1.00  0.00     0.206 C 
BRANCH   4   5
HETATM    5  C   UNL     1     -43.037 -52.888  12.780  1.00  0.00    -0.034 A 
HETATM    6  C   UNL     1     -42.533 -51.581  12.846  1.00  0.00     0.012 A 
HETATM    7  C   UNL     1     -41.158 -51.354  12.953  1.00  0.00     0.037 A 
HETATM    8  C   UNL     1     -40.268 -52.424  13.012  1.00  0.00     0.068 A 
HETATM    9  C   UNL     1     -40.757 -53.728  12.920  1.00  0.00     0.037 A 
HETATM   10  C   UNL     1     -42.133 -53.957  12.808  1.00  0.00     0.012 A 
BRANCH   8  11
HETATM   11  O   UNL     1     -38.947 -52.086  13.122  1.00  0.00    -0.356 OA
HETATM   12  C   UNL     1     -38.635 -51.180  14.175  1.00  0.00     0.210 C 
ENDBRANCH   8  11
ENDBRANCH   4   5
ENDBRANCH   3   4
ENDBRANCH   2   3
ENDBRANCH   1   2
BRANCH   1  13
HETATM   13  O   UNL     1     -47.513 -53.838  14.364  1.00  0.00    -0.392 OA
HETATM   14  H   UNL     1     -47.856 -53.431  15.184  1.00  0.00     0.210 HD
ENDBRANCH   1  13
BRANCH   1  15
HETATM   15  C   UNL     1     -45.653 -53.871  15.945  1.00  0.00     0.164 C 
BRANCH  15  16
HETATM   16  N   UNL     1     -44.416 -53.156  16.217  1.00  0.00    -0.332 N 
HETATM   17  C   UNL     1     -44.256 -51.790  16.323  1.00  0.00     0.080 A 
HETATM   18  C   UNL     1     -45.352 -50.790  16.269  1.00  0.00     0.089 C 
HETATM   19  N   UNL     1     -42.983 -51.479  16.469  1.00  0.00    -0.344 N 
HETATM   20  C   UNL     1     -42.300 -52.667  16.465  1.00  0.00     0.060 A 
ATOM     21  HN  UNL     1     -42.587 -50.543  16.566  1.00  0.00     0.167 HD
HETATM   22  C   UNL     1     -40.922 -52.902  16.579  1.00  0.00     0.032 A 
HETATM   23  C   UNL     1     -43.170 -53.742  16.315  1.00  0.00     0.062 A 
HETATM   24  C   UNL     1     -40.457 -54.222  16.545  1.00  0.00     0.002 A 
HETATM   25  C   UNL     1     -41.347 -55.288  16.404  1.00  0.00     0.002 A 
HETATM   26  C   UNL     1     -42.725 -55.071  16.284  1.00  0.00     0.032 A 
ENDBRANCH  15  16
ENDBRANCH   1  15
TORSDOF 8
ENDMDL
MODEL 7
REMARK VINA RESULT:      -4.9      1.760      5.058
REMARK  8 active torsions:
REMARK  status: ('A' for Active; 'I' for Inactive)
REMARK    1  A    between atoms: O_2  and  C_3 
REMARK    2  A    between atoms: C_6  and  C_7 
REMARK    3  A    between atoms: C_7  and  O_8 
REMARK    4  A    between atoms: O_8  and  C_9 
REMARK    5  A    between atoms: C_9  and  C_10 
REMARK    6  A    between atoms: C_10  and  O_11 
REMARK    7  A    between atoms: C_10  and  C_12 
REMARK    8  A    between atoms: C_12  and  N_13 
ROOT
HETATM    1  C   UNL     1     -45.463 -53.648  16.111  1.00  0.00     0.160 C 
ENDROOT
BRANCH   1   2
HETATM    2  C   UNL     1     -46.470 -52.490  16.076  1.00  0.00     0.201 C 
BRANCH   2   3
HETATM    3  O   UNL     1     -45.783 -51.322  15.616  1.00  0.00    -0.384 OA
BRANCH   3   4
HETATM    4  C   UNL     1     -44.640 -51.020  16.415  1.00  0.00     0.206 C 
BRANCH   4   5
HETATM    5  C   UNL     1     -43.493 -50.676  15.503  1.00  0.00    -0.034 A 
HETATM    6  C   UNL     1     -43.732 -50.032  14.280  1.00  0.00     0.012 A 
HETATM    7  C   UNL     1     -42.669 -49.681  13.443  1.00  0.00     0.037 A 
HETATM    8  C   UNL     1     -41.354 -49.951  13.819  1.00  0.00     0.068 A 
HETATM    9  C   UNL     1     -41.108 -50.614  15.021  1.00  0.00     0.037 A 
HETATM   10  C   UNL     1     -42.171 -50.972  15.858  1.00  0.00     0.012 A 
BRANCH   8  11
HETATM   11  O   UNL     1     -40.395 -49.557  12.927  1.00  0.00    -0.356 OA
HETATM   12  C   UNL     1     -40.807 -49.514  11.565  1.00  0.00     0.210 C 
ENDBRANCH   8  11
ENDBRANCH   4   5
ENDBRANCH   3   4
ENDBRANCH   2   3
ENDBRANCH   1   2
BRANCH   1  13
HETATM   13  O   UNL     1     -45.880 -54.558  17.138  1.00  0.00    -0.392 OA
HETATM   14  H   UNL     1     -46.853 -54.620  17.071  1.00  0.00     0.210 HD
ENDBRANCH   1  13
BRANCH   1  15
HETATM   15  C   UNL     1     -45.409 -54.359  14.751  1.00  0.00     0.164 C 
BRANCH  15  16
HETATM   16  N   UNL     1     -44.406 -53.813  13.851  1.00  0.00    -0.332 N 
HETATM   17  C   UNL     1     -44.635 -53.106  12.688  1.00  0.00     0.080 A 
HETATM   18  C   UNL     1     -45.967 -52.687  12.185  1.00  0.00     0.089 C 
HETATM   19  N   UNL     1     -43.500 -52.854  12.064  1.00  0.00    -0.344 N 
HETATM   20  C   UNL     1     -42.512 -53.403  12.839  1.00  0.00     0.060 A 
ATOM     21  HN  UNL     1     -43.382 -52.353  11.183  1.00  0.00     0.167 HD
HETATM   22  C   UNL     1     -41.126 -53.428  12.628  1.00  0.00     0.032 A 
HETATM   23  C   UNL     1     -43.045 -54.007  13.973  1.00  0.00     0.062 A 
HETATM   24  C   UNL     1     -40.309 -54.059  13.574  1.00  0.00     0.002 A 
HETATM   25  C   UNL     1     -40.863 -54.651  14.710  1.00  0.00     0.002 A 
HETATM   26  C   UNL     1     -42.245 -54.640  14.934  1.00  0.00     0.032 A 
ENDBRANCH  15  16
ENDBRANCH   1  15
TORSDOF 8
ENDMDL
MODEL 8
REMARK VINA RESULT:      -4.9      2.822      4.644
REMARK  8 active torsions:
REMARK  status: ('A' for Active; 'I' for Inactive)
REMARK    1  A    between atoms: O_2  and  C_3 
REMARK    2  A    between atoms: C_6  and  C_7 
REMARK    3  A    between atoms: C_7  and  O_8 
REMARK    4  A    between atoms: O_8  and  C_9 
REMARK    5  A    between atoms: C_9  and  C_10 
REMARK    6  A    between atoms: C_10  and  O_11 
REMARK    7  A    between atoms: C_10  and  C_12 
REMARK    8  A    between atoms: C_12  and  N_13 
ROOT
HETATM    1  C   UNL     1     -40.976 -52.752  12.602  1.00  0.00     0.160 C 
ENDROOT
BRANCH   1   2
HETATM    2  C   UNL     1     -39.721 -52.306  13.365  1.00  0.00     0.201 C 
BRANCH   2   3
HETATM    3  O   UNL     1     -39.724 -50.875  13.420  1.00  0.00    -0.384 OA
BRANCH   3   4
HETATM    4  C   UNL     1     -38.969 -50.294  12.358  1.00  0.00     0.206 C 
BRANCH   4   5
HETATM    5  C   UNL     1     -39.738 -49.122  11.808  1.00  0.00    -0.034 A 
HETATM    6  C   UNL     1     -40.900 -49.333  11.051  1.00  0.00     0.012 A 
HETATM    7  C   UNL     1     -41.637 -48.250  10.564  1.00  0.00     0.037 A 
HETATM    8  C   UNL     1     -41.237 -46.943  10.837  1.00  0.00     0.068 A 
HETATM    9  C   UNL     1     -40.069 -46.723  11.567  1.00  0.00     0.037 A 
HETATM   10  C   UNL     1     -39.326 -47.806  12.051  1.00  0.00     0.012 A 
BRANCH   8  11
HETATM   11  O   UNL     1     -42.036 -45.962  10.317  1.00  0.00    -0.356 OA
HETATM   12  C   UNL     1     -42.018 -44.724  11.019  1.00  0.00     0.210 C 
ENDBRANCH   8  11
ENDBRANCH   4   5
ENDBRANCH   3   4
ENDBRANCH   2   3
ENDBRANCH   1   2
BRANCH   1  13
HETATM   13  O   UNL     1     -40.546 -53.461  11.432  1.00  0.00    -0.392 OA
HETATM   14  H   UNL     1     -39.981 -52.843  10.929  1.00  0.00     0.210 HD
ENDBRANCH   1  13
BRANCH   1  15
HETATM   15  C   UNL     1     -41.855 -53.649  13.484  1.00  0.00     0.164 C 
BRANCH  15  16
HETATM   16  N   UNL     1     -42.864 -52.917  14.233  1.00  0.00    -0.332 N 
HETATM   17  C   UNL     1     -42.783 -52.506  15.547  1.00  0.00     0.080 A 
HETATM   18  C   UNL     1     -41.594 -52.658  16.424  1.00  0.00     0.089 C 
HETATM   19  N   UNL     1     -43.919 -51.962  15.937  1.00  0.00    -0.344 N 
HETATM   20  C   UNL     1     -44.755 -52.013  14.853  1.00  0.00     0.060 A 
ATOM     21  HN  UNL     1     -44.132 -51.579  16.859  1.00  0.00     0.167 HD
HETATM   22  C   UNL     1     -46.082 -51.578  14.731  1.00  0.00     0.032 A 
HETATM   23  C   UNL     1     -44.122 -52.601  13.763  1.00  0.00     0.062 A 
HETATM   24  C   UNL     1     -46.738 -51.742  13.505  1.00  0.00     0.002 A 
HETATM   25  C   UNL     1     -46.082 -52.326  12.420  1.00  0.00     0.002 A 
HETATM   26  C   UNL     1     -44.759 -52.770  12.525  1.00  0.00     0.032 A 
ENDBRANCH  15  16
ENDBRANCH   1  15
TORSDOF 8
ENDMDL
MODEL 9
REMARK VINA RESULT:      -4.9      1.887      3.276
REMARK  8 active torsions:
REMARK  status: ('A' for Active; 'I' for Inactive)
REMARK    1  A    between atoms: O_2  and  C_3 
REMARK    2  A    between atoms: C_6  and  C_7 
REMARK    3  A    between atoms: C_7  and  O_8 
REMARK    4  A    between atoms: O_8  and  C_9 
REMARK    5  A    between atoms: C_9  and  C_10 
REMARK    6  A    between atoms: C_10  and  O_11 
REMARK    7  A    between atoms: C_10  and  C_12 
REMARK    8  A    between atoms: C_12  and  N_13 
ROOT
HETATM    1  C   UNL     1     -41.405 -53.245  12.984  1.00  0.00     0.160 C 
ENDROOT
BRANCH   1   2
HETATM    2  C   UNL     1     -41.681 -51.891  12.315  1.00  0.00     0.201 C 
BRANCH   2   3
HETATM    3  O   UNL     1     -42.081 -50.969  13.335  1.00  0.00    -0.384 OA
BRANCH   3   4
HETATM    4  C   UNL     1     -43.240 -50.225  12.964  1.00  0.00     0.206 C 
BRANCH   4   5
HETATM    5  C   UNL     1     -44.407 -50.716  13.779  1.00  0.00    -0.034 A 
HETATM    6  C   UNL     1     -44.388 -50.604  15.177  1.00  0.00     0.012 A 
HETATM    7  C   UNL     1     -45.481 -51.028  15.938  1.00  0.00     0.037 A 
HETATM    8  C   UNL     1     -46.614 -51.551  15.318  1.00  0.00     0.068 A 
HETATM    9  C   UNL     1     -46.633 -51.690  13.929  1.00  0.00     0.037 A 
HETATM   10  C   UNL     1     -45.537 -51.272  13.166  1.00  0.00     0.012 A 
BRANCH   8  11
HETATM   11  O   UNL     1     -47.625 -51.926  16.159  1.00  0.00    -0.356 OA
HETATM   12  C   UNL     1     -48.068 -50.924  17.068  1.00  0.00     0.210 C 
ENDBRANCH   8  11
ENDBRANCH   4   5
ENDBRANCH   3   4
ENDBRANCH   2   3
ENDBRANCH   1   2
BRANCH   1  13
HETATM   13  O   UNL     1     -40.195 -53.770  12.421  1.00  0.00    -0.392 OA
HETATM   14  H   UNL     1     -39.771 -54.296  13.126  1.00  0.00     0.210 HD
ENDBRANCH   1  13
BRANCH   1  15
HETATM   15  C   UNL     1     -41.264 -53.079  14.504  1.00  0.00     0.164 C 
BRANCH  15  16
HETATM   16  N   UNL     1     -41.421 -54.323  15.240  1.00  0.00    -0.332 N 
HETATM   17  C   UNL     1     -42.607 -54.946  15.569  1.00  0.00     0.080 A 
HETATM   18  C   UNL     1     -43.959 -54.501  15.145  1.00  0.00     0.089 C 
HETATM   19  N   UNL     1     -42.385 -56.000  16.331  1.00  0.00    -0.344 N 
HETATM   20  C   UNL     1     -41.027 -56.068  16.496  1.00  0.00     0.060 A 
ATOM     21  HN  UNL     1     -43.084 -56.635  16.718  1.00  0.00     0.167 HD
HETATM   22  C   UNL     1     -40.264 -56.992  17.224  1.00  0.00     0.032 A 
HETATM   23  C   UNL     1     -40.389 -55.034  15.819  1.00  0.00     0.062 A 
HETATM   24  C   UNL     1     -38.871 -56.852  17.246  1.00  0.00     0.002 A 
HETATM   25  C   UNL     1     -38.250 -55.812  16.551  1.00  0.00     0.002 A 
HETATM   26  C   UNL     1     -38.996 -54.879  15.822  1.00  0.00     0.032 A 
ENDBRANCH  15  16
ENDBRANCH   1  15
TORSDOF 8
ENDMDL
