MODEL 1
REMARK VINA RESULT:      -6.7      0.000      0.000
REMARK  7 active torsions:
REMARK  status: ('A' for Active; 'I' for Inactive)
REMARK    1  A    between atoms: O_2  and  C_3 
REMARK    2  A    between atoms: C_3  and  C_4 
REMARK    3  A    between atoms: C_4  and  N_5 
REMARK    4  A    between atoms: C_8  and  C_13 
REMARK       I    between atoms: C_13  and  N_15 
REMARK    5  A    between atoms: N_15  and  C_16 
REMARK    6  A    between atoms: C_16  and  C_17 
REMARK    7  A    between atoms: C_17  and  N_18 
ROOT
HETATM    1  C   UNL     1     -41.337 -50.441  11.844  1.00  0.00     0.269 C 
HETATM    2  O   UNL     1     -40.272 -51.038  11.900  1.00  0.00    -0.266 OA
HETATM    3  N   UNL     1     -42.577 -50.977  12.120  1.00  0.00    -0.354 N 
HETATM    4  H   UNL     1     -43.336 -50.316  12.248  1.00  0.00     0.162 HD
ENDROOT
BRANCH   1   5
HETATM    5  C   UNL     1     -41.358 -48.983  11.374  1.00  0.00     0.116 A 
HETATM    6  N   UNL     1     -42.335 -48.568  10.625  1.00  0.00    -0.290 N 
HETATM    7  N   UNL     1     -42.283 -47.240  10.215  1.00  0.00    -0.255 N 
ATOM      8  HN  UNL     1     -43.100 -49.185  10.351  1.00  0.00     0.187 HD
HETATM    9  C   UNL     1     -41.211 -46.385  10.463  1.00  0.00     0.262 A 
HETATM   10  C   UNL     1     -40.152 -46.914  11.344  1.00  0.00     0.078 A 
HETATM   11  O   UNL     1     -41.107 -45.246  10.019  1.00  0.00    -0.267 OA
HETATM   12  C   UNL     1     -40.210 -48.162  11.810  1.00  0.00     0.042 A 
BRANCH   7  13
HETATM   13  C   UNL     1     -43.413 -46.745   9.437  1.00  0.00     0.178 C 
BRANCH  13  14
HETATM   14  C   UNL     1     -43.622 -47.521   8.139  1.00  0.00     0.189 C 
BRANCH  14  15
HETATM   15  O   UNL     1     -44.923 -48.114   8.153  1.00  0.00    -0.394 OA
HETATM   16  C   UNL     1     -45.784 -47.470   9.082  1.00  0.00     0.201 C 
ENDBRANCH  14  15
ENDBRANCH  13  14
ENDBRANCH   7  13
ENDBRANCH   1   5
BRANCH   3  17
HETATM   17  C   UNL     1     -42.720 -52.354  12.577  1.00  0.00     0.153 C 
BRANCH  17  18
HETATM   18  C   UNL     1     -43.821 -52.512  13.655  1.00  0.00     0.292 C 
BRANCH  18  19
HETATM   19  N   UNL     1     -45.159 -52.868  13.132  1.00  0.00     0.094 N 
HETATM   20  C   UNL     1     -46.088 -51.718  13.100  1.00  0.00     0.273 C 
HETATM   21  C   UNL     1     -46.512 -51.237  14.490  1.00  0.00     0.030 C 
HETATM   22  C   UNL     1     -47.132 -52.370  15.299  1.00  0.00     0.004 C 
HETATM   23  C   UNL     1     -46.254 -53.619  15.281  1.00  0.00     0.035 C 
HETATM   24  C   UNL     1     -45.829 -53.985  13.846  1.00  0.00     0.219 C 
HETATM   25  C   UNL     1     -45.050 -55.304  13.830  1.00  0.00     0.043 C 
ENDBRANCH  18  19
ENDBRANCH  17  18
ENDBRANCH   3  17
TORSDOF 7
ENDMDL
MODEL 2
REMARK VINA RESULT:      -6.6      0.840      1.740
REMARK  7 active torsions:
REMARK  status: ('A' for Active; 'I' for Inactive)
REMARK    1  A    between atoms: O_2  and  C_3 
REMARK    2  A    between atoms: C_3  and  C_4 
REMARK    3  A    between atoms: C_4  and  N_5 
REMARK    4  A    between atoms: C_8  and  C_13 
REMARK       I    between atoms: C_13  and  N_15 
REMARK    5  A    between atoms: N_15  and  C_16 
REMARK    6  A    between atoms: C_16  and  C_17 
REMARK    7  A    between atoms: C_17  and  N_18 
ROOT
HETATM    1  C   UNL     1     -40.964 -50.343  11.776  1.00  0.00     0.269 C 
HETATM    2  O   UNL     1     -39.839 -50.759  12.008  1.00  0.00    -0.266 OA
HETATM    3  N   UNL     1     -42.126 -51.082  11.837  1.00  0.00    -0.354 N 
HETATM    4  H   UNL     1     -42.995 -50.558  11.839  1.00  0.00     0.162 HD
ENDROOT
BRANCH   1   5
HETATM    5  C   UNL     1     -41.148 -48.894  11.314  1.00  0.00     0.116 A 
HETATM    6  N   UNL     1     -42.185 -48.580  10.598  1.00  0.00    -0.290 N 
HETATM    7  N   UNL     1     -42.282 -47.252  10.194  1.00  0.00    -0.255 N 
ATOM      8  HN  UNL     1     -42.892 -49.271  10.345  1.00  0.00     0.187 HD
HETATM    9  C   UNL     1     -41.297 -46.292  10.412  1.00  0.00     0.262 A 
HETATM   10  C   UNL     1     -40.162 -46.712  11.257  1.00  0.00     0.078 A 
HETATM   11  O   UNL     1     -41.324 -45.148   9.971  1.00  0.00    -0.267 OA
HETATM   12  C   UNL     1     -40.077 -47.960  11.719  1.00  0.00     0.042 A 
BRANCH   7  13
HETATM   13  C   UNL     1     -43.481 -46.875   9.453  1.00  0.00     0.178 C 
BRANCH  13  14
HETATM   14  C   UNL     1     -43.622 -47.628   8.133  1.00  0.00     0.189 C 
BRANCH  14  15
HETATM   15  O   UNL     1     -44.949 -48.154   8.036  1.00  0.00    -0.394 OA
HETATM   16  C   UNL     1     -45.814 -47.583   9.006  1.00  0.00     0.201 C 
ENDBRANCH  14  15
ENDBRANCH  13  14
ENDBRANCH   7  13
ENDBRANCH   1   5
BRANCH   3  17
HETATM   17  C   UNL     1     -42.112 -52.478  12.260  1.00  0.00     0.153 C 
BRANCH  17  18
HETATM   18  C   UNL     1     -43.516 -52.992  12.662  1.00  0.00     0.292 C 
BRANCH  18  19
HETATM   19  N   UNL     1     -43.704 -53.224  14.112  1.00  0.00     0.094 N 
HETATM   20  C   UNL     1     -43.919 -54.648  14.444  1.00  0.00     0.273 C 
HETATM   21  C   UNL     1     -45.265 -55.191  13.955  1.00  0.00     0.030 C 
HETATM   22  C   UNL     1     -46.423 -54.361  14.497  1.00  0.00     0.004 C 
HETATM   23  C   UNL     1     -46.199 -52.868  14.266  1.00  0.00     0.035 C 
HETATM   24  C   UNL     1     -44.797 -52.432  14.732  1.00  0.00     0.219 C 
HETATM   25  C   UNL     1     -44.630 -50.915  14.605  1.00  0.00     0.043 C 
ENDBRANCH  18  19
ENDBRANCH  17  18
ENDBRANCH   3  17
TORSDOF 7
ENDMDL
MODEL 3
REMARK VINA RESULT:      -6.2      2.539      6.901
REMARK  7 active torsions:
REMARK  status: ('A' for Active; 'I' for Inactive)
REMARK    1  A    between atoms: O_2  and  C_3 
REMARK    2  A    between atoms: C_3  and  C_4 
REMARK    3  A    between atoms: C_4  and  N_5 
REMARK    4  A    between atoms: C_8  and  C_13 
REMARK       I    between atoms: C_13  and  N_15 
REMARK    5  A    between atoms: N_15  and  C_16 
REMARK    6  A    between atoms: C_16  and  C_17 
REMARK    7  A    between atoms: C_17  and  N_18 
ROOT
HETATM    1  C   UNL     1     -41.191 -52.049  12.264  1.00  0.00     0.269 C 
HETATM    2  O   UNL     1     -40.045 -52.429  12.451  1.00  0.00    -0.266 OA
HETATM    3  N   UNL     1     -41.561 -50.876  11.642  1.00  0.00    -0.354 N 
HETATM    4  H   UNL     1     -42.534 -50.800  11.362  1.00  0.00     0.162 HD
ENDROOT
BRANCH   1   5
HETATM    5  C   UNL     1     -42.356 -52.885  12.804  1.00  0.00     0.116 A 
HETATM    6  N   UNL     1     -43.576 -52.539  12.519  1.00  0.00    -0.290 N 
HETATM    7  N   UNL     1     -44.587 -53.327  13.057  1.00  0.00    -0.255 N 
ATOM      8  HN  UNL     1     -43.780 -51.731  11.931  1.00  0.00     0.187 HD
HETATM    9  C   UNL     1     -44.374 -54.371  13.954  1.00  0.00     0.262 A 
HETATM   10  C   UNL     1     -42.965 -54.726  14.210  1.00  0.00     0.078 A 
HETATM   11  O   UNL     1     -45.262 -55.004  14.515  1.00  0.00    -0.267 OA
HETATM   12  C   UNL     1     -41.972 -54.032  13.651  1.00  0.00     0.042 A 
BRANCH   7  13
HETATM   13  C   UNL     1     -45.956 -52.991  12.680  1.00  0.00     0.178 C 
BRANCH  13  14
HETATM   14  C   UNL     1     -46.278 -51.512  12.880  1.00  0.00     0.189 C 
BRANCH  14  15
HETATM   15  O   UNL     1     -45.904 -51.128  14.206  1.00  0.00    -0.394 OA
HETATM   16  C   UNL     1     -46.922 -51.435  15.148  1.00  0.00     0.201 C 
ENDBRANCH  14  15
ENDBRANCH  13  14
ENDBRANCH   7  13
ENDBRANCH   1   5
BRANCH   3  17
HETATM   17  C   UNL     1     -40.565 -49.974  11.077  1.00  0.00     0.153 C 
BRANCH  17  18
HETATM   18  C   UNL     1     -40.943 -48.483  11.253  1.00  0.00     0.292 C 
BRANCH  18  19
HETATM   19  N   UNL     1     -42.395 -48.197  11.204  1.00  0.00     0.094 N 
HETATM   20  C   UNL     1     -42.801 -47.500   9.966  1.00  0.00     0.273 C 
HETATM   21  C   UNL     1     -42.288 -46.060   9.879  1.00  0.00     0.030 C 
HETATM   22  C   UNL     1     -42.727 -45.246  11.090  1.00  0.00     0.004 C 
HETATM   23  C   UNL     1     -42.416 -45.971  12.397  1.00  0.00     0.035 C 
HETATM   24  C   UNL     1     -42.917 -47.428  12.363  1.00  0.00     0.219 C 
HETATM   25  C   UNL     1     -42.707 -48.107  13.719  1.00  0.00     0.043 C 
ENDBRANCH  18  19
ENDBRANCH  17  18
ENDBRANCH   3  17
TORSDOF 7
ENDMDL
MODEL 4
REMARK VINA RESULT:      -6.0      1.667      3.093
REMARK  7 active torsions:
REMARK  status: ('A' for Active; 'I' for Inactive)
REMARK    1  A    between atoms: O_2  and  C_3 
REMARK    2  A    between atoms: C_3  and  C_4 
REMARK    3  A    between atoms: C_4  and  N_5 
REMARK    4  A    between atoms: C_8  and  C_13 
REMARK       I    between atoms: C_13  and  N_15 
REMARK    5  A    between atoms: N_15  and  C_16 
REMARK    6  A    between atoms: C_16  and  C_17 
REMARK    7  A    between atoms: C_17  and  N_18 
ROOT
HETATM    1  C   UNL     1     -41.351 -49.765  11.603  1.00  0.00     0.269 C 
HETATM    2  O   UNL     1     -40.218 -50.219  11.536  1.00  0.00    -0.266 OA
HETATM    3  N   UNL     1     -42.471 -50.450  12.021  1.00  0.00    -0.354 N 
HETATM    4  H   UNL     1     -43.290 -49.889  12.235  1.00  0.00     0.162 HD
ENDROOT
BRANCH   1   5
HETATM    5  C   UNL     1     -41.613 -48.330  11.135  1.00  0.00     0.116 A 
HETATM    6  N   UNL     1     -40.619 -47.499  11.035  1.00  0.00    -0.290 N 
HETATM    7  N   UNL     1     -40.928 -46.206  10.625  1.00  0.00    -0.255 N 
ATOM      8  HN  UNL     1     -39.662 -47.780  11.247  1.00  0.00     0.187 HD
HETATM    9  C   UNL     1     -42.224 -45.735  10.430  1.00  0.00     0.262 A 
HETATM   10  C   UNL     1     -43.300 -46.739  10.533  1.00  0.00     0.078 A 
HETATM   11  O   UNL     1     -42.514 -44.572  10.171  1.00  0.00    -0.267 OA
HETATM   12  C   UNL     1     -43.027 -48.005  10.856  1.00  0.00     0.042 A 
BRANCH   7  13
HETATM   13  C   UNL     1     -39.809 -45.289  10.438  1.00  0.00     0.178 C 
BRANCH  13  14
HETATM   14  C   UNL     1     -39.498 -44.474  11.690  1.00  0.00     0.189 C 
BRANCH  14  15
HETATM   15  O   UNL     1     -39.292 -45.365  12.788  1.00  0.00    -0.394 OA
HETATM   16  C   UNL     1     -39.901 -44.884  13.978  1.00  0.00     0.201 C 
ENDBRANCH  14  15
ENDBRANCH  13  14
ENDBRANCH   7  13
ENDBRANCH   1   5
BRANCH   3  17
HETATM   17  C   UNL     1     -42.382 -51.826  12.496  1.00  0.00     0.153 C 
BRANCH  17  18
HETATM   18  C   UNL     1     -43.438 -52.151  13.580  1.00  0.00     0.292 C 
BRANCH  18  19
HETATM   19  N   UNL     1     -44.526 -53.053  13.141  1.00  0.00     0.094 N 
HETATM   20  C   UNL     1     -45.721 -52.324  12.666  1.00  0.00     0.273 C 
HETATM   21  C   UNL     1     -46.474 -51.595  13.783  1.00  0.00     0.030 C 
HETATM   22  C   UNL     1     -46.872 -52.556  14.897  1.00  0.00     0.004 C 
HETATM   23  C   UNL     1     -45.689 -53.405  15.355  1.00  0.00     0.035 C 
HETATM   24  C   UNL     1     -44.961 -54.045  14.158  1.00  0.00     0.219 C 
HETATM   25  C   UNL     1     -43.852 -54.987  14.636  1.00  0.00     0.043 C 
ENDBRANCH  18  19
ENDBRANCH  17  18
ENDBRANCH   3  17
TORSDOF 7
ENDMDL
MODEL 5
REMARK VINA RESULT:      -5.8      1.972      3.677
REMARK  7 active torsions:
REMARK  status: ('A' for Active; 'I' for Inactive)
REMARK    1  A    between atoms: O_2  and  C_3 
REMARK    2  A    between atoms: C_3  and  C_4 
REMARK    3  A    between atoms: C_4  and  N_5 
REMARK    4  A    between atoms: C_8  and  C_13 
REMARK       I    between atoms: C_13  and  N_15 
REMARK    5  A    between atoms: N_15  and  C_16 
REMARK    6  A    between atoms: C_16  and  C_17 
REMARK    7  A    between atoms: C_17  and  N_18 
ROOT
HETATM    1  C   UNL     1     -40.651 -49.558  11.466  1.00  0.00     0.269 C 
HETATM    2  O   UNL     1     -39.477 -49.672  11.785  1.00  0.00    -0.266 OA
HETATM    3  N   UNL     1     -41.583 -50.574  11.441  1.00  0.00    -0.354 N 
HETATM    4  H   UNL     1     -42.556 -50.293  11.374  1.00  0.00     0.162 HD
ENDROOT
BRANCH   1   5
HETATM    5  C   UNL     1     -41.170 -48.199  10.986  1.00  0.00     0.116 A 
HETATM    6  N   UNL     1     -40.360 -47.184  10.946  1.00  0.00    -0.290 N 
HETATM    7  N   UNL     1     -40.900 -45.975  10.521  1.00  0.00    -0.255 N 
ATOM      8  HN  UNL     1     -39.379 -47.270  11.212  1.00  0.00     0.187 HD
HETATM    9  C   UNL     1     -42.251 -45.770  10.253  1.00  0.00     0.262 A 
HETATM   10  C   UNL     1     -43.107 -46.972  10.291  1.00  0.00     0.078 A 
HETATM   11  O   UNL     1     -42.754 -44.686   9.980  1.00  0.00    -0.267 OA
HETATM   12  C   UNL     1     -42.603 -48.161  10.627  1.00  0.00     0.042 A 
BRANCH   7  13
HETATM   13  C   UNL     1     -39.979 -44.849  10.400  1.00  0.00     0.178 C 
BRANCH  13  14
HETATM   14  C   UNL     1     -39.759 -44.121  11.723  1.00  0.00     0.189 C 
BRANCH  14  15
HETATM   15  O   UNL     1     -40.150 -42.753  11.575  1.00  0.00    -0.394 OA
HETATM   16  C   UNL     1     -41.309 -42.452  12.337  1.00  0.00     0.201 C 
ENDBRANCH  14  15
ENDBRANCH  13  14
ENDBRANCH   7  13
ENDBRANCH   1   5
BRANCH   3  17
HETATM   17  C   UNL     1     -41.239 -51.925  11.868  1.00  0.00     0.153 C 
BRANCH  17  18
HETATM   18  C   UNL     1     -42.484 -52.771  12.229  1.00  0.00     0.292 C 
BRANCH  18  19
HETATM   19  N   UNL     1     -43.066 -52.489  13.561  1.00  0.00     0.094 N 
HETATM   20  C   UNL     1     -42.210 -52.956  14.672  1.00  0.00     0.273 C 
HETATM   21  C   UNL     1     -42.132 -54.482  14.782  1.00  0.00     0.030 C 
HETATM   22  C   UNL     1     -43.521 -55.095  14.914  1.00  0.00     0.004 C 
HETATM   23  C   UNL     1     -44.472 -54.567  13.844  1.00  0.00     0.035 C 
HETATM   24  C   UNL     1     -44.434 -53.029  13.769  1.00  0.00     0.219 C 
HETATM   25  C   UNL     1     -45.478 -52.506  12.778  1.00  0.00     0.043 C 
ENDBRANCH  18  19
ENDBRANCH  17  18
ENDBRANCH   3  17
TORSDOF 7
ENDMDL
MODEL 6
REMARK VINA RESULT:      -5.5      2.121      3.268
REMARK  7 active torsions:
REMARK  status: ('A' for Active; 'I' for Inactive)
REMARK    1  A    between atoms: O_2  and  C_3 
REMARK    2  A    between atoms: C_3  and  C_4 
REMARK    3  A    between atoms: C_4  and  N_5 
REMARK    4  A    between atoms: C_8  and  C_13 
REMARK       I    between atoms: C_13  and  N_15 
REMARK    5  A    between atoms: N_15  and  C_16 
REMARK    6  A    between atoms: C_16  and  C_17 
REMARK    7  A    between atoms: C_17  and  N_18 
ROOT
HETATM    1  C   UNL     1     -41.962 -52.919  12.706  1.00  0.00     0.269 C 
HETATM    2  O   UNL     1     -41.440 -53.860  13.284  1.00  0.00    -0.266 OA
HETATM    3  N   UNL     1     -43.262 -52.873  12.249  1.00  0.00    -0.354 N 
HETATM    4  H   UNL     1     -43.618 -51.958  11.992  1.00  0.00     0.162 HD
ENDROOT
BRANCH   1   5
HETATM    5  C   UNL     1     -41.123 -51.679  12.380  1.00  0.00     0.116 A 
HETATM    6  N   UNL     1     -41.641 -50.729  11.662  1.00  0.00    -0.290 N 
HETATM    7  N   UNL     1     -40.819 -49.641  11.385  1.00  0.00    -0.255 N 
ATOM      8  HN  UNL     1     -42.600 -50.778  11.318  1.00  0.00     0.187 HD
HETATM    9  C   UNL     1     -39.472 -49.568  11.730  1.00  0.00     0.262 A 
HETATM   10  C   UNL     1     -38.959 -50.669  12.569  1.00  0.00     0.078 A 
HETATM   11  O   UNL     1     -38.713 -48.663  11.401  1.00  0.00    -0.267 OA
HETATM   12  C   UNL     1     -39.744 -51.692  12.910  1.00  0.00     0.042 A 
BRANCH   7  13
HETATM   13  C   UNL     1     -41.417 -48.535  10.643  1.00  0.00     0.178 C 
BRANCH  13  14
HETATM   14  C   UNL     1     -42.126 -47.531  11.547  1.00  0.00     0.189 C 
BRANCH  14  15
HETATM   15  O   UNL     1     -42.059 -46.235  10.948  1.00  0.00    -0.394 OA
HETATM   16  C   UNL     1     -40.719 -45.845  10.686  1.00  0.00     0.201 C 
ENDBRANCH  14  15
ENDBRANCH  13  14
ENDBRANCH   7  13
ENDBRANCH   1   5
BRANCH   3  17
HETATM   17  C   UNL     1     -44.184 -53.978  12.482  1.00  0.00     0.153 C 
BRANCH  17  18
HETATM   18  C   UNL     1     -44.971 -53.829  13.806  1.00  0.00     0.292 C 
BRANCH  18  19
HETATM   19  N   UNL     1     -44.847 -52.507  14.460  1.00  0.00     0.094 N 
HETATM   20  C   UNL     1     -44.350 -52.598  15.849  1.00  0.00     0.273 C 
HETATM   21  C   UNL     1     -45.354 -53.231  16.817  1.00  0.00     0.030 C 
HETATM   22  C   UNL     1     -46.682 -52.483  16.798  1.00  0.00     0.004 C 
HETATM   23  C   UNL     1     -47.190 -52.277  15.373  1.00  0.00     0.035 C 
HETATM   24  C   UNL     1     -46.090 -51.695  14.464  1.00  0.00     0.219 C 
HETATM   25  C   UNL     1     -46.645 -51.381  13.071  1.00  0.00     0.043 C 
ENDBRANCH  18  19
ENDBRANCH  17  18
ENDBRANCH   3  17
TORSDOF 7
ENDMDL
MODEL 7
REMARK VINA RESULT:      -5.4      1.842      2.932
REMARK  7 active torsions:
REMARK  status: ('A' for Active; 'I' for Inactive)
REMARK    1  A    between atoms: O_2  and  C_3 
REMARK    2  A    between atoms: C_3  and  C_4 
REMARK    3  A    between atoms: C_4  and  N_5 
REMARK    4  A    between atoms: C_8  and  C_13 
REMARK       I    between atoms: C_13  and  N_15 
REMARK    5  A    between atoms: N_15  and  C_16 
REMARK    6  A    between atoms: C_16  and  C_17 
REMARK    7  A    between atoms: C_17  and  N_18 
ROOT
HETATM    1  C   UNL     1     -39.761 -50.342  12.200  1.00  0.00     0.269 C 
HETATM    2  O   UNL     1     -38.721 -50.981  12.143  1.00  0.00    -0.266 OA
HETATM    3  N   UNL     1     -41.032 -50.857  12.063  1.00  0.00    -0.354 N 
HETATM    4  H   UNL     1     -41.796 -50.255  12.353  1.00  0.00     0.162 HD
ENDROOT
BRANCH   1   5
HETATM    5  C   UNL     1     -39.699 -48.822  12.378  1.00  0.00     0.116 A 
HETATM    6  N   UNL     1     -40.041 -48.049  11.390  1.00  0.00    -0.290 N 
HETATM    7  N   UNL     1     -39.942 -46.679  11.610  1.00  0.00    -0.255 N 
ATOM      8  HN  UNL     1     -40.365 -48.428  10.501  1.00  0.00     0.187 HD
HETATM    9  C   UNL     1     -39.403 -46.107  12.759  1.00  0.00     0.262 A 
HETATM   10  C   UNL     1     -39.062 -47.042  13.849  1.00  0.00     0.078 A 
HETATM   11  O   UNL     1     -39.215 -44.906  12.921  1.00  0.00    -0.267 OA
HETATM   12  C   UNL     1     -39.213 -48.358  13.694  1.00  0.00     0.042 A 
BRANCH   7  13
HETATM   13  C   UNL     1     -40.396 -45.805  10.534  1.00  0.00     0.178 C 
BRANCH  13  14
HETATM   14  C   UNL     1     -41.881 -45.467  10.632  1.00  0.00     0.189 C 
BRANCH  14  15
HETATM   15  O   UNL     1     -42.490 -45.662   9.353  1.00  0.00    -0.394 OA
HETATM   16  C   UNL     1     -43.193 -46.894   9.287  1.00  0.00     0.201 C 
ENDBRANCH  14  15
ENDBRANCH  13  14
ENDBRANCH   7  13
ENDBRANCH   1   5
BRANCH   3  17
HETATM   17  C   UNL     1     -41.253 -52.287  11.887  1.00  0.00     0.153 C 
BRANCH  17  18
HETATM   18  C   UNL     1     -42.715 -52.704  12.179  1.00  0.00     0.292 C 
BRANCH  18  19
HETATM   19  N   UNL     1     -43.169 -52.458  13.567  1.00  0.00     0.094 N 
HETATM   20  C   UNL     1     -42.296 -53.090  14.578  1.00  0.00     0.273 C 
HETATM   21  C   UNL     1     -42.378 -54.619  14.585  1.00  0.00     0.030 C 
HETATM   22  C   UNL     1     -43.814 -55.092  14.784  1.00  0.00     0.004 C 
HETATM   23  C   UNL     1     -44.773 -54.391  13.824  1.00  0.00     0.035 C 
HETATM   24  C   UNL     1     -44.571 -52.864  13.844  1.00  0.00     0.219 C 
HETATM   25  C   UNL     1     -45.616 -52.166  12.970  1.00  0.00     0.043 C 
ENDBRANCH  18  19
ENDBRANCH  17  18
ENDBRANCH   3  17
TORSDOF 7
ENDMDL
MODEL 8
REMARK VINA RESULT:      -5.3      2.779      4.450
REMARK  7 active torsions:
REMARK  status: ('A' for Active; 'I' for Inactive)
REMARK    1  A    between atoms: O_2  and  C_3 
REMARK    2  A    between atoms: C_3  and  C_4 
REMARK    3  A    between atoms: C_4  and  N_5 
REMARK    4  A    between atoms: C_8  and  C_13 
REMARK       I    between atoms: C_13  and  N_15 
REMARK    5  A    between atoms: N_15  and  C_16 
REMARK    6  A    between atoms: C_16  and  C_17 
REMARK    7  A    between atoms: C_17  and  N_18 
ROOT
HETATM    1  C   UNL     1     -41.870 -52.642  12.438  1.00  0.00     0.269 C 
HETATM    2  O   UNL     1     -41.169 -53.564  12.826  1.00  0.00    -0.266 OA
HETATM    3  N   UNL     1     -43.228 -52.701  12.209  1.00  0.00    -0.354 N 
HETATM    4  H   UNL     1     -43.708 -51.812  12.108  1.00  0.00     0.162 HD
ENDROOT
BRANCH   1   5
HETATM    5  C   UNL     1     -41.221 -51.295  12.103  1.00  0.00     0.116 A 
HETATM    6  N   UNL     1     -39.941 -51.239  11.889  1.00  0.00    -0.290 N 
HETATM    7  N   UNL     1     -39.411 -49.983  11.611  1.00  0.00    -0.255 N 
ATOM      8  HN  UNL     1     -39.354 -52.073  11.923  1.00  0.00     0.187 HD
HETATM    9  C   UNL     1     -40.140 -48.797  11.661  1.00  0.00     0.262 A 
HETATM   10  C   UNL     1     -41.592 -48.938  11.881  1.00  0.00     0.078 A 
HETATM   11  O   UNL     1     -39.662 -47.676  11.521  1.00  0.00    -0.267 OA
HETATM   12  C   UNL     1     -42.140 -50.138  12.081  1.00  0.00     0.042 A 
BRANCH   7  13
HETATM   13  C   UNL     1     -37.988 -49.923  11.295  1.00  0.00     0.178 C 
BRANCH  13  14
HETATM   14  C   UNL     1     -37.105 -49.940  12.540  1.00  0.00     0.189 C 
BRANCH  14  15
HETATM   15  O   UNL     1     -37.576 -50.954  13.432  1.00  0.00    -0.394 OA
HETATM   16  C   UNL     1     -37.680 -50.474  14.765  1.00  0.00     0.201 C 
ENDBRANCH  14  15
ENDBRANCH  13  14
ENDBRANCH   7  13
ENDBRANCH   1   5
BRANCH   3  17
HETATM   17  C   UNL     1     -43.987 -53.916  12.480  1.00  0.00     0.153 C 
BRANCH  17  18
HETATM   18  C   UNL     1     -44.854 -53.804  13.758  1.00  0.00     0.292 C 
BRANCH  18  19
HETATM   19  N   UNL     1     -44.777 -52.500  14.453  1.00  0.00     0.094 N 
HETATM   20  C   UNL     1     -44.291 -52.618  15.844  1.00  0.00     0.273 C 
HETATM   21  C   UNL     1     -45.284 -53.310  16.781  1.00  0.00     0.030 C 
HETATM   22  C   UNL     1     -46.634 -52.603  16.771  1.00  0.00     0.004 C 
HETATM   23  C   UNL     1     -47.135 -52.369  15.347  1.00  0.00     0.035 C 
HETATM   24  C   UNL     1     -46.045 -51.727  14.468  1.00  0.00     0.219 C 
HETATM   25  C   UNL     1     -46.596 -51.388  13.080  1.00  0.00     0.043 C 
ENDBRANCH  18  19
ENDBRANCH  17  18
ENDBRANCH   3  17
TORSDOF 7
ENDMDL
MODEL 9
REMARK VINA RESULT:      -5.3      2.388      3.573
REMARK  7 active torsions:
REMARK  status: ('A' for Active; 'I' for Inactive)
REMARK    1  A    between atoms: O_2  and  C_3 
REMARK    2  A    between atoms: C_3  and  C_4 
REMARK    3  A    between atoms: C_4  and  N_5 
REMARK    4  A    between atoms: C_8  and  C_13 
REMARK       I    between atoms: C_13  and  N_15 
REMARK    5  A    between atoms: N_15  and  C_16 
REMARK    6  A    between atoms: C_16  and  C_17 
REMARK    7  A    between atoms: C_17  and  N_18 
ROOT
HETATM    1  C   UNL     1     -42.812 -48.221  13.577  1.00  0.00     0.269 C 
HETATM    2  O   UNL     1     -42.949 -47.631  14.638  1.00  0.00    -0.266 OA
HETATM    3  N   UNL     1     -42.580 -49.572  13.428  1.00  0.00    -0.354 N 
HETATM    4  H   UNL     1     -42.711 -49.953  12.497  1.00  0.00     0.162 HD
ENDROOT
BRANCH   1   5
HETATM    5  C   UNL     1     -42.831 -47.426  12.268  1.00  0.00     0.116 A 
HETATM    6  N   UNL     1     -42.703 -46.133  12.304  1.00  0.00    -0.290 N 
HETATM    7  N   UNL     1     -42.750 -45.469  11.083  1.00  0.00    -0.255 N 
ATOM      8  HN  UNL     1     -42.575 -45.632  13.183  1.00  0.00     0.187 HD
HETATM    9  C   UNL     1     -43.034 -46.085   9.866  1.00  0.00     0.262 A 
HETATM   10  C   UNL     1     -43.139 -47.557   9.895  1.00  0.00     0.078 A 
HETATM   11  O   UNL     1     -43.181 -45.496   8.801  1.00  0.00    -0.267 OA
HETATM   12  C   UNL     1     -43.028 -48.228  11.043  1.00  0.00     0.042 A 
BRANCH   7  13
HETATM   13  C   UNL     1     -42.531 -44.027  11.108  1.00  0.00     0.178 C 
BRANCH  13  14
HETATM   14  C   UNL     1     -41.065 -43.654  11.312  1.00  0.00     0.189 C 
BRANCH  14  15
HETATM   15  O   UNL     1     -40.371 -43.792  10.069  1.00  0.00    -0.394 OA
HETATM   16  C   UNL     1     -39.441 -44.864  10.102  1.00  0.00     0.201 C 
ENDBRANCH  14  15
ENDBRANCH  13  14
ENDBRANCH   7  13
ENDBRANCH   1   5
BRANCH   3  17
HETATM   17  C   UNL     1     -42.533 -50.461  14.583  1.00  0.00     0.153 C 
BRANCH  17  18
HETATM   18  C   UNL     1     -43.543 -51.630  14.476  1.00  0.00     0.292 C 
BRANCH  18  19
HETATM   19  N   UNL     1     -43.277 -52.587  13.378  1.00  0.00     0.094 N 
HETATM   20  C   UNL     1     -44.461 -52.832  12.529  1.00  0.00     0.273 C 
HETATM   21  C   UNL     1     -45.571 -53.613  13.240  1.00  0.00     0.030 C 
HETATM   22  C   UNL     1     -45.049 -54.938  13.783  1.00  0.00     0.004 C 
HETATM   23  C   UNL     1     -43.766 -54.748  14.588  1.00  0.00     0.035 C 
HETATM   24  C   UNL     1     -42.738 -53.900  13.815  1.00  0.00     0.219 C 
HETATM   25  C   UNL     1     -41.414 -53.818  14.581  1.00  0.00     0.043 C 
ENDBRANCH  18  19
ENDBRANCH  17  18
ENDBRANCH   3  17
TORSDOF 7
ENDMDL
