MODEL 1
REMARK VINA RESULT:      -7.0      0.000      0.000
REMARK  6 active torsions:
REMARK  status: ('A' for Active; 'I' for Inactive)
REMARK    1  A    between atoms: C_2  and  N_3 
REMARK    2  A    between atoms: C_2  and  C_7 
REMARK       I    between atoms: N_3  and  C_4 
REMARK    3  A    between atoms: N_16  and  C_17 
REMARK    4  A    between atoms: C_17  and  C_18 
REMARK    5  A    between atoms: C_18  and  O_19 
REMARK    6  A    between atoms: C_18  and  C_20 
ROOT
HETATM    1  C   UNL     1     -39.434 -49.491  11.813  1.00  0.00     0.107 C 
HETATM    2  N   UNL     1     -39.572 -48.363  11.140  1.00  0.00    -0.342 N 
ATOM      3  HN  UNL     1     -38.831 -47.825  10.691  1.00  0.00     0.167 HD
HETATM    4  C   UNL     1     -40.907 -48.061  11.164  1.00  0.00     0.060 A 
HETATM    5  C   UNL     1     -41.572 -46.938  10.651  1.00  0.00     0.032 A 
HETATM    6  C   UNL     1     -42.954 -46.827  10.838  1.00  0.00     0.002 A 
HETATM    7  C   UNL     1     -43.659 -47.817  11.524  1.00  0.00     0.002 A 
HETATM    8  C   UNL     1     -43.011 -48.948  12.037  1.00  0.00     0.032 A 
HETATM    9  C   UNL     1     -41.629 -49.048  11.834  1.00  0.00     0.062 A 
HETATM   10  N   UNL     1     -40.678 -49.991  12.167  1.00  0.00    -0.330 N 
ENDROOT
BRANCH  10  11
HETATM   11  C   UNL     1     -40.949 -51.245  12.852  1.00  0.00     0.167 C 
BRANCH  11  12
HETATM   12  C   UNL     1     -41.597 -52.341  11.990  1.00  0.00     0.169 C 
BRANCH  12  13
HETATM   13  O   UNL     1     -40.569 -53.157  11.416  1.00  0.00    -0.389 OA
HETATM   14  H   UNL     1     -40.117 -53.616  12.144  1.00  0.00     0.210 HD
ENDBRANCH  12  13
BRANCH  12  15
HETATM   15  C   UNL     1     -42.548 -53.246  12.766  1.00  0.00    -0.028 A 
HETATM   16  C   UNL     1     -42.067 -53.934  13.893  1.00  0.00     0.010 A 
HETATM   17  C   UNL     1     -42.907 -54.754  14.650  1.00  0.00     0.001 A 
HETATM   18  C   UNL     1     -44.249 -54.897  14.298  1.00  0.00     0.000 A 
HETATM   19  C   UNL     1     -44.748 -54.210  13.196  1.00  0.00     0.001 A 
HETATM   20  C   UNL     1     -43.908 -53.385  12.441  1.00  0.00     0.010 A 
ENDBRANCH  12  15
ENDBRANCH  11  12
ENDBRANCH  10  11
BRANCH   1  21
HETATM   21  C   UNL     1     -38.092 -50.092  12.167  1.00  0.00     0.148 C 
HETATM   22  C   UNL     1     -37.178 -50.184  10.938  1.00  0.00     0.040 C 
BRANCH  21  23
HETATM   23  N   UNL     1     -37.524 -49.363  13.294  1.00  0.00    -0.350 N 
HETATM   24  C   UNL     1     -37.591 -49.879  14.572  1.00  0.00     0.214 C 
HETATM   25  O   UNL     1     -38.018 -50.996  14.844  1.00  0.00    -0.274 OA
HETATM   26  C   UNL     1     -37.047 -48.968  15.640  1.00  0.00     0.117 C 
HETATM   27  H   UNL     1     -37.586 -48.353  13.223  1.00  0.00     0.163 HD
ENDBRANCH  21  23
ENDBRANCH   1  21
TORSDOF 6
ENDMDL
MODEL 2
REMARK VINA RESULT:      -6.9      2.725      5.095
REMARK  6 active torsions:
REMARK  status: ('A' for Active; 'I' for Inactive)
REMARK    1  A    between atoms: C_2  and  N_3 
REMARK    2  A    between atoms: C_2  and  C_7 
REMARK       I    between atoms: N_3  and  C_4 
REMARK    3  A    between atoms: N_16  and  C_17 
REMARK    4  A    between atoms: C_17  and  C_18 
REMARK    5  A    between atoms: C_18  and  O_19 
REMARK    6  A    between atoms: C_18  and  C_20 
ROOT
HETATM    1  C   UNL     1     -40.855 -48.220  11.634  1.00  0.00     0.107 C 
HETATM    2  N   UNL     1     -39.615 -48.203  11.179  1.00  0.00    -0.342 N 
ATOM      3  HN  UNL     1     -39.220 -47.547  10.505  1.00  0.00     0.167 HD
HETATM    4  C   UNL     1     -38.965 -49.239  11.793  1.00  0.00     0.060 A 
HETATM    5  C   UNL     1     -37.650 -49.693  11.613  1.00  0.00     0.032 A 
HETATM    6  C   UNL     1     -37.218 -50.814  12.331  1.00  0.00     0.002 A 
HETATM    7  C   UNL     1     -38.081 -51.468  13.212  1.00  0.00     0.002 A 
HETATM    8  C   UNL     1     -39.395 -51.023  13.408  1.00  0.00     0.032 A 
HETATM    9  C   UNL     1     -39.809 -49.896  12.688  1.00  0.00     0.062 A 
HETATM   10  N   UNL     1     -40.985 -49.176  12.631  1.00  0.00    -0.330 N 
ENDROOT
BRANCH  10  11
HETATM   11  C   UNL     1     -42.172 -49.450  13.423  1.00  0.00     0.167 C 
BRANCH  11  12
HETATM   12  C   UNL     1     -43.272 -50.250  12.708  1.00  0.00     0.169 C 
BRANCH  12  13
HETATM   13  O   UNL     1     -42.694 -51.421  12.118  1.00  0.00    -0.389 OA
HETATM   14  H   UNL     1     -42.128 -51.839  12.789  1.00  0.00     0.210 HD
ENDBRANCH  12  13
BRANCH  12  15
HETATM   15  C   UNL     1     -44.406 -50.690  13.629  1.00  0.00    -0.028 A 
HETATM   16  C   UNL     1     -44.268 -50.506  15.016  1.00  0.00     0.010 A 
HETATM   17  C   UNL     1     -45.289 -50.870  15.896  1.00  0.00     0.001 A 
HETATM   18  C   UNL     1     -46.473 -51.419  15.407  1.00  0.00     0.000 A 
HETATM   19  C   UNL     1     -46.636 -51.592  14.036  1.00  0.00     0.001 A 
HETATM   20  C   UNL     1     -45.616 -51.223  13.154  1.00  0.00     0.010 A 
ENDBRANCH  12  15
ENDBRANCH  11  12
ENDBRANCH  10  11
BRANCH   1  21
HETATM   21  C   UNL     1     -41.956 -47.339  11.087  1.00  0.00     0.148 C 
HETATM   22  C   UNL     1     -41.708 -45.862  11.418  1.00  0.00     0.040 C 
BRANCH  21  23
HETATM   23  N   UNL     1     -42.134 -47.623   9.668  1.00  0.00    -0.350 N 
HETATM   24  C   UNL     1     -43.384 -47.548   9.087  1.00  0.00     0.214 C 
HETATM   25  O   UNL     1     -44.390 -47.148   9.663  1.00  0.00    -0.274 OA
HETATM   26  C   UNL     1     -43.422 -47.960   7.640  1.00  0.00     0.117 C 
HETATM   27  H   UNL     1     -41.517 -48.336   9.295  1.00  0.00     0.163 HD
ENDBRANCH  21  23
ENDBRANCH   1  21
TORSDOF 6
ENDMDL
MODEL 3
REMARK VINA RESULT:      -6.2      2.829      4.859
REMARK  6 active torsions:
REMARK  status: ('A' for Active; 'I' for Inactive)
REMARK    1  A    between atoms: C_2  and  N_3 
REMARK    2  A    between atoms: C_2  and  C_7 
REMARK       I    between atoms: N_3  and  C_4 
REMARK    3  A    between atoms: N_16  and  C_17 
REMARK    4  A    between atoms: C_17  and  C_18 
REMARK    5  A    between atoms: C_18  and  O_19 
REMARK    6  A    between atoms: C_18  and  C_20 
ROOT
HETATM    1  C   UNL     1     -40.199 -53.021  14.020  1.00  0.00     0.107 C 
HETATM    2  N   UNL     1     -38.922 -52.706  14.137  1.00  0.00    -0.342 N 
ATOM      3  HN  UNL     1     -38.223 -53.185  14.704  1.00  0.00     0.167 HD
HETATM    4  C   UNL     1     -38.723 -51.608  13.344  1.00  0.00     0.060 A 
HETATM    5  C   UNL     1     -37.561 -50.844  13.162  1.00  0.00     0.032 A 
HETATM    6  C   UNL     1     -37.612 -49.724  12.324  1.00  0.00     0.002 A 
HETATM    7  C   UNL     1     -38.800 -49.374  11.680  1.00  0.00     0.002 A 
HETATM    8  C   UNL     1     -39.967 -50.131  11.846  1.00  0.00     0.032 A 
HETATM    9  C   UNL     1     -39.897 -51.252  12.682  1.00  0.00     0.062 A 
HETATM   10  N   UNL     1     -40.804 -52.219  13.065  1.00  0.00    -0.330 N 
ENDROOT
BRANCH  10  11
HETATM   11  C   UNL     1     -42.180 -52.305  12.601  1.00  0.00     0.167 C 
BRANCH  11  12
HETATM   12  C   UNL     1     -43.158 -51.316  13.254  1.00  0.00     0.169 C 
BRANCH  12  13
HETATM   13  O   UNL     1     -43.487 -50.288  12.311  1.00  0.00    -0.389 OA
HETATM   14  H   UNL     1     -43.857 -49.540  12.809  1.00  0.00     0.210 HD
ENDBRANCH  12  13
BRANCH  12  15
HETATM   15  C   UNL     1     -44.457 -51.962  13.727  1.00  0.00    -0.028 A 
HETATM   16  C   UNL     1     -45.391 -51.182  14.429  1.00  0.00     0.010 A 
HETATM   17  C   UNL     1     -46.604 -51.724  14.860  1.00  0.00     0.001 A 
HETATM   18  C   UNL     1     -46.911 -53.057  14.589  1.00  0.00     0.000 A 
HETATM   19  C   UNL     1     -46.007 -53.841  13.879  1.00  0.00     0.001 A 
HETATM   20  C   UNL     1     -44.794 -53.297  13.444  1.00  0.00     0.010 A 
ENDBRANCH  12  15
ENDBRANCH  11  12
ENDBRANCH  10  11
BRANCH   1  21
HETATM   21  C   UNL     1     -40.876 -54.081  14.861  1.00  0.00     0.148 C 
HETATM   22  C   UNL     1     -39.856 -55.064  15.451  1.00  0.00     0.040 C 
BRANCH  21  23
HETATM   23  N   UNL     1     -41.735 -53.433  15.844  1.00  0.00    -0.350 N 
HETATM   24  C   UNL     1     -42.884 -54.054  16.292  1.00  0.00     0.214 C 
HETATM   25  O   UNL     1     -43.209 -55.199  15.998  1.00  0.00    -0.274 OA
HETATM   26  C   UNL     1     -43.714 -53.222  17.232  1.00  0.00     0.117 C 
HETATM   27  H   UNL     1     -41.781 -52.423  15.771  1.00  0.00     0.163 HD
ENDBRANCH  21  23
ENDBRANCH   1  21
TORSDOF 6
ENDMDL
MODEL 4
REMARK VINA RESULT:      -6.1      2.639      4.975
REMARK  6 active torsions:
REMARK  status: ('A' for Active; 'I' for Inactive)
REMARK    1  A    between atoms: C_2  and  N_3 
REMARK    2  A    between atoms: C_2  and  C_7 
REMARK       I    between atoms: N_3  and  C_4 
REMARK    3  A    between atoms: N_16  and  C_17 
REMARK    4  A    between atoms: C_17  and  C_18 
REMARK    5  A    between atoms: C_18  and  O_19 
REMARK    6  A    between atoms: C_18  and  C_20 
ROOT
HETATM    1  C   UNL     1     -40.284 -51.188  14.668  1.00  0.00     0.107 C 
HETATM    2  N   UNL     1     -40.008 -51.992  15.679  1.00  0.00    -0.342 N 
ATOM      3  HN  UNL     1     -39.302 -51.848  16.400  1.00  0.00     0.167 HD
HETATM    4  C   UNL     1     -40.861 -53.057  15.567  1.00  0.00     0.060 A 
HETATM    5  C   UNL     1     -40.938 -54.218  16.350  1.00  0.00     0.032 A 
HETATM    6  C   UNL     1     -41.875 -55.200  16.011  1.00  0.00     0.002 A 
HETATM    7  C   UNL     1     -42.719 -55.028  14.913  1.00  0.00     0.002 A 
HETATM    8  C   UNL     1     -42.659 -53.872  14.125  1.00  0.00     0.032 A 
HETATM    9  C   UNL     1     -41.721 -52.895  14.482  1.00  0.00     0.062 A 
HETATM   10  N   UNL     1     -41.390 -51.656  13.973  1.00  0.00    -0.330 N 
ENDROOT
BRANCH  10  11
HETATM   11  C   UNL     1     -42.043 -51.013  12.844  1.00  0.00     0.167 C 
BRANCH  11  12
HETATM   12  C   UNL     1     -43.131 -49.990  13.208  1.00  0.00     0.169 C 
BRANCH  12  13
HETATM   13  O   UNL     1     -43.528 -49.285  12.025  1.00  0.00    -0.389 OA
HETATM   14  H   UNL     1     -42.773 -49.290  11.413  1.00  0.00     0.210 HD
ENDBRANCH  12  13
BRANCH  12  15
HETATM   15  C   UNL     1     -44.375 -50.616  13.830  1.00  0.00    -0.028 A 
HETATM   16  C   UNL     1     -44.559 -50.529  15.221  1.00  0.00     0.010 A 
HETATM   17  C   UNL     1     -45.694 -51.065  15.833  1.00  0.00     0.001 A 
HETATM   18  C   UNL     1     -46.673 -51.693  15.064  1.00  0.00     0.000 A 
HETATM   19  C   UNL     1     -46.518 -51.772  13.684  1.00  0.00     0.001 A 
HETATM   20  C   UNL     1     -45.384 -51.231  13.071  1.00  0.00     0.010 A 
ENDBRANCH  12  15
ENDBRANCH  11  12
ENDBRANCH  10  11
BRANCH   1  21
HETATM   21  C   UNL     1     -39.458 -49.968  14.324  1.00  0.00     0.148 C 
HETATM   22  C   UNL     1     -38.856 -49.327  15.582  1.00  0.00     0.040 C 
BRANCH  21  23
HETATM   23  N   UNL     1     -38.487 -50.322  13.298  1.00  0.00    -0.350 N 
HETATM   24  C   UNL     1     -38.356 -49.555  12.158  1.00  0.00     0.214 C 
HETATM   25  O   UNL     1     -38.942 -48.495  11.968  1.00  0.00    -0.274 OA
HETATM   26  C   UNL     1     -37.380 -50.101  11.150  1.00  0.00     0.117 C 
HETATM   27  H   UNL     1     -38.337 -51.319  13.178  1.00  0.00     0.163 HD
ENDBRANCH  21  23
ENDBRANCH   1  21
TORSDOF 6
ENDMDL
MODEL 5
REMARK VINA RESULT:      -6.0      2.819      3.322
REMARK  6 active torsions:
REMARK  status: ('A' for Active; 'I' for Inactive)
REMARK    1  A    between atoms: C_2  and  N_3 
REMARK    2  A    between atoms: C_2  and  C_7 
REMARK       I    between atoms: N_3  and  C_4 
REMARK    3  A    between atoms: N_16  and  C_17 
REMARK    4  A    between atoms: C_17  and  C_18 
REMARK    5  A    between atoms: C_18  and  O_19 
REMARK    6  A    between atoms: C_18  and  C_20 
ROOT
HETATM    1  C   UNL     1     -41.149 -48.107  11.496  1.00  0.00     0.107 C 
HETATM    2  N   UNL     1     -41.116 -47.640  10.261  1.00  0.00    -0.342 N 
ATOM      3  HN  UNL     1     -40.285 -47.417   9.714  1.00  0.00     0.167 HD
HETATM    4  C   UNL     1     -42.420 -47.515   9.862  1.00  0.00     0.060 A 
HETATM    5  C   UNL     1     -42.935 -47.006   8.661  1.00  0.00     0.032 A 
HETATM    6  C   UNL     1     -44.323 -46.937   8.496  1.00  0.00     0.002 A 
HETATM    7  C   UNL     1     -45.180 -47.369   9.510  1.00  0.00     0.002 A 
HETATM    8  C   UNL     1     -44.681 -47.886  10.712  1.00  0.00     0.032 A 
HETATM    9  C   UNL     1     -43.290 -47.955  10.858  1.00  0.00     0.062 A 
HETATM   10  N   UNL     1     -42.454 -48.406  11.859  1.00  0.00    -0.330 N 
ENDROOT
BRANCH  10  11
HETATM   11  C   UNL     1     -42.894 -49.004  13.110  1.00  0.00     0.167 C 
BRANCH  11  12
HETATM   12  C   UNL     1     -43.236 -50.501  13.039  1.00  0.00     0.169 C 
BRANCH  12  13
HETATM   13  O   UNL     1     -42.149 -51.259  13.582  1.00  0.00    -0.389 OA
HETATM   14  H   UNL     1     -42.362 -52.200  13.472  1.00  0.00     0.210 HD
ENDBRANCH  12  13
BRANCH  12  15
HETATM   15  C   UNL     1     -44.504 -50.874  13.801  1.00  0.00    -0.028 A 
HETATM   16  C   UNL     1     -44.550 -50.670  15.191  1.00  0.00     0.010 A 
HETATM   17  C   UNL     1     -45.698 -50.973  15.927  1.00  0.00     0.001 A 
HETATM   18  C   UNL     1     -46.827 -51.479  15.285  1.00  0.00     0.000 A 
HETATM   19  C   UNL     1     -46.808 -51.671  13.907  1.00  0.00     0.001 A 
HETATM   20  C   UNL     1     -45.661 -51.363  13.170  1.00  0.00     0.010 A 
ENDBRANCH  12  15
ENDBRANCH  11  12
ENDBRANCH  10  11
BRANCH   1  21
HETATM   21  C   UNL     1     -39.923 -48.236  12.372  1.00  0.00     0.148 C 
HETATM   22  C   UNL     1     -38.960 -49.303  11.832  1.00  0.00     0.040 C 
BRANCH  21  23
HETATM   23  N   UNL     1     -39.328 -46.920  12.559  1.00  0.00    -0.350 N 
HETATM   24  C   UNL     1     -39.815 -46.058  13.520  1.00  0.00     0.214 C 
HETATM   25  O   UNL     1     -40.680 -46.353  14.338  1.00  0.00    -0.274 OA
HETATM   26  C   UNL     1     -39.161 -44.702  13.529  1.00  0.00     0.117 C 
HETATM   27  H   UNL     1     -38.982 -46.483  11.711  1.00  0.00     0.163 HD
ENDBRANCH  21  23
ENDBRANCH   1  21
TORSDOF 6
ENDMDL
MODEL 6
REMARK VINA RESULT:      -6.0      3.073      6.749
REMARK  6 active torsions:
REMARK  status: ('A' for Active; 'I' for Inactive)
REMARK    1  A    between atoms: C_2  and  N_3 
REMARK    2  A    between atoms: C_2  and  C_7 
REMARK       I    between atoms: N_3  and  C_4 
REMARK    3  A    between atoms: N_16  and  C_17 
REMARK    4  A    between atoms: C_17  and  C_18 
REMARK    5  A    between atoms: C_18  and  O_19 
REMARK    6  A    between atoms: C_18  and  C_20 
ROOT
HETATM    1  C   UNL     1     -41.378 -48.624  11.383  1.00  0.00     0.107 C 
HETATM    2  N   UNL     1     -42.579 -48.957  10.946  1.00  0.00    -0.342 N 
ATOM      3  HN  UNL     1     -43.041 -49.859  11.056  1.00  0.00     0.167 HD
HETATM    4  C   UNL     1     -43.079 -47.850  10.315  1.00  0.00     0.060 A 
HETATM    5  C   UNL     1     -44.290 -47.693   9.625  1.00  0.00     0.032 A 
HETATM    6  C   UNL     1     -44.567 -46.464   9.017  1.00  0.00     0.002 A 
HETATM    7  C   UNL     1     -43.654 -45.411   9.096  1.00  0.00     0.002 A 
HETATM    8  C   UNL     1     -42.444 -45.549   9.787  1.00  0.00     0.032 A 
HETATM    9  C   UNL     1     -42.185 -46.783  10.396  1.00  0.00     0.062 A 
HETATM   10  N   UNL     1     -41.143 -47.276  11.154  1.00  0.00    -0.330 N 
ENDROOT
BRANCH  10  11
HETATM   11  C   UNL     1     -39.968 -46.518  11.554  1.00  0.00     0.167 C 
BRANCH  11  12
HETATM   12  C   UNL     1     -40.009 -45.941  12.978  1.00  0.00     0.169 C 
BRANCH  12  13
HETATM   13  O   UNL     1     -38.773 -46.233  13.640  1.00  0.00    -0.389 OA
HETATM   14  H   UNL     1     -38.986 -46.608  14.511  1.00  0.00     0.210 HD
ENDBRANCH  12  13
BRANCH  12  15
HETATM   15  C   UNL     1     -40.228 -44.432  13.020  1.00  0.00    -0.028 A 
HETATM   16  C   UNL     1     -40.479 -43.813  14.257  1.00  0.00     0.010 A 
HETATM   17  C   UNL     1     -40.661 -42.431  14.347  1.00  0.00     0.001 A 
HETATM   18  C   UNL     1     -40.587 -41.639  13.202  1.00  0.00     0.000 A 
HETATM   19  C   UNL     1     -40.321 -42.230  11.972  1.00  0.00     0.001 A 
HETATM   20  C   UNL     1     -40.135 -43.613  11.882  1.00  0.00     0.010 A 
ENDBRANCH  12  15
ENDBRANCH  11  12
ENDBRANCH  10  11
BRANCH   1  21
HETATM   21  C   UNL     1     -40.411 -49.612  11.997  1.00  0.00     0.148 C 
HETATM   22  C   UNL     1     -41.135 -50.871  12.492  1.00  0.00     0.040 C 
BRANCH  21  23
HETATM   23  N   UNL     1     -39.326 -49.865  11.057  1.00  0.00    -0.350 N 
HETATM   24  C   UNL     1     -38.011 -49.843  11.477  1.00  0.00     0.214 C 
HETATM   25  O   UNL     1     -37.663 -49.723  12.647  1.00  0.00    -0.274 OA
HETATM   26  C   UNL     1     -37.003 -50.028  10.375  1.00  0.00     0.117 C 
HETATM   27  H   UNL     1     -39.492 -49.530  10.114  1.00  0.00     0.163 HD
ENDBRANCH  21  23
ENDBRANCH   1  21
TORSDOF 6
ENDMDL
MODEL 7
REMARK VINA RESULT:      -6.0      2.872      5.158
REMARK  6 active torsions:
REMARK  status: ('A' for Active; 'I' for Inactive)
REMARK    1  A    between atoms: C_2  and  N_3 
REMARK    2  A    between atoms: C_2  and  C_7 
REMARK       I    between atoms: N_3  and  C_4 
REMARK    3  A    between atoms: N_16  and  C_17 
REMARK    4  A    between atoms: C_17  and  C_18 
REMARK    5  A    between atoms: C_18  and  O_19 
REMARK    6  A    between atoms: C_18  and  C_20 
ROOT
HETATM    1  C   UNL     1     -40.425 -46.809  12.498  1.00  0.00     0.107 C 
HETATM    2  N   UNL     1     -40.542 -45.987  13.526  1.00  0.00    -0.342 N 
ATOM      3  HN  UNL     1     -41.172 -45.189  13.602  1.00  0.00     0.167 HD
HETATM    4  C   UNL     1     -39.648 -46.420  14.468  1.00  0.00     0.060 A 
HETATM    5  C   UNL     1     -39.332 -45.859  15.714  1.00  0.00     0.032 A 
HETATM    6  C   UNL     1     -38.340 -46.463  16.494  1.00  0.00     0.002 A 
HETATM    7  C   UNL     1     -37.676 -47.603  16.040  1.00  0.00     0.002 A 
HETATM    8  C   UNL     1     -37.984 -48.179  14.801  1.00  0.00     0.032 A 
HETATM    9  C   UNL     1     -38.985 -47.567  14.036  1.00  0.00     0.062 A 
HETATM   10  N   UNL     1     -39.557 -47.845  12.811  1.00  0.00    -0.330 N 
ENDROOT
BRANCH  10  11
HETATM   11  C   UNL     1     -39.225 -48.984  11.971  1.00  0.00     0.167 C 
BRANCH  11  12
HETATM   12  C   UNL     1     -40.375 -49.969  11.711  1.00  0.00     0.169 C 
BRANCH  12  13
HETATM   13  O   UNL     1     -40.459 -50.235  10.306  1.00  0.00    -0.389 OA
HETATM   14  H   UNL     1     -40.520 -49.379   9.849  1.00  0.00     0.210 HD
ENDBRANCH  12  13
BRANCH  12  15
HETATM   15  C   UNL     1     -40.216 -51.301  12.440  1.00  0.00    -0.028 A 
HETATM   16  C   UNL     1     -41.043 -52.379  12.078  1.00  0.00     0.010 A 
HETATM   17  C   UNL     1     -40.916 -53.623  12.700  1.00  0.00     0.001 A 
HETATM   18  C   UNL     1     -39.954 -53.817  13.690  1.00  0.00     0.000 A 
HETATM   19  C   UNL     1     -39.114 -52.768  14.048  1.00  0.00     0.001 A 
HETATM   20  C   UNL     1     -39.237 -51.523  13.423  1.00  0.00     0.010 A 
ENDBRANCH  12  15
ENDBRANCH  11  12
ENDBRANCH  10  11
BRANCH   1  21
HETATM   21  C   UNL     1     -41.119 -46.590  11.173  1.00  0.00     0.148 C 
HETATM   22  C   UNL     1     -42.319 -45.643  11.318  1.00  0.00     0.040 C 
BRANCH  21  23
HETATM   23  N   UNL     1     -40.136 -46.176  10.180  1.00  0.00    -0.350 N 
HETATM   24  C   UNL     1     -39.618 -44.897  10.194  1.00  0.00     0.214 C 
HETATM   25  O   UNL     1     -39.848 -44.068  11.068  1.00  0.00    -0.274 OA
HETATM   26  C   UNL     1     -38.687 -44.591   9.052  1.00  0.00     0.117 C 
HETATM   27  H   UNL     1     -40.253 -46.594   9.264  1.00  0.00     0.163 HD
ENDBRANCH  21  23
ENDBRANCH   1  21
TORSDOF 6
ENDMDL
MODEL 8
REMARK VINA RESULT:      -6.0      4.255      8.769
REMARK  6 active torsions:
REMARK  status: ('A' for Active; 'I' for Inactive)
REMARK    1  A    between atoms: C_2  and  N_3 
REMARK    2  A    between atoms: C_2  and  C_7 
REMARK       I    between atoms: N_3  and  C_4 
REMARK    3  A    between atoms: N_16  and  C_17 
REMARK    4  A    between atoms: C_17  and  C_18 
REMARK    5  A    between atoms: C_18  and  O_19 
REMARK    6  A    between atoms: C_18  and  C_20 
ROOT
HETATM    1  C   UNL     1     -42.484 -47.495  10.231  1.00  0.00     0.107 C 
HETATM    2  N   UNL     1     -42.365 -48.761  10.588  1.00  0.00    -0.342 N 
ATOM      3  HN  UNL     1     -42.947 -49.540  10.281  1.00  0.00     0.167 HD
HETATM    4  C   UNL     1     -41.305 -48.819  11.452  1.00  0.00     0.060 A 
HETATM    5  C   UNL     1     -40.801 -49.916  12.165  1.00  0.00     0.032 A 
HETATM    6  C   UNL     1     -39.722 -49.719  13.034  1.00  0.00     0.002 A 
HETATM    7  C   UNL     1     -39.157 -48.453  13.188  1.00  0.00     0.002 A 
HETATM    8  C   UNL     1     -39.645 -47.348  12.478  1.00  0.00     0.032 A 
HETATM    9  C   UNL     1     -40.720 -47.563  11.607  1.00  0.00     0.062 A 
HETATM   10  N   UNL     1     -41.438 -46.751  10.754  1.00  0.00    -0.330 N 
ENDROOT
BRANCH  10  11
HETATM   11  C   UNL     1     -41.178 -45.338  10.528  1.00  0.00     0.167 C 
BRANCH  11  12
HETATM   12  C   UNL     1     -42.189 -44.372  11.167  1.00  0.00     0.169 C 
BRANCH  12  13
HETATM   13  O   UNL     1     -42.698 -44.953  12.372  1.00  0.00    -0.389 OA
HETATM   14  H   UNL     1     -43.231 -44.277  12.823  1.00  0.00     0.210 HD
ENDBRANCH  12  13
BRANCH  12  15
HETATM   15  C   UNL     1     -41.599 -43.007  11.508  1.00  0.00    -0.028 A 
HETATM   16  C   UNL     1     -42.221 -41.850  11.006  1.00  0.00     0.010 A 
HETATM   17  C   UNL     1     -41.731 -40.579  11.313  1.00  0.00     0.001 A 
HETATM   18  C   UNL     1     -40.613 -40.438  12.133  1.00  0.00     0.000 A 
HETATM   19  C   UNL     1     -39.995 -41.570  12.655  1.00  0.00     0.001 A 
HETATM   20  C   UNL     1     -40.487 -42.843  12.352  1.00  0.00     0.010 A 
ENDBRANCH  12  15
ENDBRANCH  11  12
ENDBRANCH  10  11
BRANCH   1  21
HETATM   21  C   UNL     1     -43.638 -46.966   9.408  1.00  0.00     0.148 C 
HETATM   22  C   UNL     1     -43.161 -46.439   8.048  1.00  0.00     0.040 C 
BRANCH  21  23
HETATM   23  N   UNL     1     -44.679 -47.984   9.335  1.00  0.00    -0.350 N 
HETATM   24  C   UNL     1     -45.998 -47.628   9.136  1.00  0.00     0.214 C 
HETATM   25  O   UNL     1     -46.377 -46.485   8.905  1.00  0.00    -0.274 OA
HETATM   26  C   UNL     1     -46.965 -48.780   9.178  1.00  0.00     0.117 C 
HETATM   27  H   UNL     1     -44.525 -48.794   9.925  1.00  0.00     0.163 HD
ENDBRANCH  21  23
ENDBRANCH   1  21
TORSDOF 6
ENDMDL
MODEL 9
REMARK VINA RESULT:      -6.0      3.063      7.356
REMARK  6 active torsions:
REMARK  status: ('A' for Active; 'I' for Inactive)
REMARK    1  A    between atoms: C_2  and  N_3 
REMARK    2  A    between atoms: C_2  and  C_7 
REMARK       I    between atoms: N_3  and  C_4 
REMARK    3  A    between atoms: N_16  and  C_17 
REMARK    4  A    between atoms: C_17  and  C_18 
REMARK    5  A    between atoms: C_18  and  O_19 
REMARK    6  A    between atoms: C_18  and  C_20 
ROOT
HETATM    1  C   UNL     1     -43.288 -54.222  14.495  1.00  0.00     0.107 C 
HETATM    2  N   UNL     1     -42.931 -55.207  15.299  1.00  0.00    -0.342 N 
ATOM      3  HN  UNL     1     -43.523 -55.965  15.638  1.00  0.00     0.167 HD
HETATM    4  C   UNL     1     -41.607 -55.009  15.586  1.00  0.00     0.060 A 
HETATM    5  C   UNL     1     -40.766 -55.735  16.442  1.00  0.00     0.032 A 
HETATM    6  C   UNL     1     -39.444 -55.311  16.610  1.00  0.00     0.002 A 
HETATM    7  C   UNL     1     -38.969 -54.184  15.938  1.00  0.00     0.002 A 
HETATM    8  C   UNL     1     -39.794 -53.452  15.074  1.00  0.00     0.032 A 
HETATM    9  C   UNL     1     -41.112 -53.894  14.910  1.00  0.00     0.062 A 
HETATM   10  N   UNL     1     -42.182 -53.457  14.156  1.00  0.00    -0.330 N 
ENDROOT
BRANCH  10  11
HETATM   11  C   UNL     1     -42.152 -52.330  13.238  1.00  0.00     0.167 C 
BRANCH  11  12
HETATM   12  C   UNL     1     -40.947 -52.287  12.285  1.00  0.00     0.169 C 
BRANCH  12  13
HETATM   13  O   UNL     1     -41.359 -52.729  10.986  1.00  0.00    -0.389 OA
HETATM   14  H   UNL     1     -40.780 -53.465  10.728  1.00  0.00     0.210 HD
ENDBRANCH  12  13
BRANCH  12  15
HETATM   15  C   UNL     1     -40.329 -50.899  12.143  1.00  0.00    -0.028 A 
HETATM   16  C   UNL     1     -38.944 -50.747  12.328  1.00  0.00     0.010 A 
HETATM   17  C   UNL     1     -38.331 -49.501  12.184  1.00  0.00     0.001 A 
HETATM   18  C   UNL     1     -39.090 -48.382  11.843  1.00  0.00     0.000 A 
HETATM   19  C   UNL     1     -40.459 -48.516  11.637  1.00  0.00     0.001 A 
HETATM   20  C   UNL     1     -41.073 -49.764  11.777  1.00  0.00     0.010 A 
ENDBRANCH  12  15
ENDBRANCH  11  12
ENDBRANCH  10  11
BRANCH   1  21
HETATM   21  C   UNL     1     -44.717 -53.971  14.068  1.00  0.00     0.148 C 
HETATM   22  C   UNL     1     -45.448 -55.284  13.759  1.00  0.00     0.040 C 
BRANCH  21  23
HETATM   23  N   UNL     1     -45.372 -53.131  15.062  1.00  0.00    -0.350 N 
HETATM   24  C   UNL     1     -45.764 -51.845  14.749  1.00  0.00     0.214 C 
HETATM   25  O   UNL     1     -45.697 -51.358  13.625  1.00  0.00    -0.274 OA
HETATM   26  C   UNL     1     -46.339 -51.070  15.904  1.00  0.00     0.117 C 
HETATM   27  H   UNL     1     -45.058 -53.275  16.016  1.00  0.00     0.163 HD
ENDBRANCH  21  23
ENDBRANCH   1  21
TORSDOF 6
ENDMDL
