MODEL 1
REMARK VINA RESULT:      -5.0      0.000      0.000
REMARK  4 active torsions:
REMARK  status: ('A' for Active; 'I' for Inactive)
REMARK    1  A    between atoms: C_2  and  C_3 
REMARK    2  A    between atoms: C_2  and  N_13 
REMARK    3  A    between atoms: C_3  and  C_4 
REMARK    4  A    between atoms: N_13  and  C_14 
ROOT
HETATM    1  C   UNL     1     -43.107 -55.258  15.177  1.00  0.00     0.043 C 
HETATM    2  C   UNL     1     -43.598 -54.496  13.932  1.00  0.00     0.221 C 
ENDROOT
BRANCH   2   3
HETATM    3  C   UNL     1     -45.152 -54.477  14.024  1.00  0.00     0.077 C 
BRANCH   3   4
HETATM    4  C   UNL     1     -45.827 -53.246  14.548  1.00  0.00    -0.009 A 
HETATM    5  C   UNL     1     -46.411 -52.178  13.806  1.00  0.00     0.030 A 
HETATM    6  C   UNL     1     -46.472 -51.978  12.337  1.00  0.00     0.070 C 
HETATM    7  N   UNL     1     -47.051 -51.311  14.599  1.00  0.00    -0.303 N 
HETATM    8  N   UNL     1     -46.928 -51.830  15.830  1.00  0.00    -0.300 N 
ATOM      9  HN  UNL     1     -47.525 -50.449  14.328  1.00  0.00     0.186 HD
HETATM   10  C   UNL     1     -47.665 -51.223  16.917  1.00  0.00     0.177 C 
HETATM   11  C   UNL     1     -46.194 -52.986  15.863  1.00  0.00     0.032 A 
HETATM   12  C   UNL     1     -45.955 -53.777  17.096  1.00  0.00     0.070 C 
ENDBRANCH   3   4
ENDBRANCH   2   3
BRANCH   2  13
HETATM   13  N   UNL     1     -43.041 -53.131  13.852  1.00  0.00     0.092 N 
HETATM   14  H   UNL     1     -42.442 -52.979  14.664  1.00  0.00     0.316 HD
BRANCH  13  15
HETATM   15  C   UNL     1     -42.298 -52.756  12.634  1.00  0.00     0.222 C 
HETATM   16  C   UNL     1     -40.978 -53.553  12.606  1.00  0.00     0.045 C 
HETATM   17  C   UNL     1     -39.988 -53.147  13.690  1.00  0.00     0.076 C 
HETATM   18  S   UNL     1     -39.443 -51.433  13.460  1.00  0.00    -0.169 SA
HETATM   19  C   UNL     1     -41.078 -50.642  13.488  1.00  0.00     0.076 C 
HETATM   20  C   UNL     1     -42.025 -51.251  12.460  1.00  0.00     0.045 C 
ENDBRANCH  13  15
ENDBRANCH   2  13
TORSDOF 4
ENDMDL
MODEL 2
REMARK VINA RESULT:      -4.9      4.375      7.086
REMARK  4 active torsions:
REMARK  status: ('A' for Active; 'I' for Inactive)
REMARK    1  A    between atoms: C_2  and  C_3 
REMARK    2  A    between atoms: C_2  and  N_13 
REMARK    3  A    between atoms: C_3  and  C_4 
REMARK    4  A    between atoms: N_13  and  C_14 
ROOT
HETATM    1  C   UNL     1     -42.728 -48.818  14.116  1.00  0.00     0.043 C 
HETATM    2  C   UNL     1     -43.268 -49.222  12.732  1.00  0.00     0.221 C 
ENDROOT
BRANCH   2   3
HETATM    3  C   UNL     1     -42.030 -49.297  11.791  1.00  0.00     0.077 C 
BRANCH   3   4
HETATM    4  C   UNL     1     -41.575 -48.046  11.100  1.00  0.00    -0.009 A 
HETATM    5  C   UNL     1     -42.250 -47.305  10.086  1.00  0.00     0.030 A 
HETATM    6  C   UNL     1     -43.545 -47.590   9.420  1.00  0.00     0.070 C 
HETATM    7  N   UNL     1     -41.617 -46.162   9.799  1.00  0.00    -0.303 N 
HETATM    8  N   UNL     1     -40.577 -46.134  10.645  1.00  0.00    -0.300 N 
ATOM      9  HN  UNL     1     -41.870 -45.468   9.095  1.00  0.00     0.186 HD
HETATM   10  C   UNL     1     -39.774 -44.933  10.720  1.00  0.00     0.177 C 
HETATM   11  C   UNL     1     -40.493 -47.244  11.444  1.00  0.00     0.032 A 
HETATM   12  C   UNL     1     -39.461 -47.431  12.494  1.00  0.00     0.070 C 
ENDBRANCH   3   4
ENDBRANCH   2   3
BRANCH   2  13
HETATM   13  N   UNL     1     -44.004 -50.501  12.766  1.00  0.00     0.092 N 
HETATM   14  H   UNL     1     -43.531 -51.162  12.150  1.00  0.00     0.316 HD
BRANCH  13  15
HETATM   15  C   UNL     1     -44.221 -51.142  14.076  1.00  0.00     0.222 C 
HETATM   16  C   UNL     1     -43.364 -52.422  14.138  1.00  0.00     0.045 C 
HETATM   17  C   UNL     1     -43.829 -53.523  13.193  1.00  0.00     0.076 C 
HETATM   18  S   UNL     1     -45.485 -54.109  13.646  1.00  0.00    -0.169 SA
HETATM   19  C   UNL     1     -46.350 -52.514  13.556  1.00  0.00     0.076 C 
HETATM   20  C   UNL     1     -45.687 -51.454  14.428  1.00  0.00     0.045 C 
ENDBRANCH  13  15
ENDBRANCH   2  13
TORSDOF 4
ENDMDL
MODEL 3
REMARK VINA RESULT:      -4.8      3.517      6.602
REMARK  4 active torsions:
REMARK  status: ('A' for Active; 'I' for Inactive)
REMARK    1  A    between atoms: C_2  and  C_3 
REMARK    2  A    between atoms: C_2  and  N_13 
REMARK    3  A    between atoms: C_3  and  C_4 
REMARK    4  A    between atoms: N_13  and  C_14 
ROOT
HETATM    1  C   UNL     1     -40.060 -52.837  13.670  1.00  0.00     0.043 C 
HETATM    2  C   UNL     1     -41.176 -51.780  13.574  1.00  0.00     0.221 C 
ENDROOT
BRANCH   2   3
HETATM    3  C   UNL     1     -41.129 -51.235  12.116  1.00  0.00     0.077 C 
BRANCH   3   4
HETATM    4  C   UNL     1     -40.631 -49.840  11.887  1.00  0.00    -0.009 A 
HETATM    5  C   UNL     1     -39.289 -49.404  11.686  1.00  0.00     0.030 A 
HETATM    6  C   UNL     1     -38.034 -50.197  11.693  1.00  0.00     0.070 C 
HETATM    7  N   UNL     1     -39.226 -48.106  11.370  1.00  0.00    -0.303 N 
HETATM    8  N   UNL     1     -40.508 -47.714  11.316  1.00  0.00    -0.300 N 
ATOM      9  HN  UNL     1     -38.392 -47.542  11.206  1.00  0.00     0.186 HD
HETATM   10  C   UNL     1     -40.809 -46.387  10.822  1.00  0.00     0.177 C 
HETATM   11  C   UNL     1     -41.397 -48.709  11.628  1.00  0.00     0.032 A 
HETATM   12  C   UNL     1     -42.871 -48.540  11.594  1.00  0.00     0.070 C 
ENDBRANCH   3   4
ENDBRANCH   2   3
BRANCH   2  13
HETATM   13  N   UNL     1     -42.504 -52.333  13.906  1.00  0.00     0.092 N 
HETATM   14  H   UNL     1     -42.768 -52.004  14.834  1.00  0.00     0.316 HD
BRANCH  13  15
HETATM   15  C   UNL     1     -43.617 -52.070  12.974  1.00  0.00     0.222 C 
HETATM   16  C   UNL     1     -44.599 -51.095  13.653  1.00  0.00     0.045 C 
HETATM   17  C   UNL     1     -45.345 -51.696  14.838  1.00  0.00     0.076 C 
HETATM   18  S   UNL     1     -46.415 -53.061  14.306  1.00  0.00    -0.169 SA
HETATM   19  C   UNL     1     -45.141 -54.087  13.517  1.00  0.00     0.076 C 
HETATM   20  C   UNL     1     -44.360 -53.317  12.459  1.00  0.00     0.045 C 
ENDBRANCH  13  15
ENDBRANCH   2  13
TORSDOF 4
ENDMDL
MODEL 4
REMARK VINA RESULT:      -4.7      2.861      4.658
REMARK  4 active torsions:
REMARK  status: ('A' for Active; 'I' for Inactive)
REMARK    1  A    between atoms: C_2  and  C_3 
REMARK    2  A    between atoms: C_2  and  N_13 
REMARK    3  A    between atoms: C_3  and  C_4 
REMARK    4  A    between atoms: N_13  and  C_14 
ROOT
HETATM    1  C   UNL     1     -40.061 -51.533  12.543  1.00  0.00     0.043 C 
HETATM    2  C   UNL     1     -41.535 -51.296  12.166  1.00  0.00     0.221 C 
ENDROOT
BRANCH   2   3
HETATM    3  C   UNL     1     -42.334 -51.350  13.501  1.00  0.00     0.077 C 
BRANCH   3   4
HETATM    4  C   UNL     1     -43.215 -52.535  13.764  1.00  0.00    -0.009 A 
HETATM    5  C   UNL     1     -42.834 -53.837  14.200  1.00  0.00     0.030 A 
HETATM    6  C   UNL     1     -41.478 -54.378  14.466  1.00  0.00     0.070 C 
HETATM    7  N   UNL     1     -43.895 -54.605  14.468  1.00  0.00    -0.303 N 
HETATM    8  N   UNL     1     -44.950 -53.802  14.259  1.00  0.00    -0.300 N 
ATOM      9  HN  UNL     1     -43.902 -55.581  14.766  1.00  0.00     0.186 HD
HETATM   10  C   UNL     1     -46.267 -54.273  14.631  1.00  0.00     0.177 C 
HETATM   11  C   UNL     1     -44.604 -52.550  13.825  1.00  0.00     0.032 A 
HETATM   12  C   UNL     1     -45.583 -51.465  13.568  1.00  0.00     0.070 C 
ENDBRANCH   3   4
ENDBRANCH   2   3
BRANCH   2  13
HETATM   13  N   UNL     1     -41.738 -50.016  11.461  1.00  0.00     0.092 N 
HETATM   14  H   UNL     1     -42.456 -50.149  10.749  1.00  0.00     0.316 HD
BRANCH  13  15
HETATM   15  C   UNL     1     -42.080 -48.828  12.266  1.00  0.00     0.222 C 
HETATM   16  C   UNL     1     -43.257 -48.101  11.584  1.00  0.00     0.045 C 
HETATM   17  C   UNL     1     -42.895 -47.458  10.251  1.00  0.00     0.076 C 
HETATM   18  S   UNL     1     -41.669 -46.141  10.479  1.00  0.00    -0.169 SA
HETATM   19  C   UNL     1     -40.386 -47.130  11.301  1.00  0.00     0.076 C 
HETATM   20  C   UNL     1     -40.921 -47.850  12.533  1.00  0.00     0.045 C 
ENDBRANCH  13  15
ENDBRANCH   2  13
TORSDOF 4
ENDMDL
MODEL 5
REMARK VINA RESULT:      -4.7      3.080      6.756
REMARK  4 active torsions:
REMARK  status: ('A' for Active; 'I' for Inactive)
REMARK    1  A    between atoms: C_2  and  C_3 
REMARK    2  A    between atoms: C_2  and  N_13 
REMARK    3  A    between atoms: C_3  and  C_4 
REMARK    4  A    between atoms: N_13  and  C_14 
ROOT
HETATM    1  C   UNL     1     -42.520 -49.150  14.701  1.00  0.00     0.043 C 
HETATM    2  C   UNL     1     -43.502 -49.628  13.615  1.00  0.00     0.221 C 
ENDROOT
BRANCH   2   3
HETATM    3  C   UNL     1     -42.743 -49.498  12.261  1.00  0.00     0.077 C 
BRANCH   3   4
HETATM    4  C   UNL     1     -41.310 -49.934  12.196  1.00  0.00    -0.009 A 
HETATM    5  C   UNL     1     -40.796 -51.260  12.097  1.00  0.00     0.030 A 
HETATM    6  C   UNL     1     -41.528 -52.551  12.074  1.00  0.00     0.070 C 
HETATM    7  N   UNL     1     -39.471 -51.270  11.917  1.00  0.00    -0.303 N 
HETATM    8  N   UNL     1     -39.133 -49.973  11.851  1.00  0.00    -0.300 N 
ATOM      9  HN  UNL     1     -38.856 -52.080  11.846  1.00  0.00     0.186 HD
HETATM   10  C   UNL     1     -37.778 -49.625  11.483  1.00  0.00     0.177 C 
HETATM   11  C   UNL     1     -40.195 -49.123  12.023  1.00  0.00     0.032 A 
HETATM   12  C   UNL     1     -40.090 -47.645  11.945  1.00  0.00     0.070 C 
ENDBRANCH   3   4
ENDBRANCH   2   3
BRANCH   2  13
HETATM   13  N   UNL     1     -43.970 -51.008  13.847  1.00  0.00     0.092 N 
HETATM   14  H   UNL     1     -43.964 -51.187  14.851  1.00  0.00     0.316 HD
BRANCH  13  15
HETATM   15  C   UNL     1     -45.286 -51.395  13.303  1.00  0.00     0.222 C 
HETATM   16  C   UNL     1     -46.310 -51.381  14.455  1.00  0.00     0.045 C 
HETATM   17  C   UNL     1     -46.089 -52.475  15.492  1.00  0.00     0.076 C 
HETATM   18  S   UNL     1     -46.311 -54.118  14.756  1.00  0.00    -0.169 SA
HETATM   19  C   UNL     1     -45.082 -53.969  13.428  1.00  0.00     0.076 C 
HETATM   20  C   UNL     1     -45.327 -52.742  12.558  1.00  0.00     0.045 C 
ENDBRANCH  13  15
ENDBRANCH   2  13
TORSDOF 4
ENDMDL
MODEL 6
REMARK VINA RESULT:      -4.6      2.830      5.504
REMARK  4 active torsions:
REMARK  status: ('A' for Active; 'I' for Inactive)
REMARK    1  A    between atoms: C_2  and  C_3 
REMARK    2  A    between atoms: C_2  and  N_13 
REMARK    3  A    between atoms: C_3  and  C_4 
REMARK    4  A    between atoms: N_13  and  C_14 
ROOT
HETATM    1  C   UNL     1     -42.966 -55.010  17.319  1.00  0.00     0.043 C 
HETATM    2  C   UNL     1     -43.077 -53.925  16.233  1.00  0.00     0.221 C 
ENDROOT
BRANCH   2   3
HETATM    3  C   UNL     1     -42.612 -54.595  14.906  1.00  0.00     0.077 C 
BRANCH   3   4
HETATM    4  C   UNL     1     -42.314 -53.721  13.725  1.00  0.00    -0.009 A 
HETATM    5  C   UNL     1     -43.200 -53.312  12.685  1.00  0.00     0.030 A 
HETATM    6  C   UNL     1     -44.624 -53.670  12.471  1.00  0.00     0.070 C 
HETATM    7  N   UNL     1     -42.633 -52.417  11.869  1.00  0.00    -0.303 N 
HETATM    8  N   UNL     1     -41.417 -52.208  12.396  1.00  0.00    -0.300 N 
ATOM      9  HN  UNL     1     -43.036 -51.989  11.035  1.00  0.00     0.186 HD
HETATM   10  C   UNL     1     -40.595 -51.149  11.849  1.00  0.00     0.177 C 
HETATM   11  C   UNL     1     -41.165 -52.971  13.505  1.00  0.00     0.032 A 
HETATM   12  C   UNL     1     -39.912 -52.890  14.296  1.00  0.00     0.070 C 
ENDBRANCH   3   4
ENDBRANCH   2   3
BRANCH   2  13
HETATM   13  N   UNL     1     -44.443 -53.380  16.118  1.00  0.00     0.092 N 
HETATM   14  H   UNL     1     -45.026 -53.817  16.832  1.00  0.00     0.316 HD
BRANCH  13  15
HETATM   15  C   UNL     1     -44.616 -51.917  16.193  1.00  0.00     0.222 C 
HETATM   16  C   UNL     1     -45.091 -51.557  17.615  1.00  0.00     0.045 C 
HETATM   17  C   UNL     1     -46.503 -52.034  17.934  1.00  0.00     0.076 C 
HETATM   18  S   UNL     1     -47.720 -51.215  16.867  1.00  0.00    -0.169 SA
HETATM   19  C   UNL     1     -47.019 -51.701  15.264  1.00  0.00     0.076 C 
HETATM   20  C   UNL     1     -45.553 -51.303  15.137  1.00  0.00     0.045 C 
ENDBRANCH  13  15
ENDBRANCH   2  13
TORSDOF 4
ENDMDL
MODEL 7
REMARK VINA RESULT:      -4.5      3.273      6.630
REMARK  4 active torsions:
REMARK  status: ('A' for Active; 'I' for Inactive)
REMARK    1  A    between atoms: C_2  and  C_3 
REMARK    2  A    between atoms: C_2  and  N_13 
REMARK    3  A    between atoms: C_3  and  C_4 
REMARK    4  A    between atoms: N_13  and  C_14 
ROOT
HETATM    1  C   UNL     1     -42.917 -52.684  12.410  1.00  0.00     0.043 C 
HETATM    2  C   UNL     1     -42.570 -52.208  13.833  1.00  0.00     0.221 C 
ENDROOT
BRANCH   2   3
HETATM    3  C   UNL     1     -41.962 -50.784  13.674  1.00  0.00     0.077 C 
BRANCH   3   4
HETATM    4  C   UNL     1     -40.814 -50.594  12.729  1.00  0.00    -0.009 A 
HETATM    5  C   UNL     1     -40.735 -49.724  11.602  1.00  0.00     0.030 A 
HETATM    6  C   UNL     1     -41.767 -48.818  11.042  1.00  0.00     0.070 C 
HETATM    7  N   UNL     1     -39.508 -49.708  11.069  1.00  0.00    -0.303 N 
HETATM    8  N   UNL     1     -38.788 -50.513  11.864  1.00  0.00    -0.300 N 
ATOM      9  HN  UNL     1     -39.192 -49.197  10.245  1.00  0.00     0.186 HD
HETATM   10  C   UNL     1     -37.355 -50.581  11.670  1.00  0.00     0.177 C 
HETATM   11  C   UNL     1     -39.520 -51.082  12.872  1.00  0.00     0.032 A 
HETATM   12  C   UNL     1     -38.945 -51.972  13.911  1.00  0.00     0.070 C 
ENDBRANCH   3   4
ENDBRANCH   2   3
BRANCH   2  13
HETATM   13  N   UNL     1     -43.745 -52.202  14.727  1.00  0.00     0.092 N 
HETATM   14  H   UNL     1     -43.418 -52.279  15.690  1.00  0.00     0.316 HD
BRANCH  13  15
HETATM   15  C   UNL     1     -44.683 -51.068  14.631  1.00  0.00     0.222 C 
HETATM   16  C   UNL     1     -44.809 -50.423  16.026  1.00  0.00     0.045 C 
HETATM   17  C   UNL     1     -45.515 -51.302  17.051  1.00  0.00     0.076 C 
HETATM   18  S   UNL     1     -47.239 -51.598  16.572  1.00  0.00    -0.169 SA
HETATM   19  C   UNL     1     -46.927 -52.317  14.934  1.00  0.00     0.076 C 
HETATM   20  C   UNL     1     -46.074 -51.403  14.061  1.00  0.00     0.045 C 
ENDBRANCH  13  15
ENDBRANCH   2  13
TORSDOF 4
ENDMDL
MODEL 8
REMARK VINA RESULT:      -4.3     15.036     16.984
REMARK  4 active torsions:
REMARK  status: ('A' for Active; 'I' for Inactive)
REMARK    1  A    between atoms: C_2  and  C_3 
REMARK    2  A    between atoms: C_2  and  N_13 
REMARK    3  A    between atoms: C_3  and  C_4 
REMARK    4  A    between atoms: N_13  and  C_14 
ROOT
HETATM    1  C   UNL     1     -48.033 -51.237  -0.998  1.00  0.00     0.043 C 
HETATM    2  C   UNL     1     -49.558 -51.097  -1.157  1.00  0.00     0.221 C 
ENDROOT
BRANCH   2   3
HETATM    3  C   UNL     1     -50.178 -52.358  -0.487  1.00  0.00     0.077 C 
BRANCH   3   4
HETATM    4  C   UNL     1     -50.787 -53.411  -1.362  1.00  0.00    -0.009 A 
HETATM    5  C   UNL     1     -50.122 -54.401  -2.144  1.00  0.00     0.030 A 
HETATM    6  C   UNL     1     -48.668 -54.626  -2.333  1.00  0.00     0.070 C 
HETATM    7  N   UNL     1     -50.983 -55.267  -2.691  1.00  0.00    -0.303 N 
HETATM    8  N   UNL     1     -52.183 -54.879  -2.234  1.00  0.00    -0.300 N 
ATOM      9  HN  UNL     1     -50.773 -56.047  -3.314  1.00  0.00     0.186 HD
HETATM   10  C   UNL     1     -53.332 -55.719  -2.497  1.00  0.00     0.177 C 
HETATM   11  C   UNL     1     -52.130 -53.764  -1.440  1.00  0.00     0.032 A 
HETATM   12  C   UNL     1     -53.314 -53.166  -0.775  1.00  0.00     0.070 C 
ENDBRANCH   3   4
ENDBRANCH   2   3
BRANCH   2  13
HETATM   13  N   UNL     1     -50.075 -49.852  -0.557  1.00  0.00     0.092 N 
HETATM   14  H   UNL     1     -51.006 -50.036  -0.182  1.00  0.00     0.316 HD
BRANCH  13  15
HETATM   15  C   UNL     1     -49.263 -49.196   0.486  1.00  0.00     0.222 C 
HETATM   16  C   UNL     1     -50.069 -49.199   1.801  1.00  0.00     0.045 C 
HETATM   17  C   UNL     1     -51.297 -48.297   1.775  1.00  0.00     0.076 C 
HETATM   18  S   UNL     1     -50.819 -46.558   1.583  1.00  0.00    -0.169 SA
HETATM   19  C   UNL     1     -49.876 -46.724   0.040  1.00  0.00     0.076 C 
HETATM   20  C   UNL     1     -48.777 -47.774   0.152  1.00  0.00     0.045 C 
ENDBRANCH  13  15
ENDBRANCH   2  13
TORSDOF 4
ENDMDL
MODEL 9
REMARK VINA RESULT:      -4.3      4.825      7.588
REMARK  4 active torsions:
REMARK  status: ('A' for Active; 'I' for Inactive)
REMARK    1  A    between atoms: C_2  and  C_3 
REMARK    2  A    between atoms: C_2  and  N_13 
REMARK    3  A    between atoms: C_3  and  C_4 
REMARK    4  A    between atoms: N_13  and  C_14 
ROOT
HETATM    1  C   UNL     1     -39.970 -45.937  14.450  1.00  0.00     0.043 C 
HETATM    2  C   UNL     1     -39.395 -46.604  13.187  1.00  0.00     0.221 C 
ENDROOT
BRANCH   2   3
HETATM    3  C   UNL     1     -38.752 -47.941  13.662  1.00  0.00     0.077 C 
BRANCH   3   4
HETATM    4  C   UNL     1     -39.294 -49.230  13.124  1.00  0.00    -0.009 A 
HETATM    5  C   UNL     1     -38.756 -50.048  12.087  1.00  0.00     0.030 A 
HETATM    6  C   UNL     1     -37.556 -49.825  11.243  1.00  0.00     0.070 C 
HETATM    7  N   UNL     1     -39.423 -51.200  11.963  1.00  0.00    -0.303 N 
HETATM    8  N   UNL     1     -40.348 -51.157  12.934  1.00  0.00    -0.300 N 
ATOM      9  HN  UNL     1     -39.264 -51.944  11.283  1.00  0.00     0.186 HD
HETATM   10  C   UNL     1     -41.138 -52.341  13.194  1.00  0.00     0.177 C 
HETATM   11  C   UNL     1     -40.326 -49.994  13.657  1.00  0.00     0.032 A 
HETATM   12  C   UNL     1     -41.215 -49.723  14.814  1.00  0.00     0.070 C 
ENDBRANCH   3   4
ENDBRANCH   2   3
BRANCH   2  13
HETATM   13  N   UNL     1     -40.422 -46.832  12.153  1.00  0.00     0.092 N 
HETATM   14  H   UNL     1     -40.561 -47.837  12.051  1.00  0.00     0.316 HD
BRANCH  13  15
HETATM   15  C   UNL     1     -41.737 -46.185  12.327  1.00  0.00     0.222 C 
HETATM   16  C   UNL     1     -42.779 -47.279  12.635  1.00  0.00     0.045 C 
HETATM   17  C   UNL     1     -43.063 -48.210  11.462  1.00  0.00     0.076 C 
HETATM   18  S   UNL     1     -43.809 -47.301  10.081  1.00  0.00    -0.169 SA
HETATM   19  C   UNL     1     -42.503 -46.059   9.861  1.00  0.00     0.076 C 
HETATM   20  C   UNL     1     -42.205 -45.306  11.152  1.00  0.00     0.045 C 
ENDBRANCH  13  15
ENDBRANCH   2  13
TORSDOF 4
ENDMDL
