MODEL 1
REMARK VINA RESULT:      -5.5      0.000      0.000
REMARK  4 active torsions:
REMARK  status: ('A' for Active; 'I' for Inactive)
REMARK    1  A    between atoms: N_2  and  C_4 
REMARK    2  A    between atoms: C_4  and  C_5 
REMARK    3  A    between atoms: C_5  and  N_6 
REMARK       I    between atoms: N_6  and  C_7 
REMARK       I    between atoms: C_7  and  N_9 
REMARK    4  A    between atoms: N_9  and  C_10 
ROOT
HETATM    1  N   UNL     1     -40.622 -49.666  10.777  1.00  0.00    -0.340 N 
HETATM    2  C   UNL     1     -41.760 -48.885  10.811  1.00  0.00     0.322 C 
HETATM    3  O   UNL     1     -42.455 -48.810  11.821  1.00  0.00    -0.247 OA
HETATM    4  N   UNL     1     -41.978 -48.243   9.622  1.00  0.00    -0.289 N 
HETATM    5  H   UNL     1     -40.253 -49.962   9.886  1.00  0.00     0.164 HD
HETATM    6  H   UNL     1     -41.346 -48.368   8.852  1.00  0.00     0.172 HD
ENDROOT
BRANCH   1   7
HETATM    7  C   UNL     1     -40.278 -50.523  11.905  1.00  0.00     0.166 C 
BRANCH   7   8
HETATM    8  C   UNL     1     -39.182 -49.905  12.859  1.00  0.00     0.174 C 
HETATM    9  C   UNL     1     -38.295 -51.074  13.370  1.00  0.00     0.043 C 
HETATM   10  C   UNL     1     -37.114 -51.203  12.402  1.00  0.00     0.003 C 
HETATM   11  C   UNL     1     -37.274 -50.113  11.353  1.00  0.00     0.003 C 
HETATM   12  C   UNL     1     -38.170 -49.079  12.018  1.00  0.00     0.043 C 
BRANCH   8  13
HETATM   13  N   UNL     1     -39.846 -49.102  13.941  1.00  0.00     0.091 N 
HETATM   14  C   UNL     1     -39.439 -49.501  15.295  1.00  0.00     0.310 C 
HETATM   15  C   UNL     1     -39.653 -47.649  13.814  1.00  0.00     0.310 C 
ENDBRANCH   8  13
ENDBRANCH   7   8
ENDBRANCH   1   7
BRANCH   4  16
HETATM   16  C   UNL     1     -43.090 -47.475   9.412  1.00  0.00     0.152 A 
HETATM   17  N   UNL     1     -44.311 -47.840   9.120  1.00  0.00    -0.346 N 
HETATM   18  C   UNL     1     -45.096 -46.723   8.925  1.00  0.00     0.097 A 
ATOM     19  HN  UNL     1     -44.634 -48.805   9.047  1.00  0.00     0.167 HD
HETATM   20  C   UNL     1     -44.451 -45.515   9.074  1.00  0.00     0.070 A 
HETATM   21  S   UNL     1     -42.815 -45.790   9.519  1.00  0.00    -0.064 SA
ENDBRANCH   4  16
TORSDOF 4
ENDMDL
MODEL 2
REMARK VINA RESULT:      -5.5      3.057      4.109
REMARK  4 active torsions:
REMARK  status: ('A' for Active; 'I' for Inactive)
REMARK    1  A    between atoms: N_2  and  C_4 
REMARK    2  A    between atoms: C_4  and  C_5 
REMARK    3  A    between atoms: C_5  and  N_6 
REMARK       I    between atoms: N_6  and  C_7 
REMARK       I    between atoms: C_7  and  N_9 
REMARK    4  A    between atoms: N_9  and  C_10 
ROOT
HETATM    1  N   UNL     1     -41.057 -51.253  11.280  1.00  0.00    -0.340 N 
HETATM    2  C   UNL     1     -40.766 -49.920  11.493  1.00  0.00     0.322 C 
HETATM    3  O   UNL     1     -40.084 -49.558  12.449  1.00  0.00    -0.247 OA
HETATM    4  N   UNL     1     -41.313 -49.115  10.531  1.00  0.00    -0.289 N 
HETATM    5  H   UNL     1     -41.847 -51.499  10.704  1.00  0.00     0.164 HD
HETATM    6  H   UNL     1     -41.854 -49.510   9.784  1.00  0.00     0.172 HD
ENDROOT
BRANCH   1   7
HETATM    7  C   UNL     1     -40.664 -52.261  12.257  1.00  0.00     0.166 C 
BRANCH   7   8
HETATM    8  C   UNL     1     -41.824 -52.668  13.248  1.00  0.00     0.174 C 
HETATM    9  C   UNL     1     -41.705 -54.196  13.504  1.00  0.00     0.043 C 
HETATM   10  C   UNL     1     -40.829 -54.380  14.748  1.00  0.00     0.003 C 
HETATM   11  C   UNL     1     -40.460 -52.990  15.245  1.00  0.00     0.003 C 
HETATM   12  C   UNL     1     -41.531 -52.083  14.657  1.00  0.00     0.043 C 
BRANCH   8  13
HETATM   13  N   UNL     1     -43.147 -52.228  12.688  1.00  0.00     0.091 N 
HETATM   14  C   UNL     1     -44.071 -53.341  12.433  1.00  0.00     0.310 C 
HETATM   15  C   UNL     1     -43.847 -51.232  13.515  1.00  0.00     0.310 C 
ENDBRANCH   8  13
ENDBRANCH   7   8
ENDBRANCH   1   7
BRANCH   4  16
HETATM   16  C   UNL     1     -41.211 -47.752  10.588  1.00  0.00     0.152 A 
HETATM   17  N   UNL     1     -40.143 -47.000  10.662  1.00  0.00    -0.346 N 
HETATM   18  C   UNL     1     -40.515 -45.676  10.772  1.00  0.00     0.097 A 
ATOM     19  HN  UNL     1     -39.182 -47.341  10.641  1.00  0.00     0.167 HD
HETATM   20  C   UNL     1     -41.873 -45.443  10.780  1.00  0.00     0.070 A 
HETATM   21  S   UNL     1     -42.711 -46.931  10.597  1.00  0.00    -0.064 SA
ENDBRANCH   4  16
TORSDOF 4
ENDMDL
MODEL 3
REMARK VINA RESULT:      -5.5      4.429      6.393
REMARK  4 active torsions:
REMARK  status: ('A' for Active; 'I' for Inactive)
REMARK    1  A    between atoms: N_2  and  C_4 
REMARK    2  A    between atoms: C_4  and  C_5 
REMARK    3  A    between atoms: C_5  and  N_6 
REMARK       I    between atoms: N_6  and  C_7 
REMARK       I    between atoms: C_7  and  N_9 
REMARK    4  A    between atoms: N_9  and  C_10 
ROOT
HETATM    1  N   UNL     1     -42.507 -52.236  11.673  1.00  0.00    -0.340 N 
HETATM    2  C   UNL     1     -41.192 -51.923  11.958  1.00  0.00     0.322 C 
HETATM    3  O   UNL     1     -40.480 -52.682  12.611  1.00  0.00    -0.247 OA
HETATM    4  N   UNL     1     -40.826 -50.716  11.427  1.00  0.00    -0.289 N 
HETATM    5  H   UNL     1     -43.146 -51.497  11.425  1.00  0.00     0.164 HD
HETATM    6  H   UNL     1     -41.484 -50.169  10.903  1.00  0.00     0.172 HD
ENDROOT
BRANCH   1   7
HETATM    7  C   UNL     1     -43.125 -53.425  12.247  1.00  0.00     0.166 C 
BRANCH   7   8
HETATM    8  C   UNL     1     -44.146 -53.109  13.410  1.00  0.00     0.174 C 
HETATM    9  C   UNL     1     -45.303 -54.141  13.309  1.00  0.00     0.043 C 
HETATM   10  C   UNL     1     -44.933 -55.327  14.206  1.00  0.00     0.003 C 
HETATM   11  C   UNL     1     -43.597 -54.995  14.857  1.00  0.00     0.003 C 
HETATM   12  C   UNL     1     -43.505 -53.479  14.776  1.00  0.00     0.043 C 
BRANCH   8  13
HETATM   13  N   UNL     1     -44.578 -51.672  13.328  1.00  0.00     0.091 N 
HETATM   14  C   UNL     1     -46.017 -51.510  13.079  1.00  0.00     0.310 C 
HETATM   15  C   UNL     1     -44.225 -50.872  14.512  1.00  0.00     0.310 C 
ENDBRANCH   8  13
ENDBRANCH   7   8
ENDBRANCH   1   7
BRANCH   4  16
HETATM   16  C   UNL     1     -39.588 -50.177  11.650  1.00  0.00     0.152 A 
HETATM   17  N   UNL     1     -38.473 -50.351  10.988  1.00  0.00    -0.346 N 
HETATM   18  C   UNL     1     -37.451 -49.666  11.613  1.00  0.00     0.097 A 
ATOM     19  HN  UNL     1     -38.375 -50.909  10.140  1.00  0.00     0.167 HD
HETATM   20  C   UNL     1     -37.811 -48.976  12.749  1.00  0.00     0.070 A 
HETATM   21  S   UNL     1     -39.498 -49.156  13.019  1.00  0.00    -0.064 SA
ENDBRANCH   4  16
TORSDOF 4
ENDMDL
MODEL 4
REMARK VINA RESULT:      -5.4      4.331      6.452
REMARK  4 active torsions:
REMARK  status: ('A' for Active; 'I' for Inactive)
REMARK    1  A    between atoms: N_2  and  C_4 
REMARK    2  A    between atoms: C_4  and  C_5 
REMARK    3  A    between atoms: C_5  and  N_6 
REMARK       I    between atoms: N_6  and  C_7 
REMARK       I    between atoms: C_7  and  N_9 
REMARK    4  A    between atoms: N_9  and  C_10 
ROOT
HETATM    1  N   UNL     1     -42.744 -51.884  11.989  1.00  0.00    -0.340 N 
HETATM    2  C   UNL     1     -41.372 -51.744  12.035  1.00  0.00     0.322 C 
HETATM    3  O   UNL     1     -40.642 -52.684  12.343  1.00  0.00    -0.247 OA
HETATM    4  N   UNL     1     -40.973 -50.479  11.697  1.00  0.00    -0.289 N 
HETATM    5  H   UNL     1     -43.325 -51.061  12.046  1.00  0.00     0.164 HD
HETATM    6  H   UNL     1     -41.649 -49.779  11.456  1.00  0.00     0.172 HD
ENDROOT
BRANCH   1   7
HETATM    7  C   UNL     1     -43.378 -53.122  12.427  1.00  0.00     0.166 C 
BRANCH   7   8
HETATM    8  C   UNL     1     -44.204 -52.971  13.765  1.00  0.00     0.174 C 
HETATM    9  C   UNL     1     -44.582 -51.471  13.913  1.00  0.00     0.043 C 
HETATM   10  C   UNL     1     -45.956 -51.284  13.261  1.00  0.00     0.003 C 
HETATM   11  C   UNL     1     -46.405 -52.650  12.762  1.00  0.00     0.003 C 
HETATM   12  C   UNL     1     -45.596 -53.637  13.590  1.00  0.00     0.043 C 
BRANCH   8  13
HETATM   13  N   UNL     1     -43.417 -53.536  14.913  1.00  0.00     0.091 N 
HETATM   14  C   UNL     1     -42.584 -54.687  14.539  1.00  0.00     0.310 C 
HETATM   15  C   UNL     1     -42.560 -52.552  15.593  1.00  0.00     0.310 C 
ENDBRANCH   8  13
ENDBRANCH   7   8
ENDBRANCH   1   7
BRANCH   4  16
HETATM   16  C   UNL     1     -39.658 -50.101  11.747  1.00  0.00     0.152 A 
HETATM   17  N   UNL     1     -38.746 -50.138  10.812  1.00  0.00    -0.346 N 
HETATM   18  C   UNL     1     -37.535 -49.725  11.328  1.00  0.00     0.097 A 
ATOM     19  HN  UNL     1     -38.905 -50.428   9.847  1.00  0.00     0.167 HD
HETATM   20  C   UNL     1     -37.550 -49.377  12.661  1.00  0.00     0.070 A 
HETATM   21  S   UNL     1     -39.146 -49.530  13.276  1.00  0.00    -0.064 SA
ENDBRANCH   4  16
TORSDOF 4
ENDMDL
MODEL 5
REMARK VINA RESULT:      -5.3      3.909      5.030
REMARK  4 active torsions:
REMARK  status: ('A' for Active; 'I' for Inactive)
REMARK    1  A    between atoms: N_2  and  C_4 
REMARK    2  A    between atoms: C_4  and  C_5 
REMARK    3  A    between atoms: C_5  and  N_6 
REMARK       I    between atoms: N_6  and  C_7 
REMARK       I    between atoms: C_7  and  N_9 
REMARK    4  A    between atoms: N_9  and  C_10 
ROOT
HETATM    1  N   UNL     1     -40.825 -51.539  11.493  1.00  0.00    -0.340 N 
HETATM    2  C   UNL     1     -41.979 -51.881  12.169  1.00  0.00     0.322 C 
HETATM    3  O   UNL     1     -42.730 -51.024  12.630  1.00  0.00    -0.247 OA
HETATM    4  N   UNL     1     -42.151 -53.237  12.237  1.00  0.00    -0.289 N 
HETATM    5  H   UNL     1     -40.086 -52.219  11.405  1.00  0.00     0.164 HD
HETATM    6  H   UNL     1     -41.479 -53.857  11.824  1.00  0.00     0.172 HD
ENDROOT
BRANCH   1   7
HETATM    7  C   UNL     1     -40.399 -50.147  11.413  1.00  0.00     0.166 C 
BRANCH   7   8
HETATM    8  C   UNL     1     -39.398 -49.724  12.559  1.00  0.00     0.174 C 
HETATM    9  C   UNL     1     -38.615 -50.996  12.988  1.00  0.00     0.043 C 
HETATM   10  C   UNL     1     -37.336 -51.047  12.145  1.00  0.00     0.003 C 
HETATM   11  C   UNL     1     -37.339 -49.813  11.254  1.00  0.00     0.003 C 
HETATM   12  C   UNL     1     -38.270 -48.840  11.961  1.00  0.00     0.043 C 
BRANCH   8  13
HETATM   13  N   UNL     1     -40.154 -49.050  13.669  1.00  0.00     0.091 N 
HETATM   14  C   UNL     1     -40.036 -49.742  14.959  1.00  0.00     0.310 C 
HETATM   15  C   UNL     1     -39.790 -47.639  13.871  1.00  0.00     0.310 C 
ENDBRANCH   8  13
ENDBRANCH   7   8
ENDBRANCH   1   7
BRANCH   4  16
HETATM   16  C   UNL     1     -43.193 -53.797  12.926  1.00  0.00     0.152 A 
HETATM   17  N   UNL     1     -44.459 -53.868  12.608  1.00  0.00    -0.346 N 
HETATM   18  C   UNL     1     -45.164 -54.459  13.636  1.00  0.00     0.097 A 
ATOM     19  HN  UNL     1     -44.864 -53.536  11.732  1.00  0.00     0.167 HD
HETATM   20  C   UNL     1     -44.412 -54.831  14.729  1.00  0.00     0.070 A 
HETATM   21  S   UNL     1     -42.758 -54.469  14.438  1.00  0.00    -0.064 SA
ENDBRANCH   4  16
TORSDOF 4
ENDMDL
MODEL 6
REMARK VINA RESULT:      -5.1      3.320      4.587
REMARK  4 active torsions:
REMARK  status: ('A' for Active; 'I' for Inactive)
REMARK    1  A    between atoms: N_2  and  C_4 
REMARK    2  A    between atoms: C_4  and  C_5 
REMARK    3  A    between atoms: C_5  and  N_6 
REMARK       I    between atoms: N_6  and  C_7 
REMARK       I    between atoms: C_7  and  N_9 
REMARK    4  A    between atoms: N_9  and  C_10 
ROOT
HETATM    1  N   UNL     1     -42.020 -51.321  11.791  1.00  0.00    -0.340 N 
HETATM    2  C   UNL     1     -41.288 -50.151  11.786  1.00  0.00     0.322 C 
HETATM    3  O   UNL     1     -40.289 -50.018  12.488  1.00  0.00    -0.247 OA
HETATM    4  N   UNL     1     -41.811 -49.222  10.927  1.00  0.00    -0.289 N 
HETATM    5  H   UNL     1     -42.976 -51.306  11.470  1.00  0.00     0.164 HD
HETATM    6  H   UNL     1     -42.634 -49.429  10.392  1.00  0.00     0.172 HD
ENDROOT
BRANCH   1   7
HETATM    7  C   UNL     1     -41.697 -52.393  12.725  1.00  0.00     0.166 C 
BRANCH   7   8
HETATM    8  C   UNL     1     -42.748 -52.555  13.892  1.00  0.00     0.174 C 
HETATM    9  C   UNL     1     -44.062 -51.861  13.436  1.00  0.00     0.043 C 
HETATM   10  C   UNL     1     -44.927 -52.929  12.758  1.00  0.00     0.003 C 
HETATM   11  C   UNL     1     -44.160 -54.241  12.837  1.00  0.00     0.003 C 
HETATM   12  C   UNL     1     -43.188 -54.041  13.990  1.00  0.00     0.043 C 
BRANCH   8  13
HETATM   13  N   UNL     1     -42.170 -52.022  15.172  1.00  0.00     0.091 N 
HETATM   14  C   UNL     1     -40.712 -52.184  15.265  1.00  0.00     0.310 C 
HETATM   15  C   UNL     1     -42.492 -50.610  15.434  1.00  0.00     0.310 C 
ENDBRANCH   8  13
ENDBRANCH   7   8
ENDBRANCH   1   7
BRANCH   4  16
HETATM   16  C   UNL     1     -41.285 -47.964  10.820  1.00  0.00     0.152 A 
HETATM   17  N   UNL     1     -40.082 -47.537  11.106  1.00  0.00    -0.346 N 
HETATM   18  C   UNL     1     -40.014 -46.173  10.911  1.00  0.00     0.097 A 
ATOM     19  HN  UNL     1     -39.311 -48.125  11.425  1.00  0.00     0.167 HD
HETATM   20  C   UNL     1     -41.179 -45.581  10.475  1.00  0.00     0.070 A 
HETATM   21  S   UNL     1     -42.387 -46.782  10.259  1.00  0.00    -0.064 SA
ENDBRANCH   4  16
TORSDOF 4
ENDMDL
MODEL 7
REMARK VINA RESULT:      -5.1      4.340      5.564
REMARK  4 active torsions:
REMARK  status: ('A' for Active; 'I' for Inactive)
REMARK    1  A    between atoms: N_2  and  C_4 
REMARK    2  A    between atoms: C_4  and  C_5 
REMARK    3  A    between atoms: C_5  and  N_6 
REMARK       I    between atoms: N_6  and  C_7 
REMARK       I    between atoms: C_7  and  N_9 
REMARK    4  A    between atoms: N_9  and  C_10 
ROOT
HETATM    1  N   UNL     1     -42.999 -51.048  12.505  1.00  0.00    -0.340 N 
HETATM    2  C   UNL     1     -42.144 -49.966  12.430  1.00  0.00     0.322 C 
HETATM    3  O   UNL     1     -41.328 -49.732  13.319  1.00  0.00    -0.247 OA
HETATM    4  N   UNL     1     -42.328 -49.244  11.282  1.00  0.00    -0.289 N 
HETATM    5  H   UNL     1     -43.843 -51.047  11.954  1.00  0.00     0.164 HD
HETATM    6  H   UNL     1     -43.023 -49.521  10.612  1.00  0.00     0.172 HD
ENDROOT
BRANCH   1   7
HETATM    7  C   UNL     1     -43.042 -51.875  13.704  1.00  0.00     0.166 C 
BRANCH   7   8
HETATM    8  C   UNL     1     -44.431 -52.591  13.931  1.00  0.00     0.174 C 
HETATM    9  C   UNL     1     -44.341 -54.001  13.284  1.00  0.00     0.043 C 
HETATM   10  C   UNL     1     -43.874 -54.971  14.374  1.00  0.00     0.003 C 
HETATM   11  C   UNL     1     -43.720 -54.163  15.655  1.00  0.00     0.003 C 
HETATM   12  C   UNL     1     -44.596 -52.939  15.435  1.00  0.00     0.043 C 
BRANCH   8  13
HETATM   13  N   UNL     1     -45.538 -51.727  13.398  1.00  0.00     0.091 N 
HETATM   14  C   UNL     1     -46.258 -52.331  12.268  1.00  0.00     0.310 C 
HETATM   15  C   UNL     1     -46.529 -51.329  14.411  1.00  0.00     0.310 C 
ENDBRANCH   8  13
ENDBRANCH   7   8
ENDBRANCH   1   7
BRANCH   4  16
HETATM   16  C   UNL     1     -41.637 -48.089  11.038  1.00  0.00     0.152 A 
HETATM   17  N   UNL     1     -40.357 -47.845  11.155  1.00  0.00    -0.346 N 
HETATM   18  C   UNL     1     -40.111 -46.518  10.871  1.00  0.00     0.097 A 
ATOM     19  HN  UNL     1     -39.650 -48.532  11.416  1.00  0.00     0.167 HD
HETATM   20  C   UNL     1     -41.218 -45.769  10.541  1.00  0.00     0.070 A 
HETATM   21  S   UNL     1     -42.611 -46.774  10.540  1.00  0.00    -0.064 SA
ENDBRANCH   4  16
TORSDOF 4
ENDMDL
MODEL 8
REMARK VINA RESULT:      -5.1      4.920      6.110
REMARK  4 active torsions:
REMARK  status: ('A' for Active; 'I' for Inactive)
REMARK    1  A    between atoms: N_2  and  C_4 
REMARK    2  A    between atoms: C_4  and  C_5 
REMARK    3  A    between atoms: C_5  and  N_6 
REMARK       I    between atoms: N_6  and  C_7 
REMARK       I    between atoms: C_7  and  N_9 
REMARK    4  A    between atoms: N_9  and  C_10 
ROOT
HETATM    1  N   UNL     1     -43.380 -51.271  13.202  1.00  0.00    -0.340 N 
HETATM    2  C   UNL     1     -43.172 -49.915  13.048  1.00  0.00     0.322 C 
HETATM    3  O   UNL     1     -43.288 -49.137  13.992  1.00  0.00    -0.247 OA
HETATM    4  N   UNL     1     -42.830 -49.591  11.763  1.00  0.00    -0.289 N 
HETATM    5  H   UNL     1     -43.588 -51.833  12.391  1.00  0.00     0.164 HD
HETATM    6  H   UNL     1     -42.757 -50.303  11.060  1.00  0.00     0.172 HD
ENDROOT
BRANCH   1   7
HETATM    7  C   UNL     1     -43.866 -51.806  14.468  1.00  0.00     0.166 C 
BRANCH   7   8
HETATM    8  C   UNL     1     -45.034 -52.856  14.305  1.00  0.00     0.174 C 
HETATM    9  C   UNL     1     -45.825 -52.885  15.643  1.00  0.00     0.043 C 
HETATM   10  C   UNL     1     -46.968 -51.872  15.517  1.00  0.00     0.003 C 
HETATM   11  C   UNL     1     -46.881 -51.274  14.120  1.00  0.00     0.003 C 
HETATM   12  C   UNL     1     -46.096 -52.300  13.318  1.00  0.00     0.043 C 
BRANCH   8  13
HETATM   13  N   UNL     1     -44.468 -54.181  13.882  1.00  0.00     0.091 N 
HETATM   14  C   UNL     1     -43.375 -54.651  14.744  1.00  0.00     0.310 C 
HETATM   15  C   UNL     1     -45.468 -55.256  13.786  1.00  0.00     0.310 C 
ENDBRANCH   8  13
ENDBRANCH   7   8
ENDBRANCH   1   7
BRANCH   4  16
HETATM   16  C   UNL     1     -42.650 -48.292  11.371  1.00  0.00     0.152 A 
HETATM   17  N   UNL     1     -43.535 -47.347  11.192  1.00  0.00    -0.346 N 
HETATM   18  C   UNL     1     -42.911 -46.209  10.723  1.00  0.00     0.097 A 
ATOM     19  HN  UNL     1     -44.535 -47.436  11.373  1.00  0.00     0.167 HD
HETATM   20  C   UNL     1     -41.548 -46.313  10.551  1.00  0.00     0.070 A 
HETATM   21  S   UNL     1     -41.025 -47.874  11.038  1.00  0.00    -0.064 SA
ENDBRANCH   4  16
TORSDOF 4
ENDMDL
MODEL 9
REMARK VINA RESULT:      -5.0      2.386      3.279
REMARK  4 active torsions:
REMARK  status: ('A' for Active; 'I' for Inactive)
REMARK    1  A    between atoms: N_2  and  C_4 
REMARK    2  A    between atoms: C_4  and  C_5 
REMARK    3  A    between atoms: C_5  and  N_6 
REMARK       I    between atoms: N_6  and  C_7 
REMARK       I    between atoms: C_7  and  N_9 
REMARK    4  A    between atoms: N_9  and  C_10 
ROOT
HETATM    1  N   UNL     1     -40.803 -50.956  11.639  1.00  0.00    -0.340 N 
HETATM    2  C   UNL     1     -40.710 -49.608  11.354  1.00  0.00     0.322 C 
HETATM    3  O   UNL     1     -39.713 -48.957  11.656  1.00  0.00    -0.247 OA
HETATM    4  N   UNL     1     -41.827 -49.140  10.716  1.00  0.00    -0.289 N 
HETATM    5  H   UNL     1     -41.712 -51.390  11.676  1.00  0.00     0.164 HD
HETATM    6  H   UNL     1     -42.591 -49.756  10.510  1.00  0.00     0.172 HD
ENDROOT
BRANCH   1   7
HETATM    7  C   UNL     1     -39.767 -51.620  12.420  1.00  0.00     0.166 C 
BRANCH   7   8
HETATM    8  C   UNL     1     -40.280 -52.185  13.802  1.00  0.00     0.174 C 
HETATM    9  C   UNL     1     -41.833 -52.165  13.767  1.00  0.00     0.043 C 
HETATM   10  C   UNL     1     -42.294 -53.531  13.249  1.00  0.00     0.003 C 
HETATM   11  C   UNL     1     -41.042 -54.363  13.011  1.00  0.00     0.003 C 
HETATM   12  C   UNL     1     -39.982 -53.708  13.882  1.00  0.00     0.043 C 
BRANCH   8  13
HETATM   13  N   UNL     1     -39.668 -51.402  14.929  1.00  0.00     0.091 N 
HETATM   14  C   UNL     1     -39.338 -52.225  16.100  1.00  0.00     0.310 C 
HETATM   15  C   UNL     1     -38.465 -50.645  14.548  1.00  0.00     0.310 C 
ENDBRANCH   8  13
ENDBRANCH   7   8
ENDBRANCH   1   7
BRANCH   4  16
HETATM   16  C   UNL     1     -41.977 -47.816  10.406  1.00  0.00     0.152 A 
HETATM   17  N   UNL     1     -41.079 -46.868  10.348  1.00  0.00    -0.346 N 
HETATM   18  C   UNL     1     -41.692 -45.665  10.065  1.00  0.00     0.097 A 
ATOM     19  HN  UNL     1     -40.077 -46.998  10.491  1.00  0.00     0.167 HD
HETATM   20  C   UNL     1     -43.060 -45.721   9.911  1.00  0.00     0.070 A 
HETATM   21  S   UNL     1     -43.590 -47.346  10.082  1.00  0.00    -0.064 SA
ENDBRANCH   4  16
TORSDOF 4
ENDMDL
