MODEL 1
REMARK VINA RESULT:      -6.8      0.000      0.000
REMARK  3 active torsions:
REMARK  status: ('A' for Active; 'I' for Inactive)
REMARK    1  A    between atoms: C_2  and  C_3 
REMARK       I    between atoms: C_2  and  N_13 
REMARK    2  A    between atoms: C_3  and  N_4 
REMARK    3  A    between atoms: N_13  and  C_14 
ROOT
HETATM    1  N   UNL     1     -41.473 -48.977  11.420  1.00  0.00    -0.277 N 
HETATM    2  C   UNL     1     -40.407 -48.131  11.344  1.00  0.00     0.203 A 
HETATM    3  N   UNL     1     -40.708 -47.114  10.570  1.00  0.00    -0.327 N 
ATOM      4  HN  UNL     1     -40.125 -46.318  10.312  1.00  0.00     0.169 HD
HETATM    5  C   UNL     1     -41.999 -47.384  10.193  1.00  0.00     0.204 A 
HETATM    6  C   UNL     1     -42.776 -46.490   9.382  1.00  0.00     0.138 C 
HETATM    7  N   UNL     1     -43.411 -45.763   8.734  1.00  0.00    -0.188 NA
HETATM    8  N   UNL     1     -42.502 -48.534  10.668  1.00  0.00    -0.273 N 
ATOM      9  HN  UNL     1     -43.415 -48.958  10.503  1.00  0.00     0.189 HD
ENDROOT
BRANCH   1  10
HETATM   10  C   UNL     1     -41.592 -50.189  12.191  1.00  0.00     0.252 C 
BRANCH  10  11
HETATM   11  C   UNL     1     -42.974 -50.289  12.797  1.00  0.00     0.238 C 
HETATM   12  O   UNL     1     -43.531 -49.310  13.287  1.00  0.00    -0.272 OA
HETATM   13  N   UNL     1     -43.536 -51.547  12.771  1.00  0.00    -0.347 N 
HETATM   14  H   UNL     1     -43.194 -52.200  12.067  1.00  0.00     0.163 HD
BRANCH  13  15
HETATM   15  C   UNL     1     -44.932 -51.792  13.177  1.00  0.00     0.170 C 
HETATM   16  C   UNL     1     -45.232 -51.231  14.569  1.00  0.00     0.034 C 
HETATM   17  C   UNL     1     -46.712 -51.349  14.922  1.00  0.00     0.004 C 
HETATM   18  C   UNL     1     -47.067 -52.665  15.598  1.00  0.00     0.015 C 
HETATM   19  C   UNL     1     -46.341 -53.888  15.063  1.00  0.00     0.095 C 
HETATM   20  N   UNL     1     -46.205 -53.940  13.622  1.00  0.00    -0.261 NA
HETATM   21  C   UNL     1     -45.167 -53.309  12.987  1.00  0.00     0.220 C 
HETATM   22  H   UNL     1     -46.274 -54.885  13.257  1.00  0.00     0.130 HD
HETATM   23  O   UNL     1     -44.502 -53.955  12.170  1.00  0.00    -0.278 OA
ENDBRANCH  13  15
ENDBRANCH  10  11
ENDBRANCH   1  10
TORSDOF 3
ENDMDL
MODEL 2
REMARK VINA RESULT:      -6.3      5.340      8.561
REMARK  3 active torsions:
REMARK  status: ('A' for Active; 'I' for Inactive)
REMARK    1  A    between atoms: C_2  and  C_3 
REMARK       I    between atoms: C_2  and  N_13 
REMARK    2  A    between atoms: C_3  and  N_4 
REMARK    3  A    between atoms: N_13  and  C_14 
ROOT
HETATM    1  N   UNL     1     -40.957 -47.049  10.694  1.00  0.00    -0.277 N 
HETATM    2  C   UNL     1     -41.292 -48.275  11.185  1.00  0.00     0.203 A 
HETATM    3  N   UNL     1     -42.466 -48.630  10.715  1.00  0.00    -0.327 N 
ATOM      4  HN  UNL     1     -42.991 -49.485  10.898  1.00  0.00     0.169 HD
HETATM    5  C   UNL     1     -42.814 -47.568   9.920  1.00  0.00     0.204 A 
HETATM    6  C   UNL     1     -44.016 -47.546   9.136  1.00  0.00     0.138 C 
HETATM    7  N   UNL     1     -44.984 -47.529   8.491  1.00  0.00    -0.188 NA
HETATM    8  N   UNL     1     -41.931 -46.559   9.899  1.00  0.00    -0.273 N 
ATOM      9  HN  UNL     1     -41.982 -45.663   9.413  1.00  0.00     0.189 HD
ENDROOT
BRANCH   1  10
HETATM   10  C   UNL     1     -39.742 -46.305  10.915  1.00  0.00     0.252 C 
BRANCH  10  11
HETATM   11  C   UNL     1     -39.942 -44.855  10.538  1.00  0.00     0.238 C 
HETATM   12  O   UNL     1     -39.639 -44.434   9.424  1.00  0.00    -0.272 OA
HETATM   13  N   UNL     1     -40.463 -44.056  11.533  1.00  0.00    -0.347 N 
HETATM   14  H   UNL     1     -40.999 -44.514  12.270  1.00  0.00     0.163 HD
BRANCH  13  15
HETATM   15  C   UNL     1     -40.864 -42.659  11.290  1.00  0.00     0.170 C 
HETATM   16  C   UNL     1     -40.363 -41.718  12.388  1.00  0.00     0.034 C 
HETATM   17  C   UNL     1     -40.646 -40.256  12.055  1.00  0.00     0.004 C 
HETATM   18  C   UNL     1     -42.003 -39.777  12.547  1.00  0.00     0.015 C 
HETATM   19  C   UNL     1     -43.131 -40.788  12.426  1.00  0.00     0.095 C 
HETATM   20  N   UNL     1     -43.144 -41.552  11.195  1.00  0.00    -0.261 NA
HETATM   21  C   UNL     1     -42.394 -42.691  11.063  1.00  0.00     0.220 C 
HETATM   22  H   UNL     1     -44.084 -41.749  10.867  1.00  0.00     0.130 HD
HETATM   23  O   UNL     1     -42.950 -43.712  10.644  1.00  0.00    -0.278 OA
ENDBRANCH  13  15
ENDBRANCH  10  11
ENDBRANCH   1  10
TORSDOF 3
ENDMDL
MODEL 3
REMARK VINA RESULT:      -6.3      3.089      3.886
REMARK  3 active torsions:
REMARK  status: ('A' for Active; 'I' for Inactive)
REMARK    1  A    between atoms: C_2  and  C_3 
REMARK       I    between atoms: C_2  and  N_13 
REMARK    2  A    between atoms: C_3  and  N_4 
REMARK    3  A    between atoms: N_13  and  C_14 
ROOT
HETATM    1  N   UNL     1     -40.216 -53.075  13.091  1.00  0.00    -0.277 N 
HETATM    2  C   UNL     1     -39.158 -52.992  13.947  1.00  0.00     0.203 A 
HETATM    3  N   UNL     1     -38.536 -51.849  13.765  1.00  0.00    -0.327 N 
ATOM      4  HN  UNL     1     -37.710 -51.493  14.246  1.00  0.00     0.169 HD
HETATM    5  C   UNL     1     -39.269 -51.253  12.772  1.00  0.00     0.204 A 
HETATM    6  C   UNL     1     -38.990 -49.931  12.286  1.00  0.00     0.138 C 
HETATM    7  N   UNL     1     -38.773 -48.856  11.898  1.00  0.00    -0.188 NA
HETATM    8  N   UNL     1     -40.295 -51.981  12.305  1.00  0.00    -0.273 N 
ATOM      9  HN  UNL     1     -40.955 -51.766  11.557  1.00  0.00     0.189 HD
ENDROOT
BRANCH   1  10
HETATM   10  C   UNL     1     -41.189 -54.132  12.981  1.00  0.00     0.252 C 
BRANCH  10  11
HETATM   11  C   UNL     1     -42.546 -53.642  13.430  1.00  0.00     0.238 C 
HETATM   12  O   UNL     1     -42.682 -52.981  14.457  1.00  0.00    -0.272 OA
HETATM   13  N   UNL     1     -43.600 -54.006  12.620  1.00  0.00    -0.347 N 
HETATM   14  H   UNL     1     -43.388 -54.232  11.648  1.00  0.00     0.163 HD
BRANCH  13  15
HETATM   15  C   UNL     1     -44.964 -53.487  12.824  1.00  0.00     0.170 C 
HETATM   16  C   UNL     1     -44.966 -51.992  13.153  1.00  0.00     0.034 C 
HETATM   17  C   UNL     1     -46.383 -51.426  13.211  1.00  0.00     0.004 C 
HETATM   18  C   UNL     1     -47.015 -51.523  14.591  1.00  0.00     0.015 C 
HETATM   19  C   UNL     1     -46.700 -52.796  15.361  1.00  0.00     0.095 C 
HETATM   20  N   UNL     1     -46.722 -54.012  14.575  1.00  0.00    -0.261 NA
HETATM   21  C   UNL     1     -45.618 -54.418  13.872  1.00  0.00     0.220 C 
HETATM   22  H   UNL     1     -47.079 -54.807  15.095  1.00  0.00     0.130 HD
HETATM   23  O   UNL     1     -45.234 -55.584  14.010  1.00  0.00    -0.278 OA
ENDBRANCH  13  15
ENDBRANCH  10  11
ENDBRANCH   1  10
TORSDOF 3
ENDMDL
MODEL 4
REMARK VINA RESULT:      -6.2      3.789      4.867
REMARK  3 active torsions:
REMARK  status: ('A' for Active; 'I' for Inactive)
REMARK    1  A    between atoms: C_2  and  C_3 
REMARK       I    between atoms: C_2  and  N_13 
REMARK    2  A    between atoms: C_3  and  N_4 
REMARK    3  A    between atoms: N_13  and  C_14 
ROOT
HETATM    1  N   UNL     1     -42.832 -47.127  10.840  1.00  0.00    -0.277 N 
HETATM    2  C   UNL     1     -42.906 -45.938  10.179  1.00  0.00     0.203 A 
HETATM    3  N   UNL     1     -43.977 -45.925   9.418  1.00  0.00    -0.327 N 
ATOM      4  HN  UNL     1     -44.307 -45.184   8.800  1.00  0.00     0.169 HD
HETATM    5  C   UNL     1     -44.541 -47.151   9.658  1.00  0.00     0.204 A 
HETATM    6  C   UNL     1     -45.791 -47.558   9.081  1.00  0.00     0.138 C 
HETATM    7  N   UNL     1     -46.809 -47.887   8.624  1.00  0.00    -0.188 NA
HETATM    8  N   UNL     1     -43.858 -47.938  10.504  1.00  0.00    -0.273 N 
ATOM      9  HN  UNL     1     -44.059 -48.890  10.809  1.00  0.00     0.189 HD
ENDROOT
BRANCH   1  10
HETATM   10  C   UNL     1     -41.848 -47.547  11.806  1.00  0.00     0.252 C 
BRANCH  10  11
HETATM   11  C   UNL     1     -41.338 -48.929  11.466  1.00  0.00     0.238 C 
HETATM   12  O   UNL     1     -41.083 -49.251  10.307  1.00  0.00    -0.272 OA
HETATM   13  N   UNL     1     -41.204 -49.786  12.536  1.00  0.00    -0.347 N 
HETATM   14  H   UNL     1     -41.093 -49.369  13.460  1.00  0.00     0.163 HD
BRANCH  13  15
HETATM   15  C   UNL     1     -40.577 -51.113  12.407  1.00  0.00     0.170 C 
HETATM   16  C   UNL     1     -41.488 -52.231  12.919  1.00  0.00     0.034 C 
HETATM   17  C   UNL     1     -40.901 -53.613  12.641  1.00  0.00     0.004 C 
HETATM   18  C   UNL     1     -39.997 -54.118  13.756  1.00  0.00     0.015 C 
HETATM   19  C   UNL     1     -39.116 -53.063  14.406  1.00  0.00     0.095 C 
HETATM   20  N   UNL     1     -38.514 -52.116  13.491  1.00  0.00    -0.261 NA
HETATM   21  C   UNL     1     -39.193 -50.995  13.088  1.00  0.00     0.220 C 
HETATM   22  H   UNL     1     -37.580 -51.838  13.774  1.00  0.00     0.130 HD
HETATM   23  O   UNL     1     -38.620 -49.903  13.173  1.00  0.00    -0.278 OA
ENDBRANCH  13  15
ENDBRANCH  10  11
ENDBRANCH   1  10
TORSDOF 3
ENDMDL
MODEL 5
REMARK VINA RESULT:      -6.2      4.964      5.952
REMARK  3 active torsions:
REMARK  status: ('A' for Active; 'I' for Inactive)
REMARK    1  A    between atoms: C_2  and  C_3 
REMARK       I    between atoms: C_2  and  N_13 
REMARK    2  A    between atoms: C_3  and  N_4 
REMARK    3  A    between atoms: N_13  and  C_14 
ROOT
HETATM    1  N   UNL     1     -42.899 -46.142   9.617  1.00  0.00    -0.277 N 
HETATM    2  C   UNL     1     -43.791 -45.123   9.464  1.00  0.00     0.203 A 
HETATM    3  N   UNL     1     -44.936 -45.603   9.034  1.00  0.00    -0.327 N 
ATOM      4  HN  UNL     1     -45.795 -45.098   8.820  1.00  0.00     0.169 HD
HETATM    5  C   UNL     1     -44.691 -46.950   8.943  1.00  0.00     0.204 A 
HETATM    6  C   UNL     1     -45.701 -47.900   8.570  1.00  0.00     0.138 C 
HETATM    7  N   UNL     1     -46.519 -48.673   8.279  1.00  0.00    -0.188 NA
HETATM    8  N   UNL     1     -43.443 -47.325   9.263  1.00  0.00    -0.273 N 
ATOM      9  HN  UNL     1     -43.021 -48.254   9.244  1.00  0.00     0.189 HD
ENDROOT
BRANCH   1  10
HETATM   10  C   UNL     1     -41.545 -46.072  10.106  1.00  0.00     0.252 C 
BRANCH  10  11
HETATM   11  C   UNL     1     -41.364 -47.007  11.279  1.00  0.00     0.238 C 
HETATM   12  O   UNL     1     -42.284 -47.244  12.059  1.00  0.00    -0.272 OA
HETATM   13  N   UNL     1     -40.103 -47.548  11.410  1.00  0.00    -0.347 N 
HETATM   14  H   UNL     1     -39.523 -47.594  10.573  1.00  0.00     0.163 HD
BRANCH  13  15
HETATM   15  C   UNL     1     -39.795 -48.594  12.401  1.00  0.00     0.170 C 
HETATM   16  C   UNL     1     -38.572 -48.240  13.250  1.00  0.00     0.034 C 
HETATM   17  C   UNL     1     -38.350 -49.248  14.374  1.00  0.00     0.004 C 
HETATM   18  C   UNL     1     -37.472 -50.422  13.966  1.00  0.00     0.015 C 
HETATM   19  C   UNL     1     -37.691 -50.936  12.552  1.00  0.00     0.095 C 
HETATM   20  N   UNL     1     -39.075 -51.012  12.132  1.00  0.00    -0.261 NA
HETATM   21  C   UNL     1     -39.714 -49.919  11.607  1.00  0.00     0.220 C 
HETATM   22  H   UNL     1     -39.258 -51.808  11.530  1.00  0.00     0.130 HD
HETATM   23  O   UNL     1     -40.324 -50.056  10.540  1.00  0.00    -0.278 OA
ENDBRANCH  13  15
ENDBRANCH  10  11
ENDBRANCH   1  10
TORSDOF 3
ENDMDL
MODEL 6
REMARK VINA RESULT:      -6.1      5.319      6.473
REMARK  3 active torsions:
REMARK  status: ('A' for Active; 'I' for Inactive)
REMARK    1  A    between atoms: C_2  and  C_3 
REMARK       I    between atoms: C_2  and  N_13 
REMARK    2  A    between atoms: C_3  and  N_4 
REMARK    3  A    between atoms: N_13  and  C_14 
ROOT
HETATM    1  N   UNL     1     -43.143 -46.469  10.377  1.00  0.00    -0.277 N 
HETATM    2  C   UNL     1     -42.964 -46.032   9.099  1.00  0.00     0.203 A 
HETATM    3  N   UNL     1     -43.920 -46.509   8.334  1.00  0.00    -0.327 N 
ATOM      4  HN  UNL     1     -44.062 -46.369   7.334  1.00  0.00     0.169 HD
HETATM    5  C   UNL     1     -44.679 -47.242   9.210  1.00  0.00     0.204 A 
HETATM    6  C   UNL     1     -45.894 -47.901   8.822  1.00  0.00     0.138 C 
HETATM    7  N   UNL     1     -46.884 -48.428   8.514  1.00  0.00    -0.188 NA
HETATM    8  N   UNL     1     -44.224 -47.271  10.472  1.00  0.00    -0.273 N 
ATOM      9  HN  UNL     1     -44.595 -47.765  11.283  1.00  0.00     0.189 HD
ENDROOT
BRANCH   1  10
HETATM   10  C   UNL     1     -42.355 -46.154  11.542  1.00  0.00     0.252 C 
BRANCH  10  11
HETATM   11  C   UNL     1     -40.940 -46.654  11.367  1.00  0.00     0.238 C 
HETATM   12  O   UNL     1     -40.148 -46.089  10.616  1.00  0.00    -0.272 OA
HETATM   13  N   UNL     1     -40.623 -47.783  12.091  1.00  0.00    -0.347 N 
HETATM   14  H   UNL     1     -41.178 -47.979  12.923  1.00  0.00     0.163 HD
BRANCH  13  15
HETATM   15  C   UNL     1     -39.249 -48.314  12.157  1.00  0.00     0.170 C 
HETATM   16  C   UNL     1     -39.139 -49.705  11.530  1.00  0.00     0.034 C 
HETATM   17  C   UNL     1     -37.692 -50.184  11.462  1.00  0.00     0.004 C 
HETATM   18  C   UNL     1     -37.247 -50.935  12.708  1.00  0.00     0.015 C 
HETATM   19  C   UNL     1     -37.777 -50.385  14.022  1.00  0.00     0.095 C 
HETATM   20  N   UNL     1     -37.779 -48.941  14.128  1.00  0.00    -0.261 NA
HETATM   21  C   UNL     1     -38.823 -48.199  13.640  1.00  0.00     0.220 C 
HETATM   22  H   UNL     1     -37.568 -48.617  15.066  1.00  0.00     0.130 HD
HETATM   23  O   UNL     1     -39.335 -47.352  14.382  1.00  0.00    -0.278 OA
ENDBRANCH  13  15
ENDBRANCH  10  11
ENDBRANCH   1  10
TORSDOF 3
ENDMDL
MODEL 7
REMARK VINA RESULT:      -6.0      3.487      6.845
REMARK  3 active torsions:
REMARK  status: ('A' for Active; 'I' for Inactive)
REMARK    1  A    between atoms: C_2  and  C_3 
REMARK       I    between atoms: C_2  and  N_13 
REMARK    2  A    between atoms: C_3  and  N_4 
REMARK    3  A    between atoms: N_13  and  C_14 
ROOT
HETATM    1  N   UNL     1     -44.401 -53.498  13.352  1.00  0.00    -0.277 N 
HETATM    2  C   UNL     1     -45.490 -53.895  14.068  1.00  0.00     0.203 A 
HETATM    3  N   UNL     1     -46.571 -53.337  13.570  1.00  0.00    -0.327 N 
ATOM      4  HN  UNL     1     -47.536 -53.432  13.885  1.00  0.00     0.169 HD
HETATM    5  C   UNL     1     -46.082 -52.597  12.524  1.00  0.00     0.204 A 
HETATM    6  C   UNL     1     -46.929 -51.857  11.633  1.00  0.00     0.138 C 
HETATM    7  N   UNL     1     -47.613 -51.265  10.903  1.00  0.00    -0.188 NA
HETATM    8  N   UNL     1     -44.750 -52.641  12.369  1.00  0.00    -0.273 N 
ATOM      9  HN  UNL     1     -44.161 -52.158  11.691  1.00  0.00     0.189 HD
ENDROOT
BRANCH   1  10
HETATM   10  C   UNL     1     -43.029 -53.900  13.525  1.00  0.00     0.252 C 
BRANCH  10  11
HETATM   11  C   UNL     1     -42.164 -52.696  13.818  1.00  0.00     0.238 C 
HETATM   12  O   UNL     1     -42.288 -52.055  14.859  1.00  0.00    -0.272 OA
HETATM   13  N   UNL     1     -41.255 -52.372  12.834  1.00  0.00    -0.347 N 
HETATM   14  H   UNL     1     -40.969 -53.115  12.196  1.00  0.00     0.163 HD
BRANCH  13  15
HETATM   15  C   UNL     1     -40.233 -51.327  13.022  1.00  0.00     0.170 C 
HETATM   16  C   UNL     1     -40.237 -50.309  11.879  1.00  0.00     0.034 C 
HETATM   17  C   UNL     1     -39.287 -49.146  12.152  1.00  0.00     0.004 C 
HETATM   18  C   UNL     1     -37.871 -49.394  11.653  1.00  0.00     0.015 C 
HETATM   19  C   UNL     1     -37.361 -50.816  11.828  1.00  0.00     0.095 C 
HETATM   20  N   UNL     1     -37.700 -51.440  13.091  1.00  0.00    -0.261 NA
HETATM   21  C   UNL     1     -38.901 -52.076  13.264  1.00  0.00     0.220 C 
HETATM   22  H   UNL     1     -36.964 -52.048  13.436  1.00  0.00     0.130 HD
HETATM   23  O   UNL     1     -38.894 -53.220  13.731  1.00  0.00    -0.278 OA
ENDBRANCH  13  15
ENDBRANCH  10  11
ENDBRANCH   1  10
TORSDOF 3
ENDMDL
MODEL 8
REMARK VINA RESULT:      -6.0      2.807      3.311
REMARK  3 active torsions:
REMARK  status: ('A' for Active; 'I' for Inactive)
REMARK    1  A    between atoms: C_2  and  C_3 
REMARK       I    between atoms: C_2  and  N_13 
REMARK    2  A    between atoms: C_3  and  N_4 
REMARK    3  A    between atoms: N_13  and  C_14 
ROOT
HETATM    1  N   UNL     1     -41.725 -48.086  11.071  1.00  0.00    -0.277 N 
HETATM    2  C   UNL     1     -41.928 -46.827  11.550  1.00  0.00     0.203 A 
HETATM    3  N   UNL     1     -43.068 -46.362  11.093  1.00  0.00    -0.327 N 
ATOM      4  HN  UNL     1     -43.498 -45.453  11.265  1.00  0.00     0.169 HD
HETATM    5  C   UNL     1     -43.540 -47.398  10.329  1.00  0.00     0.204 A 
HETATM    6  C   UNL     1     -44.818 -47.363   9.675  1.00  0.00     0.138 C 
HETATM    7  N   UNL     1     -45.857 -47.343   9.154  1.00  0.00    -0.188 NA
HETATM    8  N   UNL     1     -42.734 -48.469  10.261  1.00  0.00    -0.273 N 
ATOM      9  HN  UNL     1     -42.853 -49.337   9.738  1.00  0.00     0.189 HD
ENDROOT
BRANCH   1  10
HETATM   10  C   UNL     1     -40.628 -48.978  11.352  1.00  0.00     0.252 C 
BRANCH  10  11
HETATM   11  C   UNL     1     -41.121 -50.190  12.110  1.00  0.00     0.238 C 
HETATM   12  O   UNL     1     -41.634 -50.086  13.222  1.00  0.00    -0.272 OA
HETATM   13  N   UNL     1     -40.935 -51.397  11.472  1.00  0.00    -0.347 N 
HETATM   14  H   UNL     1     -40.840 -51.382  10.456  1.00  0.00     0.163 HD
BRANCH  13  15
HETATM   15  C   UNL     1     -41.493 -52.657  11.995  1.00  0.00     0.170 C 
HETATM   16  C   UNL     1     -42.955 -52.506  12.419  1.00  0.00     0.034 C 
HETATM   17  C   UNL     1     -43.573 -53.845  12.814  1.00  0.00     0.004 C 
HETATM   18  C   UNL     1     -43.393 -54.179  14.288  1.00  0.00     0.015 C 
HETATM   19  C   UNL     1     -42.053 -53.783  14.885  1.00  0.00     0.095 C 
HETATM   20  N   UNL     1     -40.904 -54.038  14.040  1.00  0.00    -0.261 NA
HETATM   21  C   UNL     1     -40.510 -53.130  13.093  1.00  0.00     0.220 C 
HETATM   22  H   UNL     1     -40.086 -54.323  14.569  1.00  0.00     0.130 HD
HETATM   23  O   UNL     1     -39.321 -52.792  13.066  1.00  0.00    -0.278 OA
ENDBRANCH  13  15
ENDBRANCH  10  11
ENDBRANCH   1  10
TORSDOF 3
ENDMDL
MODEL 9
REMARK VINA RESULT:      -5.9      2.571      7.438
REMARK  3 active torsions:
REMARK  status: ('A' for Active; 'I' for Inactive)
REMARK    1  A    between atoms: C_2  and  C_3 
REMARK       I    between atoms: C_2  and  N_13 
REMARK    2  A    between atoms: C_3  and  N_4 
REMARK    3  A    between atoms: N_13  and  C_14 
ROOT
HETATM    1  N   UNL     1     -42.028 -53.251  12.822  1.00  0.00    -0.277 N 
HETATM    2  C   UNL     1     -41.500 -53.960  13.860  1.00  0.00     0.203 A 
HETATM    3  N   UNL     1     -42.439 -54.692  14.414  1.00  0.00    -0.327 N 
ATOM      4  HN  UNL     1     -42.364 -55.325  15.210  1.00  0.00     0.169 HD
HETATM    5  C   UNL     1     -43.546 -54.396  13.661  1.00  0.00     0.204 A 
HETATM    6  C   UNL     1     -44.818 -55.029  13.866  1.00  0.00     0.138 C 
HETATM    7  N   UNL     1     -45.847 -55.547  14.022  1.00  0.00    -0.188 NA
HETATM    8  N   UNL     1     -43.349 -53.492  12.689  1.00  0.00    -0.273 N 
ATOM      9  HN  UNL     1     -44.017 -53.095  12.028  1.00  0.00     0.189 HD
ENDROOT
BRANCH   1  10
HETATM   10  C   UNL     1     -41.347 -52.360  11.917  1.00  0.00     0.252 C 
BRANCH  10  11
HETATM   11  C   UNL     1     -41.823 -50.940  12.124  1.00  0.00     0.238 C 
HETATM   12  O   UNL     1     -42.761 -50.682  12.874  1.00  0.00    -0.272 OA
HETATM   13  N   UNL     1     -41.144 -49.982  11.403  1.00  0.00    -0.347 N 
HETATM   14  H   UNL     1     -40.198 -50.208  11.097  1.00  0.00     0.163 HD
BRANCH  13  15
HETATM   15  C   UNL     1     -41.374 -48.540  11.601  1.00  0.00     0.170 C 
HETATM   16  C   UNL     1     -42.013 -47.887  10.373  1.00  0.00     0.034 C 
HETATM   17  C   UNL     1     -42.391 -46.432  10.637  1.00  0.00     0.004 C 
HETATM   18  C   UNL     1     -41.271 -45.452  10.322  1.00  0.00     0.015 C 
HETATM   19  C   UNL     1     -39.873 -45.924  10.685  1.00  0.00     0.095 C 
HETATM   20  N   UNL     1     -39.767 -46.610  11.956  1.00  0.00    -0.261 NA
HETATM   21  C   UNL     1     -40.017 -47.954  12.057  1.00  0.00     0.220 C 
HETATM   22  H   UNL     1     -38.895 -46.411  12.436  1.00  0.00     0.130 HD
HETATM   23  O   UNL     1     -39.181 -48.663  12.629  1.00  0.00    -0.278 OA
ENDBRANCH  13  15
ENDBRANCH  10  11
ENDBRANCH   1  10
TORSDOF 3
ENDMDL
