MODEL 1
REMARK VINA RESULT:      -5.4      0.000      0.000
REMARK  5 active torsions:
REMARK  status: ('A' for Active; 'I' for Inactive)
REMARK    1  A    between atoms: N_2  and  C_4 
REMARK    2  A    between atoms: C_10  and  N_11 
REMARK       I    between atoms: N_11  and  C_12 
REMARK    3  A    between atoms: C_12  and  C_14 
REMARK    4  A    between atoms: C_14  and  O_15 
REMARK    5  A    between atoms: O_15  and  C_16 
ROOT
HETATM    1  N   UNL     1     -40.751 -50.446  13.638  1.00  0.00    -0.322 N 
HETATM    2  C   UNL     1     -41.798 -51.234  13.208  1.00  0.00     0.245 C 
HETATM    3  O   UNL     1     -41.880 -51.795  12.115  1.00  0.00    -0.271 OA
HETATM    4  H   UNL     1     -40.715 -50.218  14.619  1.00  0.00     0.169 HD
ENDROOT
BRANCH   1   5
HETATM    5  C   UNL     1     -39.597 -50.198  12.870  1.00  0.00     0.079 A 
HETATM    6  C   UNL     1     -39.544 -49.224  11.842  1.00  0.00     0.129 A 
HETATM    7  N   UNL     1     -38.426 -49.149  11.068  1.00  0.00    -0.351 N 
HETATM    8  C   UNL     1     -37.383 -49.974  11.302  1.00  0.00     0.090 A 
ATOM      9  HN  UNL     1     -38.376 -48.469  10.309  1.00  0.00     0.166 HD
HETATM   10  C   UNL     1     -37.364 -50.929  12.292  1.00  0.00     0.019 A 
HETATM   11  C   UNL     1     -38.492 -51.035  13.088  1.00  0.00     0.035 A 
BRANCH   6  12
HETATM   12  N   UNL     1     -40.518 -48.265  11.590  1.00  0.00    -0.374 N 
HETATM   13  C   UNL     1     -41.599 -48.369  10.641  1.00  0.00     0.150 C 
HETATM   14  C   UNL     1     -40.371 -46.988  12.291  1.00  0.00     0.150 C 
ENDBRANCH   6  12
ENDBRANCH   1   5
BRANCH   2  15
HETATM   15  C   UNL     1     -42.864 -51.427  14.279  1.00  0.00     0.271 C 
BRANCH  15  16
HETATM   16  O   UNL     1     -43.406 -52.737  14.147  1.00  0.00    -0.377 OA
BRANCH  16  17
HETATM   17  C   UNL     1     -44.824 -52.758  14.171  1.00  0.00     0.122 C 
HETATM   18  C   UNL     1     -45.351 -52.683  12.735  1.00  0.00     0.032 C 
HETATM   19  C   UNL     1     -46.509 -51.687  12.752  1.00  0.00     0.002 C 
HETATM   20  C   UNL     1     -46.761 -51.367  14.218  1.00  0.00     0.002 C 
HETATM   21  C   UNL     1     -45.397 -51.528  14.861  1.00  0.00     0.032 C 
ENDBRANCH  16  17
ENDBRANCH  15  16
ENDBRANCH   2  15
TORSDOF 5
ENDMDL
MODEL 2
REMARK VINA RESULT:      -5.4      2.318      3.210
REMARK  5 active torsions:
REMARK  status: ('A' for Active; 'I' for Inactive)
REMARK    1  A    between atoms: N_2  and  C_4 
REMARK    2  A    between atoms: C_10  and  N_11 
REMARK       I    between atoms: N_11  and  C_12 
REMARK    3  A    between atoms: C_12  and  C_14 
REMARK    4  A    between atoms: C_14  and  O_15 
REMARK    5  A    between atoms: O_15  and  C_16 
ROOT
HETATM    1  N   UNL     1     -41.921 -49.394  11.344  1.00  0.00    -0.322 N 
HETATM    2  C   UNL     1     -42.527 -49.768  12.525  1.00  0.00     0.245 C 
HETATM    3  O   UNL     1     -42.788 -49.025  13.471  1.00  0.00    -0.271 OA
HETATM    4  H   UNL     1     -41.952 -50.050  10.579  1.00  0.00     0.169 HD
ENDROOT
BRANCH   1   5
HETATM    5  C   UNL     1     -41.535 -48.073  11.051  1.00  0.00     0.079 A 
HETATM    6  C   UNL     1     -42.164 -47.284  10.056  1.00  0.00     0.129 A 
HETATM    7  N   UNL     1     -41.634 -46.065   9.755  1.00  0.00    -0.351 N 
HETATM    8  C   UNL     1     -40.547 -45.616  10.418  1.00  0.00     0.090 A 
ATOM      9  HN  UNL     1     -42.059 -45.491   9.027  1.00  0.00     0.166 HD
HETATM   10  C   UNL     1     -39.900 -46.324  11.403  1.00  0.00     0.019 A 
HETATM   11  C   UNL     1     -40.409 -47.571  11.723  1.00  0.00     0.035 A 
BRANCH   6  12
HETATM   12  N   UNL     1     -43.341 -47.611   9.393  1.00  0.00    -0.374 N 
HETATM   13  C   UNL     1     -43.485 -47.883   7.984  1.00  0.00     0.150 C 
HETATM   14  C   UNL     1     -44.567 -47.581  10.192  1.00  0.00     0.150 C 
ENDBRANCH   6  12
ENDBRANCH   1   5
BRANCH   2  15
HETATM   15  C   UNL     1     -42.942 -51.234  12.533  1.00  0.00     0.271 C 
BRANCH  15  16
HETATM   16  O   UNL     1     -43.140 -51.642  13.882  1.00  0.00    -0.377 OA
BRANCH  16  17
HETATM   17  C   UNL     1     -44.453 -52.113  14.134  1.00  0.00     0.122 C 
HETATM   18  C   UNL     1     -45.181 -52.307  12.801  1.00  0.00     0.032 C 
HETATM   19  C   UNL     1     -46.586 -51.735  12.988  1.00  0.00     0.002 C 
HETATM   20  C   UNL     1     -46.709 -51.415  14.470  1.00  0.00     0.002 C 
HETATM   21  C   UNL     1     -45.289 -51.088  14.888  1.00  0.00     0.032 C 
ENDBRANCH  16  17
ENDBRANCH  15  16
ENDBRANCH   2  15
TORSDOF 5
ENDMDL
MODEL 3
REMARK VINA RESULT:      -5.4      1.258      2.874
REMARK  5 active torsions:
REMARK  status: ('A' for Active; 'I' for Inactive)
REMARK    1  A    between atoms: N_2  and  C_4 
REMARK    2  A    between atoms: C_10  and  N_11 
REMARK       I    between atoms: N_11  and  C_12 
REMARK    3  A    between atoms: C_12  and  C_14 
REMARK    4  A    between atoms: C_14  and  O_15 
REMARK    5  A    between atoms: O_15  and  C_16 
ROOT
HETATM    1  N   UNL     1     -41.733 -50.261  11.554  1.00  0.00    -0.322 N 
HETATM    2  C   UNL     1     -42.315 -50.585  12.762  1.00  0.00     0.245 C 
HETATM    3  O   UNL     1     -42.466 -49.826  13.719  1.00  0.00    -0.271 OA
HETATM    4  H   UNL     1     -41.857 -50.909  10.791  1.00  0.00     0.169 HD
ENDROOT
BRANCH   1   5
HETATM    5  C   UNL     1     -41.248 -48.977  11.243  1.00  0.00     0.079 A 
HETATM    6  C   UNL     1     -39.982 -48.502  11.669  1.00  0.00     0.129 A 
HETATM    7  N   UNL     1     -39.657 -47.201  11.431  1.00  0.00    -0.351 N 
HETATM    8  C   UNL     1     -40.520 -46.394  10.778  1.00  0.00     0.090 A 
ATOM      9  HN  UNL     1     -38.759 -46.834  11.748  1.00  0.00     0.166 HD
HETATM   10  C   UNL     1     -41.756 -46.796  10.326  1.00  0.00     0.019 A 
HETATM   11  C   UNL     1     -42.119 -48.111  10.563  1.00  0.00     0.035 A 
BRANCH   6  12
HETATM   12  N   UNL     1     -38.987 -49.276  12.253  1.00  0.00    -0.374 N 
HETATM   13  C   UNL     1     -38.803 -49.517  13.663  1.00  0.00     0.150 C 
HETATM   14  C   UNL     1     -37.971 -49.821  11.349  1.00  0.00     0.150 C 
ENDBRANCH   6  12
ENDBRANCH   1   5
BRANCH   2  15
HETATM   15  C   UNL     1     -42.855 -52.009  12.789  1.00  0.00     0.271 C 
BRANCH  15  16
HETATM   16  O   UNL     1     -43.294 -52.302  14.111  1.00  0.00    -0.377 OA
BRANCH  16  17
HETATM   17  C   UNL     1     -44.694 -52.514  14.199  1.00  0.00     0.122 C 
HETATM   18  C   UNL     1     -45.285 -52.552  12.787  1.00  0.00     0.032 C 
HETATM   19  C   UNL     1     -46.566 -51.722  12.832  1.00  0.00     0.002 C 
HETATM   20  C   UNL     1     -46.799 -51.397  14.300  1.00  0.00     0.002 C 
HETATM   21  C   UNL     1     -45.401 -51.354  14.885  1.00  0.00     0.032 C 
ENDBRANCH  16  17
ENDBRANCH  15  16
ENDBRANCH   2  15
TORSDOF 5
ENDMDL
MODEL 4
REMARK VINA RESULT:      -5.3      1.943      3.391
REMARK  5 active torsions:
REMARK  status: ('A' for Active; 'I' for Inactive)
REMARK    1  A    between atoms: N_2  and  C_4 
REMARK    2  A    between atoms: C_10  and  N_11 
REMARK       I    between atoms: N_11  and  C_12 
REMARK    3  A    between atoms: C_12  and  C_14 
REMARK    4  A    between atoms: C_14  and  O_15 
REMARK    5  A    between atoms: O_15  and  C_16 
ROOT
HETATM    1  N   UNL     1     -40.865 -50.614  11.278  1.00  0.00    -0.322 N 
HETATM    2  C   UNL     1     -41.190 -51.190  12.488  1.00  0.00     0.245 C 
HETATM    3  O   UNL     1     -41.325 -50.598  13.559  1.00  0.00    -0.271 OA
HETATM    4  H   UNL     1     -40.987 -51.175  10.449  1.00  0.00     0.169 HD
ENDROOT
BRANCH   1   5
HETATM    5  C   UNL     1     -40.668 -49.231  11.102  1.00  0.00     0.079 A 
HETATM    6  C   UNL     1     -39.492 -48.557  11.516  1.00  0.00     0.129 A 
HETATM    7  N   UNL     1     -39.450 -47.198  11.423  1.00  0.00    -0.351 N 
HETATM    8  C   UNL     1     -40.502 -46.519  10.920  1.00  0.00     0.090 A 
ATOM      9  HN  UNL     1     -38.621 -46.692  11.735  1.00  0.00     0.166 HD
HETATM   10  C   UNL     1     -41.665 -47.114  10.487  1.00  0.00     0.019 A 
HETATM   11  C   UNL     1     -41.741 -48.493  10.579  1.00  0.00     0.035 A 
BRANCH   6  12
HETATM   12  N   UNL     1     -38.322 -49.169  11.949  1.00  0.00    -0.374 N 
HETATM   13  C   UNL     1     -37.397 -49.921  11.138  1.00  0.00     0.150 C 
HETATM   14  C   UNL     1     -38.058 -49.124  13.388  1.00  0.00     0.150 C 
ENDBRANCH   6  12
ENDBRANCH   1   5
BRANCH   2  15
HETATM   15  C   UNL     1     -41.458 -52.685  12.372  1.00  0.00     0.271 C 
BRANCH  15  16
HETATM   16  O   UNL     1     -42.843 -52.877  12.104  1.00  0.00    -0.377 OA
BRANCH  16  17
HETATM   17  C   UNL     1     -43.588 -53.238  13.255  1.00  0.00     0.122 C 
HETATM   18  C   UNL     1     -42.675 -53.988  14.229  1.00  0.00     0.032 C 
HETATM   19  C   UNL     1     -43.480 -55.181  14.743  1.00  0.00     0.002 C 
HETATM   20  C   UNL     1     -44.895 -54.982  14.223  1.00  0.00     0.002 C 
HETATM   21  C   UNL     1     -44.699 -54.224  12.925  1.00  0.00     0.032 C 
ENDBRANCH  16  17
ENDBRANCH  15  16
ENDBRANCH   2  15
TORSDOF 5
ENDMDL
MODEL 5
REMARK VINA RESULT:      -5.2      2.667      4.225
REMARK  5 active torsions:
REMARK  status: ('A' for Active; 'I' for Inactive)
REMARK    1  A    between atoms: N_2  and  C_4 
REMARK    2  A    between atoms: C_10  and  N_11 
REMARK       I    between atoms: N_11  and  C_12 
REMARK    3  A    between atoms: C_12  and  C_14 
REMARK    4  A    between atoms: C_14  and  O_15 
REMARK    5  A    between atoms: O_15  and  C_16 
ROOT
HETATM    1  N   UNL     1     -41.092 -50.376  11.224  1.00  0.00    -0.322 N 
HETATM    2  C   UNL     1     -41.681 -50.962  12.325  1.00  0.00     0.245 C 
HETATM    3  O   UNL     1     -42.057 -50.379  13.341  1.00  0.00    -0.271 OA
HETATM    4  H   UNL     1     -41.021 -50.931  10.385  1.00  0.00     0.169 HD
ENDROOT
BRANCH   1   5
HETATM    5  C   UNL     1     -40.862 -48.992  11.108  1.00  0.00     0.079 A 
HETATM    6  C   UNL     1     -39.726 -48.346  11.657  1.00  0.00     0.129 A 
HETATM    7  N   UNL     1     -39.659 -46.986  11.608  1.00  0.00    -0.351 N 
HETATM    8  C   UNL     1     -40.648 -46.278  11.022  1.00  0.00     0.090 A 
ATOM      9  HN  UNL     1     -38.859 -46.501  12.016  1.00  0.00     0.166 HD
HETATM   10  C   UNL     1     -41.768 -46.844  10.458  1.00  0.00     0.019 A 
HETATM   11  C   UNL     1     -41.869 -48.224  10.502  1.00  0.00     0.035 A 
BRANCH   6  12
HETATM   12  N   UNL     1     -38.612 -48.987  12.186  1.00  0.00    -0.374 N 
HETATM   13  C   UNL     1     -37.610 -49.716  11.449  1.00  0.00     0.150 C 
HETATM   14  C   UNL     1     -38.501 -49.000  13.646  1.00  0.00     0.150 C 
ENDBRANCH   6  12
ENDBRANCH   1   5
BRANCH   2  15
HETATM   15  C   UNL     1     -41.914 -52.456  12.138  1.00  0.00     0.271 C 
BRANCH  15  16
HETATM   16  O   UNL     1     -40.651 -53.114  12.132  1.00  0.00    -0.377 OA
BRANCH  16  17
HETATM   17  C   UNL     1     -40.580 -54.192  13.050  1.00  0.00     0.122 C 
HETATM   18  C   UNL     1     -41.902 -54.285  13.817  1.00  0.00     0.032 C 
HETATM   19  C   UNL     1     -41.536 -54.518  15.282  1.00  0.00     0.002 C 
HETATM   20  C   UNL     1     -40.035 -54.760  15.301  1.00  0.00     0.002 C 
HETATM   21  C   UNL     1     -39.525 -53.956  14.121  1.00  0.00     0.032 C 
ENDBRANCH  16  17
ENDBRANCH  15  16
ENDBRANCH   2  15
TORSDOF 5
ENDMDL
MODEL 6
REMARK VINA RESULT:      -5.2      3.557      4.866
REMARK  5 active torsions:
REMARK  status: ('A' for Active; 'I' for Inactive)
REMARK    1  A    between atoms: N_2  and  C_4 
REMARK    2  A    between atoms: C_10  and  N_11 
REMARK       I    between atoms: N_11  and  C_12 
REMARK    3  A    between atoms: C_12  and  C_14 
REMARK    4  A    between atoms: C_14  and  O_15 
REMARK    5  A    between atoms: O_15  and  C_16 
ROOT
HETATM    1  N   UNL     1     -42.060 -53.968  16.212  1.00  0.00    -0.322 N 
HETATM    2  C   UNL     1     -43.184 -54.622  15.752  1.00  0.00     0.245 C 
HETATM    3  O   UNL     1     -43.203 -55.706  15.171  1.00  0.00    -0.271 OA
HETATM    4  H   UNL     1     -42.200 -53.196  16.846  1.00  0.00     0.169 HD
ENDROOT
BRANCH   1   5
HETATM    5  C   UNL     1     -40.756 -54.485  16.096  1.00  0.00     0.079 A 
HETATM    6  C   UNL     1     -39.951 -54.307  14.943  1.00  0.00     0.129 A 
HETATM    7  N   UNL     1     -38.756 -54.956  14.872  1.00  0.00    -0.351 N 
HETATM    8  C   UNL     1     -38.343 -55.731  15.898  1.00  0.00     0.090 A 
ATOM      9  HN  UNL     1     -38.171 -54.858  14.042  1.00  0.00     0.166 HD
HETATM   10  C   UNL     1     -39.068 -55.933  17.049  1.00  0.00     0.019 A 
HETATM   11  C   UNL     1     -40.293 -55.294  17.145  1.00  0.00     0.035 A 
BRANCH   6  12
HETATM   12  N   UNL     1     -40.238 -53.453  13.885  1.00  0.00    -0.374 N 
HETATM   13  C   UNL     1     -40.984 -53.782  12.695  1.00  0.00     0.150 C 
HETATM   14  C   UNL     1     -39.642 -52.117  13.945  1.00  0.00     0.150 C 
ENDBRANCH   6  12
ENDBRANCH   1   5
BRANCH   2  15
HETATM   15  C   UNL     1     -44.473 -53.894  16.110  1.00  0.00     0.271 C 
BRANCH  15  16
HETATM   16  O   UNL     1     -45.562 -54.566  15.486  1.00  0.00    -0.377 OA
BRANCH  16  17
HETATM   17  C   UNL     1     -46.384 -53.703  14.718  1.00  0.00     0.122 C 
HETATM   18  C   UNL     1     -45.693 -53.407  13.384  1.00  0.00     0.032 C 
HETATM   19  C   UNL     1     -45.859 -51.909  13.135  1.00  0.00     0.002 C 
HETATM   20  C   UNL     1     -46.810 -51.411  14.212  1.00  0.00     0.002 C 
HETATM   21  C   UNL     1     -46.550 -52.342  15.380  1.00  0.00     0.032 C 
ENDBRANCH  16  17
ENDBRANCH  15  16
ENDBRANCH   2  15
TORSDOF 5
ENDMDL
MODEL 7
REMARK VINA RESULT:      -5.1      1.662      2.967
REMARK  5 active torsions:
REMARK  status: ('A' for Active; 'I' for Inactive)
REMARK    1  A    between atoms: N_2  and  C_4 
REMARK    2  A    between atoms: C_10  and  N_11 
REMARK       I    between atoms: N_11  and  C_12 
REMARK    3  A    between atoms: C_12  and  C_14 
REMARK    4  A    between atoms: C_14  and  O_15 
REMARK    5  A    between atoms: O_15  and  C_16 
ROOT
HETATM    1  N   UNL     1     -41.228 -50.997  13.097  1.00  0.00    -0.322 N 
HETATM    2  C   UNL     1     -42.066 -51.938  12.535  1.00  0.00     0.245 C 
HETATM    3  O   UNL     1     -41.760 -52.750  11.662  1.00  0.00    -0.271 OA
HETATM    4  H   UNL     1     -41.543 -50.538  13.937  1.00  0.00     0.169 HD
ENDROOT
BRANCH   1   5
HETATM    5  C   UNL     1     -39.870 -50.858  12.751  1.00  0.00     0.079 A 
HETATM    6  C   UNL     1     -38.824 -51.530  13.433  1.00  0.00     0.129 A 
HETATM    7  N   UNL     1     -37.535 -51.229  13.111  1.00  0.00    -0.351 N 
HETATM    8  C   UNL     1     -37.270 -50.328  12.141  1.00  0.00     0.090 A 
ATOM      9  HN  UNL     1     -36.767 -51.686  13.604  1.00  0.00     0.166 HD
HETATM   10  C   UNL     1     -38.238 -49.655  11.432  1.00  0.00     0.019 A 
HETATM   11  C   UNL     1     -39.558 -49.931  11.745  1.00  0.00     0.035 A 
BRANCH   6  12
HETATM   12  N   UNL     1     -38.993 -52.543  14.368  1.00  0.00    -0.374 N 
HETATM   13  C   UNL     1     -39.250 -53.934  14.090  1.00  0.00     0.150 C 
HETATM   14  C   UNL     1     -39.003 -52.136  15.775  1.00  0.00     0.150 C 
ENDBRANCH   6  12
ENDBRANCH   1   5
BRANCH   2  15
HETATM   15  C   UNL     1     -43.450 -51.944  13.172  1.00  0.00     0.271 C 
BRANCH  15  16
HETATM   16  O   UNL     1     -44.276 -52.852  12.451  1.00  0.00    -0.377 OA
BRANCH  16  17
HETATM   17  C   UNL     1     -45.614 -52.878  12.918  1.00  0.00     0.122 C 
HETATM   18  C   UNL     1     -46.087 -51.443  13.167  1.00  0.00     0.032 C 
HETATM   19  C   UNL     1     -46.833 -51.458  14.500  1.00  0.00     0.002 C 
HETATM   20  C   UNL     1     -46.956 -52.924  14.889  1.00  0.00     0.002 C 
HETATM   21  C   UNL     1     -45.730 -53.565  14.271  1.00  0.00     0.032 C 
ENDBRANCH  16  17
ENDBRANCH  15  16
ENDBRANCH   2  15
TORSDOF 5
ENDMDL
MODEL 8
REMARK VINA RESULT:      -5.0      2.762      4.315
REMARK  5 active torsions:
REMARK  status: ('A' for Active; 'I' for Inactive)
REMARK    1  A    between atoms: N_2  and  C_4 
REMARK    2  A    between atoms: C_10  and  N_11 
REMARK       I    between atoms: N_11  and  C_12 
REMARK    3  A    between atoms: C_12  and  C_14 
REMARK    4  A    between atoms: C_14  and  O_15 
REMARK    5  A    between atoms: O_15  and  C_16 
ROOT
HETATM    1  N   UNL     1     -43.338 -48.588  11.773  1.00  0.00    -0.322 N 
HETATM    2  C   UNL     1     -42.221 -49.387  11.911  1.00  0.00     0.245 C 
HETATM    3  O   UNL     1     -41.174 -49.283  11.271  1.00  0.00    -0.271 OA
HETATM    4  H   UNL     1     -44.042 -48.648  12.492  1.00  0.00     0.169 HD
ENDROOT
BRANCH   1   5
HETATM    5  C   UNL     1     -43.415 -47.506  10.877  1.00  0.00     0.079 A 
HETATM    6  C   UNL     1     -42.918 -46.213  11.177  1.00  0.00     0.129 A 
HETATM    7  N   UNL     1     -43.158 -45.199  10.299  1.00  0.00    -0.351 N 
HETATM    8  C   UNL     1     -43.834 -45.438   9.155  1.00  0.00     0.090 A 
ATOM      9  HN  UNL     1     -42.826 -44.257  10.506  1.00  0.00     0.166 HD
HETATM   10  C   UNL     1     -44.329 -46.671   8.798  1.00  0.00     0.019 A 
HETATM   11  C   UNL     1     -44.110 -47.719   9.676  1.00  0.00     0.035 A 
BRANCH   6  12
HETATM   12  N   UNL     1     -42.125 -45.889  12.271  1.00  0.00    -0.374 N 
HETATM   13  C   UNL     1     -42.588 -45.513  13.584  1.00  0.00     0.150 C 
HETATM   14  C   UNL     1     -40.681 -45.834  12.036  1.00  0.00     0.150 C 
ENDBRANCH   6  12
ENDBRANCH   1   5
BRANCH   2  15
HETATM   15  C   UNL     1     -42.366 -50.409  13.030  1.00  0.00     0.271 C 
BRANCH  15  16
HETATM   16  O   UNL     1     -43.256 -51.432  12.597  1.00  0.00    -0.377 OA
BRANCH  16  17
HETATM   17  C   UNL     1     -44.152 -51.856  13.610  1.00  0.00     0.122 C 
HETATM   18  C   UNL     1     -45.536 -52.082  12.994  1.00  0.00     0.032 C 
HETATM   19  C   UNL     1     -46.545 -51.464  13.959  1.00  0.00     0.002 C 
HETATM   20  C   UNL     1     -45.753 -51.082  15.200  1.00  0.00     0.002 C 
HETATM   21  C   UNL     1     -44.367 -50.779  14.664  1.00  0.00     0.032 C 
ENDBRANCH  16  17
ENDBRANCH  15  16
ENDBRANCH   2  15
TORSDOF 5
ENDMDL
MODEL 9
REMARK VINA RESULT:      -4.8      1.610      2.045
REMARK  5 active torsions:
REMARK  status: ('A' for Active; 'I' for Inactive)
REMARK    1  A    between atoms: N_2  and  C_4 
REMARK    2  A    between atoms: C_10  and  N_11 
REMARK       I    between atoms: N_11  and  C_12 
REMARK    3  A    between atoms: C_12  and  C_14 
REMARK    4  A    between atoms: C_14  and  O_15 
REMARK    5  A    between atoms: O_15  and  C_16 
ROOT
HETATM    1  N   UNL     1     -42.218 -50.675  12.247  1.00  0.00    -0.322 N 
HETATM    2  C   UNL     1     -42.977 -50.529  13.389  1.00  0.00     0.245 C 
HETATM    3  O   UNL     1     -42.627 -49.959  14.422  1.00  0.00    -0.271 OA
HETATM    4  H   UNL     1     -42.693 -50.978  11.411  1.00  0.00     0.169 HD
ENDROOT
BRANCH   1   5
HETATM    5  C   UNL     1     -40.918 -50.153  12.103  1.00  0.00     0.079 A 
HETATM    6  C   UNL     1     -40.655 -48.863  11.580  1.00  0.00     0.129 A 
HETATM    7  N   UNL     1     -39.361 -48.499  11.357  1.00  0.00    -0.351 N 
HETATM    8  C   UNL     1     -38.355 -49.349  11.658  1.00  0.00     0.090 A 
ATOM      9  HN  UNL     1     -39.150 -47.582  10.961  1.00  0.00     0.166 HD
HETATM   10  C   UNL     1     -38.543 -50.607  12.181  1.00  0.00     0.019 A 
HETATM   11  C   UNL     1     -39.848 -51.008  12.409  1.00  0.00     0.035 A 
BRANCH   6  12
HETATM   12  N   UNL     1     -41.608 -47.882  11.337  1.00  0.00    -0.374 N 
HETATM   13  C   UNL     1     -42.121 -46.928  12.289  1.00  0.00     0.150 C 
HETATM   14  C   UNL     1     -42.218 -47.883  10.005  1.00  0.00     0.150 C 
ENDBRANCH   6  12
ENDBRANCH   1   5
BRANCH   2  15
HETATM   15  C   UNL     1     -44.385 -51.090  13.233  1.00  0.00     0.271 C 
BRANCH  15  16
HETATM   16  O   UNL     1     -44.291 -52.410  12.709  1.00  0.00    -0.377 OA
BRANCH  16  17
HETATM   17  C   UNL     1     -45.432 -53.203  12.989  1.00  0.00     0.122 C 
HETATM   18  C   UNL     1     -46.456 -52.357  13.753  1.00  0.00     0.032 C 
HETATM   19  C   UNL     1     -46.987 -53.238  14.883  1.00  0.00     0.002 C 
HETATM   20  C   UNL     1     -46.422 -54.627  14.627  1.00  0.00     0.002 C 
HETATM   21  C   UNL     1     -45.105 -54.357  13.926  1.00  0.00     0.032 C 
ENDBRANCH  16  17
ENDBRANCH  15  16
ENDBRANCH   2  15
TORSDOF 5
ENDMDL
