MODEL 1
REMARK VINA RESULT:      -5.8      0.000      0.000
REMARK  3 active torsions:
REMARK  status: ('A' for Active; 'I' for Inactive)
REMARK    1  A    between atoms: O_1  and  C_2 
REMARK    2  A    between atoms: C_2  and  C_3 
REMARK    3  A    between atoms: C_3  and  N_4 
ROOT
HETATM    1  N   UNL     1     -43.859 -54.117  13.379  1.00  0.00    -0.338 N 
HETATM    2  C   UNL     1     -43.562 -53.406  12.247  1.00  0.00     0.184 A 
HETATM    3  N   UNL     1     -42.280 -53.139  12.161  1.00  0.00    -0.350 N 
ATOM      4  HN  UNL     1     -41.805 -52.613  11.428  1.00  0.00     0.166 HD
HETATM    5  C   UNL     1     -41.715 -53.719  13.270  1.00  0.00     0.060 A 
HETATM    6  C   UNL     1     -40.369 -53.780  13.658  1.00  0.00     0.032 A 
HETATM    7  C   UNL     1     -40.037 -54.444  14.845  1.00  0.00     0.002 A 
HETATM    8  C   UNL     1     -41.030 -55.022  15.639  1.00  0.00     0.002 A 
HETATM    9  C   UNL     1     -42.379 -54.972  15.269  1.00  0.00     0.032 A 
HETATM   10  C   UNL     1     -42.686 -54.321  14.068  1.00  0.00     0.062 A 
ENDROOT
BRANCH   1  11
HETATM   11  C   UNL     1     -45.159 -54.675  13.700  1.00  0.00     0.167 C 
BRANCH  11  12
HETATM   12  C   UNL     1     -46.098 -53.750  14.507  1.00  0.00     0.074 C 
HETATM   13  C   UNL     1     -45.700 -53.655  15.992  1.00  0.00     0.039 C 
HETATM   14  C   UNL     1     -46.514 -52.609  16.758  1.00  0.00     0.003 C 
HETATM   15  C   UNL     1     -46.454 -51.241  16.088  1.00  0.00     0.000 C 
HETATM   16  C   UNL     1     -46.893 -51.320  14.631  1.00  0.00     0.003 C 
HETATM   17  C   UNL     1     -46.069 -52.349  13.858  1.00  0.00     0.039 C 
BRANCH  12  18
HETATM   18  O   UNL     1     -47.448 -54.222  14.406  1.00  0.00    -0.388 OA
HETATM   19  H   UNL     1     -47.447 -55.054  13.898  1.00  0.00     0.210 HD
ENDBRANCH  12  18
ENDBRANCH  11  12
ENDBRANCH   1  11
TORSDOF 3
ENDMDL
MODEL 2
REMARK VINA RESULT:      -5.8      6.377      8.759
REMARK  3 active torsions:
REMARK  status: ('A' for Active; 'I' for Inactive)
REMARK    1  A    between atoms: O_1  and  C_2 
REMARK    2  A    between atoms: C_2  and  C_3 
REMARK    3  A    between atoms: C_3  and  N_4 
ROOT
HETATM    1  N   UNL     1     -41.386 -47.332  11.209  1.00  0.00    -0.338 N 
HETATM    2  C   UNL     1     -40.585 -46.327  10.739  1.00  0.00     0.184 A 
HETATM    3  N   UNL     1     -41.194 -45.600   9.832  1.00  0.00    -0.350 N 
ATOM      4  HN  UNL     1     -40.815 -44.805   9.318  1.00  0.00     0.166 HD
HETATM    5  C   UNL     1     -42.452 -46.140   9.723  1.00  0.00     0.060 A 
HETATM    6  C   UNL     1     -43.535 -45.728   8.932  1.00  0.00     0.032 A 
HETATM    7  C   UNL     1     -44.734 -46.448   9.001  1.00  0.00     0.002 A 
HETATM    8  C   UNL     1     -44.848 -47.565   9.831  1.00  0.00     0.002 A 
HETATM    9  C   UNL     1     -43.778 -47.992  10.628  1.00  0.00     0.032 A 
HETATM   10  C   UNL     1     -42.596 -47.246  10.559  1.00  0.00     0.062 A 
ENDROOT
BRANCH   1  11
HETATM   11  C   UNL     1     -41.054 -48.225  12.303  1.00  0.00     0.167 C 
BRANCH  11  12
HETATM   12  C   UNL     1     -40.045 -49.345  11.965  1.00  0.00     0.074 C 
HETATM   13  C   UNL     1     -38.594 -48.832  11.899  1.00  0.00     0.039 C 
HETATM   14  C   UNL     1     -37.573 -49.961  11.739  1.00  0.00     0.003 C 
HETATM   15  C   UNL     1     -37.729 -51.024  12.821  1.00  0.00     0.000 C 
HETATM   16  C   UNL     1     -39.150 -51.570  12.859  1.00  0.00     0.003 C 
HETATM   17  C   UNL     1     -40.171 -50.448  13.039  1.00  0.00     0.039 C 
BRANCH  12  18
HETATM   18  O   UNL     1     -40.393 -49.949  10.713  1.00  0.00    -0.388 OA
HETATM   19  H   UNL     1     -40.801 -49.270  10.144  1.00  0.00     0.210 HD
ENDBRANCH  12  18
ENDBRANCH  11  12
ENDBRANCH   1  11
TORSDOF 3
ENDMDL
MODEL 3
REMARK VINA RESULT:      -5.8      3.409      4.487
REMARK  3 active torsions:
REMARK  status: ('A' for Active; 'I' for Inactive)
REMARK    1  A    between atoms: O_1  and  C_2 
REMARK    2  A    between atoms: C_2  and  C_3 
REMARK    3  A    between atoms: C_3  and  N_4 
ROOT
HETATM    1  N   UNL     1     -42.062 -51.389  12.801  1.00  0.00    -0.338 N 
HETATM    2  C   UNL     1     -41.105 -51.862  11.944  1.00  0.00     0.184 A 
HETATM    3  N   UNL     1     -40.657 -50.921  11.146  1.00  0.00    -0.350 N 
ATOM      4  HN  UNL     1     -39.956 -51.014  10.411  1.00  0.00     0.166 HD
HETATM    5  C   UNL     1     -41.334 -49.784  11.513  1.00  0.00     0.060 A 
HETATM    6  C   UNL     1     -41.215 -48.476  11.021  1.00  0.00     0.032 A 
HETATM    7  C   UNL     1     -42.022 -47.472  11.569  1.00  0.00     0.002 A 
HETATM    8  C   UNL     1     -42.941 -47.768  12.579  1.00  0.00     0.002 A 
HETATM    9  C   UNL     1     -43.073 -49.067  13.084  1.00  0.00     0.032 A 
HETATM   10  C   UNL     1     -42.243 -50.052  12.536  1.00  0.00     0.062 A 
ENDROOT
BRANCH   1  11
HETATM   11  C   UNL     1     -42.660 -52.144  13.886  1.00  0.00     0.167 C 
BRANCH  11  12
HETATM   12  C   UNL     1     -44.031 -52.785  13.574  1.00  0.00     0.074 C 
HETATM   13  C   UNL     1     -44.116 -54.252  14.036  1.00  0.00     0.039 C 
HETATM   14  C   UNL     1     -45.522 -54.839  13.891  1.00  0.00     0.003 C 
HETATM   15  C   UNL     1     -46.569 -53.982  14.595  1.00  0.00     0.000 C 
HETATM   16  C   UNL     1     -46.523 -52.540  14.108  1.00  0.00     0.003 C 
HETATM   17  C   UNL     1     -45.125 -51.944  14.270  1.00  0.00     0.039 C 
BRANCH  12  18
HETATM   18  O   UNL     1     -44.291 -52.714  12.167  1.00  0.00    -0.388 OA
HETATM   19  H   UNL     1     -43.441 -52.612  11.700  1.00  0.00     0.210 HD
ENDBRANCH  12  18
ENDBRANCH  11  12
ENDBRANCH   1  11
TORSDOF 3
ENDMDL
MODEL 4
REMARK VINA RESULT:      -5.7      2.775      5.833
REMARK  3 active torsions:
REMARK  status: ('A' for Active; 'I' for Inactive)
REMARK    1  A    between atoms: O_1  and  C_2 
REMARK    2  A    between atoms: C_2  and  C_3 
REMARK    3  A    between atoms: C_3  and  N_4 
ROOT
HETATM    1  N   UNL     1     -43.082 -53.004  14.226  1.00  0.00    -0.338 N 
HETATM    2  C   UNL     1     -42.803 -53.006  15.566  1.00  0.00     0.184 A 
HETATM    3  N   UNL     1     -43.785 -52.493  16.270  1.00  0.00    -0.350 N 
ATOM      4  HN  UNL     1     -43.822 -52.366  17.280  1.00  0.00     0.166 HD
HETATM    5  C   UNL     1     -44.753 -52.166  15.352  1.00  0.00     0.060 A 
HETATM    6  C   UNL     1     -46.031 -51.625  15.557  1.00  0.00     0.032 A 
HETATM    7  C   UNL     1     -46.848 -51.382  14.447  1.00  0.00     0.002 A 
HETATM    8  C   UNL     1     -46.395 -51.659  13.155  1.00  0.00     0.002 A 
HETATM    9  C   UNL     1     -45.123 -52.199  12.930  1.00  0.00     0.032 A 
HETATM   10  C   UNL     1     -44.330 -52.453  14.055  1.00  0.00     0.062 A 
ENDROOT
BRANCH   1  11
HETATM   11  C   UNL     1     -42.259 -53.616  13.199  1.00  0.00     0.167 C 
BRANCH  11  12
HETATM   12  C   UNL     1     -41.149 -52.715  12.612  1.00  0.00     0.074 C 
HETATM   13  C   UNL     1     -41.676 -51.333  12.181  1.00  0.00     0.039 C 
HETATM   14  C   UNL     1     -40.557 -50.376  11.765  1.00  0.00     0.003 C 
HETATM   15  C   UNL     1     -39.492 -50.242  12.848  1.00  0.00     0.000 C 
HETATM   16  C   UNL     1     -38.932 -51.602  13.244  1.00  0.00     0.003 C 
HETATM   17  C   UNL     1     -40.045 -52.554  13.680  1.00  0.00     0.039 C 
BRANCH  12  18
HETATM   18  O   UNL     1     -40.542 -53.364  11.487  1.00  0.00    -0.388 OA
HETATM   19  H   UNL     1     -41.088 -53.191  10.698  1.00  0.00     0.210 HD
ENDBRANCH  12  18
ENDBRANCH  11  12
ENDBRANCH   1  11
TORSDOF 3
ENDMDL
MODEL 5
REMARK VINA RESULT:      -5.7      1.351      1.739
REMARK  3 active torsions:
REMARK  status: ('A' for Active; 'I' for Inactive)
REMARK    1  A    between atoms: O_1  and  C_2 
REMARK    2  A    between atoms: C_2  and  C_3 
REMARK    3  A    between atoms: C_3  and  N_4 
ROOT
HETATM    1  N   UNL     1     -42.677 -53.052  12.736  1.00  0.00    -0.338 N 
HETATM    2  C   UNL     1     -41.898 -52.061  12.203  1.00  0.00     0.184 A 
HETATM    3  N   UNL     1     -40.775 -51.913  12.867  1.00  0.00    -0.350 N 
ATOM      4  HN  UNL     1     -40.033 -51.238  12.685  1.00  0.00     0.166 HD
HETATM    5  C   UNL     1     -40.815 -52.862  13.858  1.00  0.00     0.060 A 
HETATM    6  C   UNL     1     -39.854 -53.178  14.830  1.00  0.00     0.032 A 
HETATM    7  C   UNL     1     -40.127 -54.206  15.740  1.00  0.00     0.002 A 
HETATM    8  C   UNL     1     -41.341 -54.897  15.692  1.00  0.00     0.002 A 
HETATM    9  C   UNL     1     -42.311 -54.597  14.729  1.00  0.00     0.032 A 
HETATM   10  C   UNL     1     -42.010 -53.579  13.817  1.00  0.00     0.062 A 
ENDROOT
BRANCH   1  11
HETATM   11  C   UNL     1     -43.914 -53.544  12.159  1.00  0.00     0.167 C 
BRANCH  11  12
HETATM   12  C   UNL     1     -45.209 -53.063  12.853  1.00  0.00     0.074 C 
HETATM   13  C   UNL     1     -45.748 -54.085  13.872  1.00  0.00     0.039 C 
HETATM   14  C   UNL     1     -46.924 -53.544  14.687  1.00  0.00     0.003 C 
HETATM   15  C   UNL     1     -46.585 -52.221  15.365  1.00  0.00     0.000 C 
HETATM   16  C   UNL     1     -46.098 -51.191  14.355  1.00  0.00     0.003 C 
HETATM   17  C   UNL     1     -44.909 -51.720  13.553  1.00  0.00     0.039 C 
BRANCH  12  18
HETATM   18  O   UNL     1     -46.217 -52.798  11.868  1.00  0.00    -0.388 OA
HETATM   19  H   UNL     1     -46.500 -53.646  11.479  1.00  0.00     0.210 HD
ENDBRANCH  12  18
ENDBRANCH  11  12
ENDBRANCH   1  11
TORSDOF 3
ENDMDL
MODEL 6
REMARK VINA RESULT:      -5.7      3.523      4.715
REMARK  3 active torsions:
REMARK  status: ('A' for Active; 'I' for Inactive)
REMARK    1  A    between atoms: O_1  and  C_2 
REMARK    2  A    between atoms: C_2  and  C_3 
REMARK    3  A    between atoms: C_3  and  N_4 
ROOT
HETATM    1  N   UNL     1     -41.329 -50.077  12.512  1.00  0.00    -0.338 N 
HETATM    2  C   UNL     1     -41.449 -49.312  11.383  1.00  0.00     0.184 A 
HETATM    3  N   UNL     1     -40.289 -49.112  10.804  1.00  0.00    -0.350 N 
ATOM      4  HN  UNL     1     -40.102 -48.567   9.962  1.00  0.00     0.166 HD
HETATM    5  C   UNL     1     -39.379 -49.793  11.574  1.00  0.00     0.060 A 
HETATM    6  C   UNL     1     -37.998 -49.955  11.391  1.00  0.00     0.032 A 
HETATM    7  C   UNL     1     -37.277 -50.711  12.323  1.00  0.00     0.002 A 
HETATM    8  C   UNL     1     -37.917 -51.284  13.425  1.00  0.00     0.002 A 
HETATM    9  C   UNL     1     -39.295 -51.134  13.624  1.00  0.00     0.032 A 
HETATM   10  C   UNL     1     -39.999 -50.391  12.670  1.00  0.00     0.062 A 
ENDROOT
BRANCH   1  11
HETATM   11  C   UNL     1     -42.437 -50.581  13.303  1.00  0.00     0.167 C 
BRANCH  11  12
HETATM   12  C   UNL     1     -42.844 -52.045  13.020  1.00  0.00     0.074 C 
HETATM   13  C   UNL     1     -42.239 -53.033  14.035  1.00  0.00     0.039 C 
HETATM   14  C   UNL     1     -42.776 -54.456  13.869  1.00  0.00     0.003 C 
HETATM   15  C   UNL     1     -44.300 -54.496  13.909  1.00  0.00     0.000 C 
HETATM   16  C   UNL     1     -44.905 -53.556  12.874  1.00  0.00     0.003 C 
HETATM   17  C   UNL     1     -44.386 -52.129  13.050  1.00  0.00     0.039 C 
BRANCH  12  18
HETATM   18  O   UNL     1     -42.437 -52.414  11.696  1.00  0.00    -0.388 OA
HETATM   19  H   UNL     1     -43.195 -52.292  11.094  1.00  0.00     0.210 HD
ENDBRANCH  12  18
ENDBRANCH  11  12
ENDBRANCH   1  11
TORSDOF 3
ENDMDL
MODEL 7
REMARK VINA RESULT:      -5.6      2.275      5.442
REMARK  3 active torsions:
REMARK  status: ('A' for Active; 'I' for Inactive)
REMARK    1  A    between atoms: O_1  and  C_2 
REMARK    2  A    between atoms: C_2  and  C_3 
REMARK    3  A    between atoms: C_3  and  N_4 
ROOT
HETATM    1  N   UNL     1     -43.899 -53.027  12.948  1.00  0.00    -0.338 N 
HETATM    2  C   UNL     1     -44.646 -54.152  12.722  1.00  0.00     0.184 A 
HETATM    3  N   UNL     1     -45.693 -54.209  13.512  1.00  0.00    -0.350 N 
ATOM      4  HN  UNL     1     -46.395 -54.946  13.555  1.00  0.00     0.166 HD
HETATM    5  C   UNL     1     -45.638 -53.064  14.267  1.00  0.00     0.060 A 
HETATM    6  C   UNL     1     -46.531 -52.593  15.241  1.00  0.00     0.032 A 
HETATM    7  C   UNL     1     -46.257 -51.376  15.876  1.00  0.00     0.002 A 
HETATM    8  C   UNL     1     -45.108 -50.649  15.559  1.00  0.00     0.002 A 
HETATM    9  C   UNL     1     -44.205 -51.102  14.590  1.00  0.00     0.032 A 
HETATM   10  C   UNL     1     -44.508 -52.311  13.952  1.00  0.00     0.062 A 
ENDROOT
BRANCH   1  11
HETATM   11  C   UNL     1     -42.757 -52.608  12.157  1.00  0.00     0.167 C 
BRANCH  11  12
HETATM   12  C   UNL     1     -41.373 -52.964  12.746  1.00  0.00     0.074 C 
HETATM   13  C   UNL     1     -40.694 -51.762  13.428  1.00  0.00     0.039 C 
HETATM   14  C   UNL     1     -39.409 -52.147  14.164  1.00  0.00     0.003 C 
HETATM   15  C   UNL     1     -39.641 -53.280  15.157  1.00  0.00     0.000 C 
HETATM   16  C   UNL     1     -40.269 -54.490  14.479  1.00  0.00     0.003 C 
HETATM   17  C   UNL     1     -41.564 -54.114  13.760  1.00  0.00     0.039 C 
BRANCH  12  18
HETATM   18  O   UNL     1     -40.520 -53.467  11.709  1.00  0.00    -0.388 OA
HETATM   19  H   UNL     1     -41.078 -53.769  10.969  1.00  0.00     0.210 HD
ENDBRANCH  12  18
ENDBRANCH  11  12
ENDBRANCH   1  11
TORSDOF 3
ENDMDL
MODEL 8
REMARK VINA RESULT:      -5.6      2.488      5.482
REMARK  3 active torsions:
REMARK  status: ('A' for Active; 'I' for Inactive)
REMARK    1  A    between atoms: O_1  and  C_2 
REMARK    2  A    between atoms: C_2  and  C_3 
REMARK    3  A    between atoms: C_3  and  N_4 
ROOT
HETATM    1  N   UNL     1     -43.438 -52.182  13.180  1.00  0.00    -0.338 N 
HETATM    2  C   UNL     1     -43.515 -51.095  14.008  1.00  0.00     0.184 A 
HETATM    3  N   UNL     1     -44.429 -51.252  14.937  1.00  0.00    -0.350 N 
ATOM      4  HN  UNL     1     -44.694 -50.588  15.664  1.00  0.00     0.166 HD
HETATM    5  C   UNL     1     -44.954 -52.502  14.719  1.00  0.00     0.060 A 
HETATM    6  C   UNL     1     -45.932 -53.198  15.443  1.00  0.00     0.032 A 
HETATM    7  C   UNL     1     -46.299 -54.482  15.022  1.00  0.00     0.002 A 
HETATM    8  C   UNL     1     -45.713 -55.056  13.892  1.00  0.00     0.002 A 
HETATM    9  C   UNL     1     -44.734 -54.377  13.156  1.00  0.00     0.032 A 
HETATM   10  C   UNL     1     -44.367 -53.103  13.606  1.00  0.00     0.062 A 
ENDROOT
BRANCH   1  11
HETATM   11  C   UNL     1     -42.446 -52.373  12.139  1.00  0.00     0.167 C 
BRANCH  11  12
HETATM   12  C   UNL     1     -41.053 -52.833  12.624  1.00  0.00     0.074 C 
HETATM   13  C   UNL     1     -40.213 -51.673  13.192  1.00  0.00     0.039 C 
HETATM   14  C   UNL     1     -38.907 -52.146  13.833  1.00  0.00     0.003 C 
HETATM   15  C   UNL     1     -39.149 -53.215  14.893  1.00  0.00     0.000 C 
HETATM   16  C   UNL     1     -39.938 -54.387  14.324  1.00  0.00     0.003 C 
HETATM   17  C   UNL     1     -41.253 -53.922  13.701  1.00  0.00     0.039 C 
BRANCH  12  18
HETATM   18  O   UNL     1     -40.342 -53.449  11.543  1.00  0.00    -0.388 OA
HETATM   19  H   UNL     1     -40.708 -54.342  11.401  1.00  0.00     0.210 HD
ENDBRANCH  12  18
ENDBRANCH  11  12
ENDBRANCH   1  11
TORSDOF 3
ENDMDL
MODEL 9
REMARK VINA RESULT:      -5.5      3.410      6.098
REMARK  3 active torsions:
REMARK  status: ('A' for Active; 'I' for Inactive)
REMARK    1  A    between atoms: O_1  and  C_2 
REMARK    2  A    between atoms: C_2  and  C_3 
REMARK    3  A    between atoms: C_3  and  N_4 
ROOT
HETATM    1  N   UNL     1     -42.391 -51.732  13.643  1.00  0.00    -0.338 N 
HETATM    2  C   UNL     1     -43.249 -50.868  13.020  1.00  0.00     0.184 A 
HETATM    3  N   UNL     1     -44.419 -51.418  12.795  1.00  0.00    -0.350 N 
ATOM      4  HN  UNL     1     -45.224 -50.996  12.334  1.00  0.00     0.166 HD
HETATM    5  C   UNL     1     -44.326 -52.686  13.314  1.00  0.00     0.060 A 
HETATM    6  C   UNL     1     -45.299 -53.694  13.388  1.00  0.00     0.032 A 
HETATM    7  C   UNL     1     -44.960 -54.917  13.978  1.00  0.00     0.002 A 
HETATM    8  C   UNL     1     -43.673 -55.138  14.473  1.00  0.00     0.002 A 
HETATM    9  C   UNL     1     -42.689 -54.144  14.410  1.00  0.00     0.032 A 
HETATM   10  C   UNL     1     -43.054 -52.922  13.834  1.00  0.00     0.062 A 
ENDROOT
BRANCH   1  11
HETATM   11  C   UNL     1     -41.072 -51.389  14.141  1.00  0.00     0.167 C 
BRANCH  11  12
HETATM   12  C   UNL     1     -39.982 -51.198  13.061  1.00  0.00     0.074 C 
HETATM   13  C   UNL     1     -40.038 -49.806  12.404  1.00  0.00     0.039 C 
HETATM   14  C   UNL     1     -38.860 -49.547  11.463  1.00  0.00     0.003 C 
HETATM   15  C   UNL     1     -37.520 -49.771  12.157  1.00  0.00     0.000 C 
HETATM   16  C   UNL     1     -37.440 -51.164  12.767  1.00  0.00     0.003 C 
HETATM   17  C   UNL     1     -38.604 -51.419  13.723  1.00  0.00     0.039 C 
BRANCH  12  18
HETATM   18  O   UNL     1     -40.120 -52.206  12.051  1.00  0.00    -0.388 OA
HETATM   19  H   UNL     1     -39.272 -52.287  11.576  1.00  0.00     0.210 HD
ENDBRANCH  12  18
ENDBRANCH  11  12
ENDBRANCH   1  11
TORSDOF 3
ENDMDL
