MODEL 1
REMARK VINA RESULT:      -6.5      0.000      0.000
REMARK  3 active torsions:
REMARK  status: ('A' for Active; 'I' for Inactive)
REMARK    1  A    between atoms: C_4  and  N_5 
REMARK       I    between atoms: N_5  and  C_6 
REMARK       I    between atoms: C_6  and  N_8 
REMARK    2  A    between atoms: N_8  and  C_9 
REMARK    3  A    between atoms: C_9  and  C_10 
ROOT
HETATM    1  N   UNL     1     -40.819 -50.993  11.147  1.00  0.00    -0.293 N 
HETATM    2  C   UNL     1     -41.112 -51.728  12.328  1.00  0.00     0.321 C 
HETATM    3  O   UNL     1     -41.144 -51.222  13.436  1.00  0.00    -0.247 OA
HETATM    4  N   UNL     1     -41.342 -53.047  12.057  1.00  0.00    -0.342 N 
HETATM    5  H   UNL     1     -40.772 -51.481  10.267  1.00  0.00     0.172 HD
HETATM    6  H   UNL     1     -41.426 -53.384  11.111  1.00  0.00     0.164 HD
ENDROOT
BRANCH   1   7
HETATM    7  C   UNL     1     -40.570 -49.617  11.155  1.00  0.00     0.127 A 
HETATM    8  C   UNL     1     -41.449 -48.599  10.852  1.00  0.00     0.076 A 
HETATM    9  C   UNL     1     -40.724 -47.399  11.011  1.00  0.00     0.025 A 
HETATM   10  C   UNL     1     -41.216 -46.015  10.808  1.00  0.00     0.070 C 
HETATM   11  N   UNL     1     -39.464 -47.637  11.388  1.00  0.00    -0.302 N 
HETATM   12  N   UNL     1     -39.392 -48.980  11.470  1.00  0.00    -0.281 N 
ATOM     13  HN  UNL     1     -38.726 -46.956  11.572  1.00  0.00     0.186 HD
HETATM   14  C   UNL     1     -38.130 -49.558  11.864  1.00  0.00     0.179 C 
ENDBRANCH   1   7
BRANCH   4  15
HETATM   15  C   UNL     1     -41.713 -53.901  13.169  1.00  0.00     0.130 C 
BRANCH  15  16
HETATM   16  C   UNL     1     -43.177 -54.326  13.174  1.00  0.00     0.018 C 
HETATM   17  C   UNL     1     -44.060 -53.265  12.481  1.00  0.00     0.022 C 
HETATM   18  C   UNL     1     -45.490 -53.330  13.024  1.00  0.00     0.141 C 
HETATM   19  S   UNL     1     -45.489 -54.499  14.363  1.00  0.00     0.144 S 
HETATM   20  O   UNL     1     -46.100 -53.909  15.533  1.00  0.00    -0.228 OA
HETATM   21  O   UNL     1     -45.872 -55.797  13.848  1.00  0.00    -0.228 OA
HETATM   22  C   UNL     1     -43.731 -54.507  14.583  1.00  0.00     0.146 C 
ENDBRANCH  15  16
ENDBRANCH   4  15
TORSDOF 3
ENDMDL
MODEL 2
REMARK VINA RESULT:      -6.4      3.516      7.379
REMARK  3 active torsions:
REMARK  status: ('A' for Active; 'I' for Inactive)
REMARK    1  A    between atoms: C_4  and  N_5 
REMARK       I    between atoms: N_5  and  C_6 
REMARK       I    between atoms: C_6  and  N_8 
REMARK    2  A    between atoms: N_8  and  C_9 
REMARK    3  A    between atoms: C_9  and  C_10 
ROOT
HETATM    1  N   UNL     1     -42.109 -52.405  11.648  1.00  0.00    -0.293 N 
HETATM    2  C   UNL     1     -41.479 -51.210  12.090  1.00  0.00     0.321 C 
HETATM    3  O   UNL     1     -41.533 -50.814  13.241  1.00  0.00    -0.247 OA
HETATM    4  N   UNL     1     -40.824 -50.578  11.071  1.00  0.00    -0.342 N 
HETATM    5  H   UNL     1     -42.054 -52.654  10.674  1.00  0.00     0.172 HD
HETATM    6  H   UNL     1     -40.706 -51.014  10.170  1.00  0.00     0.164 HD
ENDROOT
BRANCH   1   7
HETATM    7  C   UNL     1     -42.822 -53.245  12.508  1.00  0.00     0.127 A 
HETATM    8  C   UNL     1     -44.183 -53.462  12.537  1.00  0.00     0.076 A 
HETATM    9  C   UNL     1     -44.407 -54.391  13.576  1.00  0.00     0.025 A 
HETATM   10  C   UNL     1     -45.705 -54.957  14.014  1.00  0.00     0.070 C 
HETATM   11  N   UNL     1     -43.263 -54.740  14.172  1.00  0.00    -0.302 N 
HETATM   12  N   UNL     1     -42.320 -54.038  13.513  1.00  0.00    -0.281 N 
ATOM     13  HN  UNL     1     -43.134 -55.389  14.949  1.00  0.00     0.186 HD
HETATM   14  C   UNL     1     -40.949 -54.205  13.933  1.00  0.00     0.179 C 
ENDBRANCH   1   7
BRANCH   4  15
HETATM   15  C   UNL     1     -40.084 -49.374  11.398  1.00  0.00     0.130 C 
BRANCH  15  16
HETATM   16  C   UNL     1     -40.928 -48.105  11.420  1.00  0.00     0.018 C 
HETATM   17  C   UNL     1     -41.955 -48.107  10.266  1.00  0.00     0.022 C 
HETATM   18  C   UNL     1     -42.323 -46.672   9.880  1.00  0.00     0.141 C 
HETATM   19  S   UNL     1     -41.269 -45.592  10.820  1.00  0.00     0.144 S 
HETATM   20  O   UNL     1     -40.628 -44.639   9.940  1.00  0.00    -0.228 OA
HETATM   21  O   UNL     1     -41.963 -45.199  12.028  1.00  0.00    -0.228 OA
HETATM   22  C   UNL     1     -40.090 -46.840  11.260  1.00  0.00     0.146 C 
ENDBRANCH  15  16
ENDBRANCH   4  15
TORSDOF 3
ENDMDL
MODEL 3
REMARK VINA RESULT:      -6.3      2.427      3.006
REMARK  3 active torsions:
REMARK  status: ('A' for Active; 'I' for Inactive)
REMARK    1  A    between atoms: C_4  and  N_5 
REMARK       I    between atoms: N_5  and  C_6 
REMARK       I    between atoms: C_6  and  N_8 
REMARK    2  A    between atoms: N_8  and  C_9 
REMARK    3  A    between atoms: C_9  and  C_10 
ROOT
HETATM    1  N   UNL     1     -42.391 -49.095  11.267  1.00  0.00    -0.293 N 
HETATM    2  C   UNL     1     -43.004 -49.234  12.543  1.00  0.00     0.321 C 
HETATM    3  O   UNL     1     -43.126 -48.311  13.327  1.00  0.00    -0.247 OA
HETATM    4  N   UNL     1     -43.422 -50.516  12.764  1.00  0.00    -0.342 N 
HETATM    5  H   UNL     1     -42.289 -49.908  10.683  1.00  0.00     0.172 HD
HETATM    6  H   UNL     1     -43.408 -51.209  12.032  1.00  0.00     0.164 HD
ENDROOT
BRANCH   1   7
HETATM    7  C   UNL     1     -41.901 -47.874  10.794  1.00  0.00     0.127 A 
HETATM    8  C   UNL     1     -40.748 -47.223  11.176  1.00  0.00     0.076 A 
HETATM    9  C   UNL     1     -40.697 -46.038  10.411  1.00  0.00     0.025 A 
HETATM   10  C   UNL     1     -39.651 -44.989  10.441  1.00  0.00     0.070 C 
HETATM   11  N   UNL     1     -41.753 -45.939   9.597  1.00  0.00    -0.302 N 
HETATM   12  N   UNL     1     -42.466 -47.056   9.843  1.00  0.00    -0.281 N 
ATOM     13  HN  UNL     1     -41.969 -45.189   8.939  1.00  0.00     0.186 HD
HETATM   14  C   UNL     1     -43.689 -47.244   9.101  1.00  0.00     0.179 C 
ENDBRANCH   1   7
BRANCH   4  15
HETATM   15  C   UNL     1     -44.121 -50.785  14.006  1.00  0.00     0.130 C 
BRANCH  15  16
HETATM   16  C   UNL     1     -44.900 -52.094  14.019  1.00  0.00     0.018 C 
HETATM   17  C   UNL     1     -46.413 -51.833  14.185  1.00  0.00     0.022 C 
HETATM   18  C   UNL     1     -47.094 -53.042  14.830  1.00  0.00     0.141 C 
HETATM   19  S   UNL     1     -45.809 -54.185  15.281  1.00  0.00     0.144 S 
HETATM   20  O   UNL     1     -45.960 -54.577  16.665  1.00  0.00    -0.228 OA
HETATM   21  O   UNL     1     -45.641 -55.144  14.208  1.00  0.00    -0.228 OA
HETATM   22  C   UNL     1     -44.485 -53.013  15.164  1.00  0.00     0.146 C 
ENDBRANCH  15  16
ENDBRANCH   4  15
TORSDOF 3
ENDMDL
MODEL 4
REMARK VINA RESULT:      -6.3      1.891      2.675
REMARK  3 active torsions:
REMARK  status: ('A' for Active; 'I' for Inactive)
REMARK    1  A    between atoms: C_4  and  N_5 
REMARK       I    between atoms: N_5  and  C_6 
REMARK       I    between atoms: C_6  and  N_8 
REMARK    2  A    between atoms: N_8  and  C_9 
REMARK    3  A    between atoms: C_9  and  C_10 
ROOT
HETATM    1  N   UNL     1     -41.181 -48.968  10.526  1.00  0.00    -0.293 N 
HETATM    2  C   UNL     1     -41.197 -49.774  11.697  1.00  0.00     0.321 C 
HETATM    3  O   UNL     1     -41.266 -49.311  12.822  1.00  0.00    -0.247 OA
HETATM    4  N   UNL     1     -41.120 -51.104  11.396  1.00  0.00    -0.342 N 
HETATM    5  H   UNL     1     -41.085 -49.414   9.628  1.00  0.00     0.172 HD
HETATM    6  H   UNL     1     -41.192 -51.434  10.446  1.00  0.00     0.164 HD
ENDROOT
BRANCH   1   7
HETATM    7  C   UNL     1     -41.273 -47.574  10.567  1.00  0.00     0.127 A 
HETATM    8  C   UNL     1     -40.287 -46.673  10.909  1.00  0.00     0.076 A 
HETATM    9  C   UNL     1     -40.871 -45.394  10.792  1.00  0.00     0.025 A 
HETATM   10  C   UNL     1     -40.227 -44.083  11.045  1.00  0.00     0.070 C 
HETATM   11  N   UNL     1     -42.147 -45.474  10.404  1.00  0.00    -0.302 N 
HETATM   12  N   UNL     1     -42.370 -46.797  10.273  1.00  0.00    -0.281 N 
ATOM     13  HN  UNL     1     -42.803 -44.709  10.243  1.00  0.00     0.186 HD
HETATM   14  C   UNL     1     -43.687 -47.214   9.856  1.00  0.00     0.179 C 
ENDBRANCH   1   7
BRANCH   4  15
HETATM   15  C   UNL     1     -41.188 -52.043  12.500  1.00  0.00     0.130 C 
BRANCH  15  16
HETATM   16  C   UNL     1     -42.571 -52.641  12.732  1.00  0.00     0.018 C 
HETATM   17  C   UNL     1     -43.331 -51.860  13.826  1.00  0.00     0.022 C 
HETATM   18  C   UNL     1     -44.360 -52.766  14.507  1.00  0.00     0.141 C 
HETATM   19  S   UNL     1     -44.123 -54.405  13.859  1.00  0.00     0.144 S 
HETATM   20  O   UNL     1     -44.000 -55.352  14.945  1.00  0.00    -0.228 OA
HETATM   21  O   UNL     1     -45.029 -54.601  12.746  1.00  0.00    -0.228 OA
HETATM   22  C   UNL     1     -42.511 -54.095  13.190  1.00  0.00     0.146 C 
ENDBRANCH  15  16
ENDBRANCH   4  15
TORSDOF 3
ENDMDL
MODEL 5
REMARK VINA RESULT:      -6.0      3.516      7.511
REMARK  3 active torsions:
REMARK  status: ('A' for Active; 'I' for Inactive)
REMARK    1  A    between atoms: C_4  and  N_5 
REMARK       I    between atoms: N_5  and  C_6 
REMARK       I    between atoms: C_6  and  N_8 
REMARK    2  A    between atoms: N_8  and  C_9 
REMARK    3  A    between atoms: C_9  and  C_10 
ROOT
HETATM    1  N   UNL     1     -42.011 -52.481  11.871  1.00  0.00    -0.293 N 
HETATM    2  C   UNL     1     -41.338 -51.262  12.160  1.00  0.00     0.321 C 
HETATM    3  O   UNL     1     -41.193 -50.835  13.292  1.00  0.00    -0.247 OA
HETATM    4  N   UNL     1     -40.893 -50.649  11.023  1.00  0.00    -0.342 N 
HETATM    5  H   UNL     1     -42.128 -52.757  10.909  1.00  0.00     0.172 HD
HETATM    6  H   UNL     1     -40.930 -51.109  10.127  1.00  0.00     0.164 HD
ENDROOT
BRANCH   1   7
HETATM    7  C   UNL     1     -42.538 -53.308  12.866  1.00  0.00     0.127 A 
HETATM    8  C   UNL     1     -41.848 -54.098  13.760  1.00  0.00     0.076 A 
HETATM    9  C   UNL     1     -42.826 -54.731  14.556  1.00  0.00     0.025 A 
HETATM   10  C   UNL     1     -42.603 -55.683  15.671  1.00  0.00     0.070 C 
HETATM   11  N   UNL     1     -44.060 -54.370  14.192  1.00  0.00    -0.302 N 
HETATM   12  N   UNL     1     -43.864 -53.511  13.172  1.00  0.00    -0.281 N 
ATOM     13  HN  UNL     1     -44.947 -54.675  14.593  1.00  0.00     0.186 HD
HETATM   14  C   UNL     1     -45.033 -52.935  12.551  1.00  0.00     0.179 C 
ENDBRANCH   1   7
BRANCH   4  15
HETATM   15  C   UNL     1     -40.134 -49.423  11.181  1.00  0.00     0.130 C 
BRANCH  15  16
HETATM   16  C   UNL     1     -40.988 -48.168  11.318  1.00  0.00     0.018 C 
HETATM   17  C   UNL     1     -42.044 -48.095  10.193  1.00  0.00     0.022 C 
HETATM   18  C   UNL     1     -42.434 -46.640   9.925  1.00  0.00     0.141 C 
HETATM   19  S   UNL     1     -41.366 -45.622  10.916  1.00  0.00     0.144 S 
HETATM   20  O   UNL     1     -40.756 -44.599  10.095  1.00  0.00    -0.228 OA
HETATM   21  O   UNL     1     -42.033 -45.328  12.168  1.00  0.00    -0.228 OA
HETATM   22  C   UNL     1     -40.166 -46.887  11.233  1.00  0.00     0.146 C 
ENDBRANCH  15  16
ENDBRANCH   4  15
TORSDOF 3
ENDMDL
MODEL 6
REMARK VINA RESULT:      -5.5      2.097      2.377
REMARK  3 active torsions:
REMARK  status: ('A' for Active; 'I' for Inactive)
REMARK    1  A    between atoms: C_4  and  N_5 
REMARK       I    between atoms: N_5  and  C_6 
REMARK       I    between atoms: C_6  and  N_8 
REMARK    2  A    between atoms: N_8  and  C_9 
REMARK    3  A    between atoms: C_9  and  C_10 
ROOT
HETATM    1  N   UNL     1     -42.810 -48.944  12.871  1.00  0.00    -0.293 N 
HETATM    2  C   UNL     1     -42.399 -50.303  12.953  1.00  0.00     0.321 C 
HETATM    3  O   UNL     1     -41.902 -50.906  12.018  1.00  0.00    -0.247 OA
HETATM    4  N   UNL     1     -42.636 -50.828  14.192  1.00  0.00    -0.342 N 
HETATM    5  H   UNL     1     -43.248 -48.518  13.672  1.00  0.00     0.172 HD
HETATM    6  H   UNL     1     -42.932 -50.250  14.962  1.00  0.00     0.164 HD
ENDROOT
BRANCH   1   7
HETATM    7  C   UNL     1     -42.651 -48.176  11.715  1.00  0.00     0.127 A 
HETATM    8  C   UNL     1     -43.630 -47.757  10.839  1.00  0.00     0.076 A 
HETATM    9  C   UNL     1     -42.967 -47.011   9.841  1.00  0.00     0.025 A 
HETATM   10  C   UNL     1     -43.572 -46.339   8.667  1.00  0.00     0.070 C 
HETATM   11  N   UNL     1     -41.651 -46.960  10.065  1.00  0.00    -0.302 N 
HETATM   12  N   UNL     1     -41.481 -47.668  11.200  1.00  0.00    -0.281 N 
ATOM     13  HN  UNL     1     -40.937 -46.492   9.505  1.00  0.00     0.186 HD
HETATM   14  C   UNL     1     -40.138 -47.797  11.711  1.00  0.00     0.179 C 
ENDBRANCH   1   7
BRANCH   4  15
HETATM   15  C   UNL     1     -42.207 -52.193  14.430  1.00  0.00     0.130 C 
BRANCH  15  16
HETATM   16  C   UNL     1     -43.338 -53.159  14.765  1.00  0.00     0.018 C 
HETATM   17  C   UNL     1     -43.632 -54.096  13.572  1.00  0.00     0.022 C 
HETATM   18  C   UNL     1     -45.085 -54.576  13.620  1.00  0.00     0.141 C 
HETATM   19  S   UNL     1     -45.879 -53.704  14.950  1.00  0.00     0.144 S 
HETATM   20  O   UNL     1     -47.107 -53.101  14.480  1.00  0.00    -0.228 OA
HETATM   21  O   UNL     1     -45.813 -54.518  16.146  1.00  0.00    -0.228 OA
HETATM   22  C   UNL     1     -44.644 -52.442  15.092  1.00  0.00     0.146 C 
ENDBRANCH  15  16
ENDBRANCH   4  15
TORSDOF 3
ENDMDL
MODEL 7
REMARK VINA RESULT:      -5.4      3.918      7.490
REMARK  3 active torsions:
REMARK  status: ('A' for Active; 'I' for Inactive)
REMARK    1  A    between atoms: C_4  and  N_5 
REMARK       I    between atoms: N_5  and  C_6 
REMARK       I    between atoms: C_6  and  N_8 
REMARK    2  A    between atoms: N_8  and  C_9 
REMARK    3  A    between atoms: C_9  and  C_10 
ROOT
HETATM    1  N   UNL     1     -44.015 -51.160  12.600  1.00  0.00    -0.293 N 
HETATM    2  C   UNL     1     -42.638 -50.907  12.850  1.00  0.00     0.321 C 
HETATM    3  O   UNL     1     -42.105 -51.128  13.923  1.00  0.00    -0.247 OA
HETATM    4  N   UNL     1     -42.012 -50.390  11.751  1.00  0.00    -0.342 N 
HETATM    5  H   UNL     1     -44.400 -50.919  11.701  1.00  0.00     0.172 HD
HETATM    6  H   UNL     1     -42.471 -50.346  10.855  1.00  0.00     0.164 HD
ENDROOT
BRANCH   1   7
HETATM    7  C   UNL     1     -44.867 -51.713  13.559  1.00  0.00     0.127 A 
HETATM    8  C   UNL     1     -45.638 -51.046  14.488  1.00  0.00     0.076 A 
HETATM    9  C   UNL     1     -46.318 -52.043  15.218  1.00  0.00     0.025 A 
HETATM   10  C   UNL     1     -47.277 -51.849  16.332  1.00  0.00     0.070 C 
HETATM   11  N   UNL     1     -45.999 -53.267  14.786  1.00  0.00    -0.302 N 
HETATM   12  N   UNL     1     -45.124 -53.045  13.785  1.00  0.00    -0.281 N 
ATOM     13  HN  UNL     1     -46.340 -54.163  15.134  1.00  0.00     0.186 HD
HETATM   14  C   UNL     1     -44.586 -54.197  13.102  1.00  0.00     0.179 C 
ENDBRANCH   1   7
BRANCH   4  15
HETATM   15  C   UNL     1     -40.586 -50.142  11.851  1.00  0.00     0.130 C 
BRANCH  15  16
HETATM   16  C   UNL     1     -40.189 -48.681  11.675  1.00  0.00     0.018 C 
HETATM   17  C   UNL     1     -39.992 -47.995  13.045  1.00  0.00     0.022 C 
HETATM   18  C   UNL     1     -40.239 -46.489  12.925  1.00  0.00     0.141 C 
HETATM   19  S   UNL     1     -40.824 -46.186  11.273  1.00  0.00     0.144 S 
HETATM   20  O   UNL     1     -42.041 -45.405  11.316  1.00  0.00    -0.228 OA
HETATM   21  O   UNL     1     -39.695 -45.834  10.437  1.00  0.00    -0.228 OA
HETATM   22  C   UNL     1     -41.243 -47.873  10.926  1.00  0.00     0.146 C 
ENDBRANCH  15  16
ENDBRANCH   4  15
TORSDOF 3
ENDMDL
MODEL 8
REMARK VINA RESULT:      -5.4      4.047      7.833
REMARK  3 active torsions:
REMARK  status: ('A' for Active; 'I' for Inactive)
REMARK    1  A    between atoms: C_4  and  N_5 
REMARK       I    between atoms: N_5  and  C_6 
REMARK       I    between atoms: C_6  and  N_8 
REMARK    2  A    between atoms: N_8  and  C_9 
REMARK    3  A    between atoms: C_9  and  C_10 
ROOT
HETATM    1  N   UNL     1     -42.299 -51.220  11.865  1.00  0.00    -0.293 N 
HETATM    2  C   UNL     1     -42.316 -49.921  12.442  1.00  0.00     0.321 C 
HETATM    3  O   UNL     1     -41.935 -49.690  13.575  1.00  0.00    -0.247 OA
HETATM    4  N   UNL     1     -42.811 -48.989  11.573  1.00  0.00    -0.342 N 
HETATM    5  H   UNL     1     -42.664 -51.346  10.935  1.00  0.00     0.172 HD
HETATM    6  H   UNL     1     -42.993 -49.214  10.608  1.00  0.00     0.164 HD
ENDROOT
BRANCH   1   7
HETATM    7  C   UNL     1     -41.815 -52.341  12.544  1.00  0.00     0.127 A 
HETATM    8  C   UNL     1     -40.500 -52.695  12.758  1.00  0.00     0.076 A 
HETATM    9  C   UNL     1     -40.535 -53.900  13.491  1.00  0.00     0.025 A 
HETATM   10  C   UNL     1     -39.381 -54.694  13.977  1.00  0.00     0.070 C 
HETATM   11  N   UNL     1     -41.791 -54.291  13.727  1.00  0.00    -0.302 N 
HETATM   12  N   UNL     1     -42.547 -53.337  13.148  1.00  0.00    -0.281 N 
ATOM     13  HN  UNL     1     -42.105 -55.121  14.230  1.00  0.00     0.186 HD
HETATM   14  C   UNL     1     -43.981 -53.478  13.234  1.00  0.00     0.179 C 
ENDBRANCH   1   7
BRANCH   4  15
HETATM   15  C   UNL     1     -42.827 -47.608  12.015  1.00  0.00     0.130 C 
BRANCH  15  16
HETATM   16  C   UNL     1     -41.582 -46.813  11.639  1.00  0.00     0.018 C 
HETATM   17  C   UNL     1     -40.919 -46.204  12.893  1.00  0.00     0.022 C 
HETATM   18  C   UNL     1     -40.129 -44.947  12.519  1.00  0.00     0.141 C 
HETATM   19  S   UNL     1     -40.454 -44.618  10.803  1.00  0.00     0.144 S 
HETATM   20  O   UNL     1     -40.863 -43.241  10.633  1.00  0.00    -0.228 OA
HETATM   21  O   UNL     1     -39.412 -45.230  10.005  1.00  0.00    -0.228 OA
HETATM   22  C   UNL     1     -41.888 -45.653  10.697  1.00  0.00     0.146 C 
ENDBRANCH  15  16
ENDBRANCH   4  15
TORSDOF 3
ENDMDL
MODEL 9
REMARK VINA RESULT:      -5.4      4.067      7.678
REMARK  3 active torsions:
REMARK  status: ('A' for Active; 'I' for Inactive)
REMARK    1  A    between atoms: C_4  and  N_5 
REMARK       I    between atoms: N_5  and  C_6 
REMARK       I    between atoms: C_6  and  N_8 
REMARK    2  A    between atoms: N_8  and  C_9 
REMARK    3  A    between atoms: C_9  and  C_10 
ROOT
HETATM    1  N   UNL     1     -40.792 -50.852  11.318  1.00  0.00    -0.293 N 
HETATM    2  C   UNL     1     -41.496 -49.622  11.440  1.00  0.00     0.321 C 
HETATM    3  O   UNL     1     -42.169 -49.334  12.414  1.00  0.00    -0.247 OA
HETATM    4  N   UNL     1     -41.323 -48.831  10.340  1.00  0.00    -0.342 N 
HETATM    5  H   UNL     1     -40.285 -51.042  10.469  1.00  0.00     0.172 HD
HETATM    6  H   UNL     1     -40.657 -49.066   9.621  1.00  0.00     0.164 HD
ENDROOT
BRANCH   1   7
HETATM    7  C   UNL     1     -40.790 -51.823  12.322  1.00  0.00     0.127 A 
HETATM    8  C   UNL     1     -41.755 -52.774  12.578  1.00  0.00     0.076 A 
HETATM    9  C   UNL     1     -41.289 -53.514  13.686  1.00  0.00     0.025 A 
HETATM   10  C   UNL     1     -41.958 -54.656  14.353  1.00  0.00     0.070 C 
HETATM   11  N   UNL     1     -40.106 -53.061  14.111  1.00  0.00    -0.302 N 
HETATM   12  N   UNL     1     -39.823 -52.043  13.275  1.00  0.00    -0.281 N 
ATOM     13  HN  UNL     1     -39.545 -53.408  14.890  1.00  0.00     0.186 HD
HETATM   14  C   UNL     1     -38.581 -51.337  13.480  1.00  0.00     0.179 C 
ENDBRANCH   1   7
BRANCH   4  15
HETATM   15  C   UNL     1     -41.940 -47.518  10.360  1.00  0.00     0.130 C 
BRANCH  15  16
HETATM   16  C   UNL     1     -41.231 -46.504  11.251  1.00  0.00     0.018 C 
HETATM   17  C   UNL     1     -42.226 -45.842  12.230  1.00  0.00     0.022 C 
HETATM   18  C   UNL     1     -41.727 -44.453  12.635  1.00  0.00     0.141 C 
HETATM   19  S   UNL     1     -40.279 -44.113  11.661  1.00  0.00     0.144 S 
HETATM   20  O   UNL     1     -40.407 -42.822  11.022  1.00  0.00    -0.228 OA
HETATM   21  O   UNL     1     -39.107 -44.502  12.418  1.00  0.00    -0.228 OA
HETATM   22  C   UNL     1     -40.582 -45.376  10.455  1.00  0.00     0.146 C 
ENDBRANCH  15  16
ENDBRANCH   4  15
TORSDOF 3
ENDMDL
