MODEL 1
REMARK VINA RESULT:      -6.1      0.000      0.000
REMARK  6 active torsions:
REMARK  status: ('A' for Active; 'I' for Inactive)
REMARK    1  A    between atoms: C_2  and  C_4 
REMARK    2  A    between atoms: C_4  and  N_5 
REMARK    3  A    between atoms: C_9  and  C_10 
REMARK    4  A    between atoms: C_10  and  N_11 
REMARK       I    between atoms: N_11  and  C_12 
REMARK    5  A    between atoms: C_12  and  C_14 
REMARK    6  A    between atoms: C_14  and  N_15 
ROOT
HETATM    1  N   UNL     1     -41.208 -50.348  12.384  1.00  0.00    -0.357 N 
HETATM    2  C   UNL     1     -40.880 -51.588  12.884  1.00  0.00     0.235 C 
HETATM    3  O   UNL     1     -40.004 -52.299  12.402  1.00  0.00    -0.272 OA
HETATM    4  H   UNL     1     -41.922 -49.797  12.855  1.00  0.00     0.162 HD
ENDROOT
BRANCH   1   5
HETATM    5  C   UNL     1     -40.628 -49.817  11.167  1.00  0.00     0.156 C 
BRANCH   5   6
HETATM    6  C   UNL     1     -41.058 -48.370  10.878  1.00  0.00     0.167 C 
HETATM    7  O   UNL     1     -40.069 -47.479  11.434  1.00  0.00    -0.381 OA
HETATM    8  C   UNL     1     -40.406 -46.114  11.160  1.00  0.00     0.198 C 
HETATM    9  C   UNL     1     -41.820 -45.749  11.655  1.00  0.00     0.298 C 
HETATM   10  N   UNL     1     -42.894 -46.654  11.191  1.00  0.00     0.093 N 
HETATM   11  C   UNL     1     -42.454 -48.043  11.451  1.00  0.00     0.305 C 
BRANCH  10  12
HETATM   12  C   UNL     1     -43.284 -46.391   9.796  1.00  0.00     0.276 C 
BRANCH  12  13
HETATM   13  C   UNL     1     -44.169 -47.483   9.143  1.00  0.00     0.006 C 
HETATM   14  C   UNL     1     -45.641 -47.076   9.038  1.00  0.00     0.011 C 
HETATM   15  C   UNL     1     -43.639 -47.841   7.751  1.00  0.00     0.011 C 
ENDBRANCH  12  13
ENDBRANCH  10  12
ENDBRANCH   5   6
ENDBRANCH   1   5
BRANCH   2  16
HETATM   16  C   UNL     1     -41.641 -51.970  14.150  1.00  0.00     0.234 C 
BRANCH  16  17
HETATM   17  N   UNL     1     -42.939 -52.483  13.734  1.00  0.00    -0.315 N 
HETATM   18  C   UNL     1     -43.050 -53.808  13.356  1.00  0.00     0.095 A 
HETATM   19  C   UNL     1     -44.244 -54.354  13.103  1.00  0.00     0.018 A 
HETATM   20  C   UNL     1     -45.438 -53.558  13.231  1.00  0.00     0.013 A 
HETATM   21  C   UNL     1     -45.381 -52.269  13.605  1.00  0.00     0.006 A 
HETATM   22  C   UNL     1     -46.578 -51.390  13.763  1.00  0.00     0.054 C 
HETATM   23  C   UNL     1     -44.047 -51.653  13.902  1.00  0.00     0.253 A 
HETATM   24  O   UNL     1     -43.969 -50.492  14.302  1.00  0.00    -0.267 OA
ENDBRANCH  16  17
ENDBRANCH   2  16
TORSDOF 6
ENDMDL
MODEL 2
REMARK VINA RESULT:      -6.1      2.332      3.872
REMARK  6 active torsions:
REMARK  status: ('A' for Active; 'I' for Inactive)
REMARK    1  A    between atoms: C_2  and  C_4 
REMARK    2  A    between atoms: C_4  and  N_5 
REMARK    3  A    between atoms: C_9  and  C_10 
REMARK    4  A    between atoms: C_10  and  N_11 
REMARK       I    between atoms: N_11  and  C_12 
REMARK    5  A    between atoms: C_12  and  C_14 
REMARK    6  A    between atoms: C_14  and  N_15 
ROOT
HETATM    1  N   UNL     1     -42.438 -54.108  12.961  1.00  0.00    -0.357 N 
HETATM    2  C   UNL     1     -43.088 -54.522  14.102  1.00  0.00     0.235 C 
HETATM    3  O   UNL     1     -42.549 -54.571  15.205  1.00  0.00    -0.272 OA
HETATM    4  H   UNL     1     -42.957 -54.059  12.087  1.00  0.00     0.162 HD
ENDROOT
BRANCH   1   5
HETATM    5  C   UNL     1     -41.021 -53.805  12.934  1.00  0.00     0.156 C 
BRANCH   5   6
HETATM    6  C   UNL     1     -40.728 -52.337  12.588  1.00  0.00     0.167 C 
HETATM    7  O   UNL     1     -39.306 -52.118  12.690  1.00  0.00    -0.381 OA
HETATM    8  C   UNL     1     -38.974 -50.769  12.341  1.00  0.00     0.198 C 
HETATM    9  C   UNL     1     -39.754 -49.738  13.183  1.00  0.00     0.298 C 
HETATM   10  N   UNL     1     -41.222 -49.928  13.195  1.00  0.00     0.093 N 
HETATM   11  C   UNL     1     -41.486 -51.351  13.503  1.00  0.00     0.305 C 
BRANCH  10  12
HETATM   12  C   UNL     1     -41.859 -49.443  11.960  1.00  0.00     0.276 C 
BRANCH  12  13
HETATM   13  C   UNL     1     -43.066 -48.494  12.172  1.00  0.00     0.006 C 
HETATM   14  C   UNL     1     -42.855 -47.508  13.325  1.00  0.00     0.011 C 
HETATM   15  C   UNL     1     -43.368 -47.717  10.888  1.00  0.00     0.011 C 
ENDBRANCH  12  13
ENDBRANCH  10  12
ENDBRANCH   5   6
ENDBRANCH   1   5
BRANCH   2  16
HETATM   16  C   UNL     1     -44.568 -54.831  13.900  1.00  0.00     0.234 C 
BRANCH  16  17
HETATM   17  N   UNL     1     -45.285 -53.565  13.965  1.00  0.00    -0.315 N 
HETATM   18  C   UNL     1     -45.465 -52.833  12.806  1.00  0.00     0.095 A 
HETATM   19  C   UNL     1     -46.236 -51.741  12.795  1.00  0.00     0.018 A 
HETATM   20  C   UNL     1     -46.897 -51.317  14.003  1.00  0.00     0.013 A 
HETATM   21  C   UNL     1     -46.760 -52.001  15.151  1.00  0.00     0.006 A 
HETATM   22  C   UNL     1     -47.420 -51.622  16.435  1.00  0.00     0.054 C 
HETATM   23  C   UNL     1     -45.908 -53.235  15.168  1.00  0.00     0.253 A 
HETATM   24  O   UNL     1     -45.810 -53.913  16.191  1.00  0.00    -0.267 OA
ENDBRANCH  16  17
ENDBRANCH   2  16
TORSDOF 6
ENDMDL
MODEL 3
REMARK VINA RESULT:      -5.9      2.977      4.917
REMARK  6 active torsions:
REMARK  status: ('A' for Active; 'I' for Inactive)
REMARK    1  A    between atoms: C_2  and  C_4 
REMARK    2  A    between atoms: C_4  and  N_5 
REMARK    3  A    between atoms: C_9  and  C_10 
REMARK    4  A    between atoms: C_10  and  N_11 
REMARK       I    between atoms: N_11  and  C_12 
REMARK    5  A    between atoms: C_12  and  C_14 
REMARK    6  A    between atoms: C_14  and  N_15 
ROOT
HETATM    1  N   UNL     1     -42.198 -53.921  13.491  1.00  0.00    -0.357 N 
HETATM    2  C   UNL     1     -42.762 -54.038  14.741  1.00  0.00     0.235 C 
HETATM    3  O   UNL     1     -42.236 -53.602  15.761  1.00  0.00    -0.272 OA
HETATM    4  H   UNL     1     -42.706 -54.276  12.684  1.00  0.00     0.162 HD
ENDROOT
BRANCH   1   5
HETATM    5  C   UNL     1     -40.873 -53.375  13.278  1.00  0.00     0.156 C 
BRANCH   5   6
HETATM    6  C   UNL     1     -40.866 -51.842  13.166  1.00  0.00     0.167 C 
HETATM    7  O   UNL     1     -42.043 -51.432  12.440  1.00  0.00    -0.381 OA
HETATM    8  C   UNL     1     -42.103 -50.004  12.338  1.00  0.00     0.198 C 
HETATM    9  C   UNL     1     -40.829 -49.408  11.707  1.00  0.00     0.298 C 
HETATM   10  N   UNL     1     -39.562 -49.832  12.345  1.00  0.00     0.093 N 
HETATM   11  C   UNL     1     -39.596 -51.306  12.470  1.00  0.00     0.305 C 
BRANCH  10  12
HETATM   12  C   UNL     1     -39.305 -49.120  13.607  1.00  0.00     0.276 C 
BRANCH  12  13
HETATM   13  C   UNL     1     -37.809 -48.872  13.929  1.00  0.00     0.006 C 
HETATM   14  C   UNL     1     -37.533 -47.453  14.433  1.00  0.00     0.011 C 
HETATM   15  C   UNL     1     -37.310 -49.885  14.963  1.00  0.00     0.011 C 
ENDBRANCH  12  13
ENDBRANCH  10  12
ENDBRANCH   5   6
ENDBRANCH   1   5
BRANCH   2  16
HETATM   16  C   UNL     1     -44.145 -54.681  14.744  1.00  0.00     0.234 C 
BRANCH  16  17
HETATM   17  N   UNL     1     -45.120 -53.605  14.623  1.00  0.00    -0.315 N 
HETATM   18  C   UNL     1     -45.460 -52.875  15.746  1.00  0.00     0.095 A 
HETATM   19  C   UNL     1     -46.239 -51.793  15.652  1.00  0.00     0.018 A 
HETATM   20  C   UNL     1     -46.732 -51.371  14.366  1.00  0.00     0.013 A 
HETATM   21  C   UNL     1     -46.421 -52.044  13.245  1.00  0.00     0.006 A 
HETATM   22  C   UNL     1     -46.890 -51.660  11.881  1.00  0.00     0.054 C 
HETATM   23  C   UNL     1     -45.536 -53.251  13.339  1.00  0.00     0.253 A 
HETATM   24  O   UNL     1     -45.188 -53.852  12.323  1.00  0.00    -0.267 OA
ENDBRANCH  16  17
ENDBRANCH   2  16
TORSDOF 6
ENDMDL
MODEL 4
REMARK VINA RESULT:      -5.7      2.013      3.352
REMARK  6 active torsions:
REMARK  status: ('A' for Active; 'I' for Inactive)
REMARK    1  A    between atoms: C_2  and  C_4 
REMARK    2  A    between atoms: C_4  and  N_5 
REMARK    3  A    between atoms: C_9  and  C_10 
REMARK    4  A    between atoms: C_10  and  N_11 
REMARK       I    between atoms: N_11  and  C_12 
REMARK    5  A    between atoms: C_12  and  C_14 
REMARK    6  A    between atoms: C_14  and  N_15 
ROOT
HETATM    1  N   UNL     1     -42.181 -52.365  14.287  1.00  0.00    -0.357 N 
HETATM    2  C   UNL     1     -42.535 -53.407  15.115  1.00  0.00     0.235 C 
HETATM    3  O   UNL     1     -41.994 -53.623  16.196  1.00  0.00    -0.272 OA
HETATM    4  H   UNL     1     -42.696 -52.225  13.421  1.00  0.00     0.162 HD
ENDROOT
BRANCH   1   5
HETATM    5  C   UNL     1     -41.055 -51.495  14.563  1.00  0.00     0.156 C 
BRANCH   5   6
HETATM    6  C   UNL     1     -40.532 -50.775  13.310  1.00  0.00     0.167 C 
HETATM    7  O   UNL     1     -39.102 -50.953  13.244  1.00  0.00    -0.381 OA
HETATM    8  C   UNL     1     -38.567 -50.329  12.070  1.00  0.00     0.198 C 
HETATM    9  C   UNL     1     -38.943 -48.836  11.978  1.00  0.00     0.298 C 
HETATM   10  N   UNL     1     -40.390 -48.550  12.108  1.00  0.00     0.093 N 
HETATM   11  C   UNL     1     -40.883 -49.271  13.302  1.00  0.00     0.305 C 
BRANCH  10  12
HETATM   12  C   UNL     1     -41.132 -48.842  10.871  1.00  0.00     0.276 C 
BRANCH  12  13
HETATM   13  C   UNL     1     -42.035 -47.691  10.358  1.00  0.00     0.006 C 
HETATM   14  C   UNL     1     -43.433 -47.706  10.983  1.00  0.00     0.011 C 
HETATM   15  C   UNL     1     -41.374 -46.335  10.620  1.00  0.00     0.011 C 
ENDBRANCH  12  13
ENDBRANCH  10  12
ENDBRANCH   5   6
ENDBRANCH   1   5
BRANCH   2  16
HETATM   16  C   UNL     1     -43.722 -54.225  14.615  1.00  0.00     0.234 C 
BRANCH  16  17
HETATM   17  N   UNL     1     -44.856 -53.316  14.509  1.00  0.00    -0.315 N 
HETATM   18  C   UNL     1     -45.287 -52.643  15.636  1.00  0.00     0.095 A 
HETATM   19  C   UNL     1     -46.229 -51.698  15.554  1.00  0.00     0.018 A 
HETATM   20  C   UNL     1     -46.804 -51.366  14.276  1.00  0.00     0.013 A 
HETATM   21  C   UNL     1     -46.410 -51.987  13.152  1.00  0.00     0.006 A 
HETATM   22  C   UNL     1     -46.958 -51.689  11.795  1.00  0.00     0.054 C 
HETATM   23  C   UNL     1     -45.344 -53.039  13.233  1.00  0.00     0.253 A 
HETATM   24  O   UNL     1     -44.924 -53.583  12.212  1.00  0.00    -0.267 OA
ENDBRANCH  16  17
ENDBRANCH   2  16
TORSDOF 6
ENDMDL
MODEL 5
REMARK VINA RESULT:      -5.6      2.266      6.329
REMARK  6 active torsions:
REMARK  status: ('A' for Active; 'I' for Inactive)
REMARK    1  A    between atoms: C_2  and  C_4 
REMARK    2  A    between atoms: C_4  and  N_5 
REMARK    3  A    between atoms: C_9  and  C_10 
REMARK    4  A    between atoms: C_10  and  N_11 
REMARK       I    between atoms: N_11  and  C_12 
REMARK    5  A    between atoms: C_12  and  C_14 
REMARK    6  A    between atoms: C_14  and  N_15 
ROOT
HETATM    1  N   UNL     1     -39.865 -51.475  12.657  1.00  0.00    -0.357 N 
HETATM    2  C   UNL     1     -38.680 -50.778  12.733  1.00  0.00     0.235 C 
HETATM    3  O   UNL     1     -37.741 -51.120  13.447  1.00  0.00    -0.272 OA
HETATM    4  H   UNL     1     -40.588 -51.153  12.018  1.00  0.00     0.162 HD
ENDROOT
BRANCH   1   5
HETATM    5  C   UNL     1     -40.157 -52.615  13.503  1.00  0.00     0.156 C 
BRANCH   5   6
HETATM    6  C   UNL     1     -41.664 -52.872  13.664  1.00  0.00     0.167 C 
HETATM    7  O   UNL     1     -41.851 -54.229  14.117  1.00  0.00    -0.381 OA
HETATM    8  C   UNL     1     -43.241 -54.509  14.318  1.00  0.00     0.198 C 
HETATM    9  C   UNL     1     -44.083 -54.226  13.058  1.00  0.00     0.298 C 
HETATM   10  N   UNL     1     -43.902 -52.876  12.478  1.00  0.00     0.093 N 
HETATM   11  C   UNL     1     -42.448 -52.634  12.355  1.00  0.00     0.305 C 
BRANCH  10  12
HETATM   12  C   UNL     1     -44.630 -51.842  13.231  1.00  0.00     0.276 C 
BRANCH  12  13
HETATM   13  C   UNL     1     -46.158 -52.069  13.352  1.00  0.00     0.006 C 
HETATM   14  C   UNL     1     -46.766 -51.398  14.586  1.00  0.00     0.011 C 
HETATM   15  C   UNL     1     -46.875 -51.568  12.095  1.00  0.00     0.011 C 
ENDBRANCH  12  13
ENDBRANCH  10  12
ENDBRANCH   5   6
ENDBRANCH   1   5
BRANCH   2  16
HETATM   16  C   UNL     1     -38.596 -49.586  11.785  1.00  0.00     0.234 C 
BRANCH  16  17
HETATM   17  N   UNL     1     -39.408 -48.522  12.358  1.00  0.00    -0.315 N 
HETATM   18  C   UNL     1     -38.860 -47.704  13.328  1.00  0.00     0.095 A 
HETATM   19  C   UNL     1     -39.520 -46.632  13.777  1.00  0.00     0.018 A 
HETATM   20  C   UNL     1     -40.820 -46.313  13.244  1.00  0.00     0.013 A 
HETATM   21  C   UNL     1     -41.389 -47.073  12.293  1.00  0.00     0.006 A 
HETATM   22  C   UNL     1     -42.728 -46.797  11.692  1.00  0.00     0.054 C 
HETATM   23  C   UNL     1     -40.650 -48.270  11.774  1.00  0.00     0.253 A 
HETATM   24  O   UNL     1     -41.122 -48.950  10.864  1.00  0.00    -0.267 OA
ENDBRANCH  16  17
ENDBRANCH   2  16
TORSDOF 6
ENDMDL
MODEL 6
REMARK VINA RESULT:      -5.6      2.522      4.700
REMARK  6 active torsions:
REMARK  status: ('A' for Active; 'I' for Inactive)
REMARK    1  A    between atoms: C_2  and  C_4 
REMARK    2  A    between atoms: C_4  and  N_5 
REMARK    3  A    between atoms: C_9  and  C_10 
REMARK    4  A    between atoms: C_10  and  N_11 
REMARK       I    between atoms: N_11  and  C_12 
REMARK    5  A    between atoms: C_12  and  C_14 
REMARK    6  A    between atoms: C_14  and  N_15 
ROOT
HETATM    1  N   UNL     1     -43.263 -51.063  12.567  1.00  0.00    -0.357 N 
HETATM    2  C   UNL     1     -44.098 -52.038  13.064  1.00  0.00     0.235 C 
HETATM    3  O   UNL     1     -45.118 -51.792  13.701  1.00  0.00    -0.272 OA
HETATM    4  H   UNL     1     -42.452 -51.339  12.018  1.00  0.00     0.162 HD
ENDROOT
BRANCH   1   5
HETATM    5  C   UNL     1     -43.449 -49.654  12.850  1.00  0.00     0.156 C 
BRANCH   5   6
HETATM    6  C   UNL     1     -42.145 -48.846  12.761  1.00  0.00     0.167 C 
HETATM    7  O   UNL     1     -42.468 -47.500  12.354  1.00  0.00    -0.381 OA
HETATM    8  C   UNL     1     -41.286 -46.693  12.291  1.00  0.00     0.198 C 
HETATM    9  C   UNL     1     -40.208 -47.304  11.373  1.00  0.00     0.298 C 
HETATM   10  N   UNL     1     -39.863 -48.712  11.672  1.00  0.00     0.093 N 
HETATM   11  C   UNL     1     -41.128 -49.470  11.781  1.00  0.00     0.305 C 
BRANCH  10  12
HETATM   12  C   UNL     1     -38.977 -48.835  12.841  1.00  0.00     0.276 C 
BRANCH  12  13
HETATM   13  C   UNL     1     -37.720 -49.716  12.624  1.00  0.00     0.006 C 
HETATM   14  C   UNL     1     -37.839 -51.096  13.276  1.00  0.00     0.011 C 
HETATM   15  C   UNL     1     -37.433 -49.882  11.129  1.00  0.00     0.011 C 
ENDBRANCH  12  13
ENDBRANCH  10  12
ENDBRANCH   5   6
ENDBRANCH   1   5
BRANCH   2  16
HETATM   16  C   UNL     1     -43.695 -53.459  12.681  1.00  0.00     0.234 C 
BRANCH  16  17
HETATM   17  N   UNL     1     -42.833 -53.962  13.742  1.00  0.00    -0.315 N 
HETATM   18  C   UNL     1     -43.393 -54.673  14.785  1.00  0.00     0.095 A 
HETATM   19  C   UNL     1     -42.625 -55.272  15.701  1.00  0.00     0.018 A 
HETATM   20  C   UNL     1     -41.190 -55.184  15.603  1.00  0.00     0.013 A 
HETATM   21  C   UNL     1     -40.600 -54.512  14.601  1.00  0.00     0.006 A 
HETATM   22  C   UNL     1     -39.121 -54.386  14.434  1.00  0.00     0.054 C 
HETATM   23  C   UNL     1     -41.454 -53.849  13.562  1.00  0.00     0.253 A 
HETATM   24  O   UNL     1     -40.940 -53.275  12.602  1.00  0.00    -0.267 OA
ENDBRANCH  16  17
ENDBRANCH   2  16
TORSDOF 6
ENDMDL
MODEL 7
REMARK VINA RESULT:      -5.5      1.778      3.374
REMARK  6 active torsions:
REMARK  status: ('A' for Active; 'I' for Inactive)
REMARK    1  A    between atoms: C_2  and  C_4 
REMARK    2  A    between atoms: C_4  and  N_5 
REMARK    3  A    between atoms: C_9  and  C_10 
REMARK    4  A    between atoms: C_10  and  N_11 
REMARK       I    between atoms: N_11  and  C_12 
REMARK    5  A    between atoms: C_12  and  C_14 
REMARK    6  A    between atoms: C_14  and  N_15 
ROOT
HETATM    1  N   UNL     1     -40.521 -50.361  11.301  1.00  0.00    -0.357 N 
HETATM    2  C   UNL     1     -40.785 -51.266  12.305  1.00  0.00     0.235 C 
HETATM    3  O   UNL     1     -40.760 -50.976  13.498  1.00  0.00    -0.272 OA
HETATM    4  H   UNL     1     -40.594 -50.662  10.332  1.00  0.00     0.162 HD
ENDROOT
BRANCH   1   5
HETATM    5  C   UNL     1     -40.074 -49.008  11.565  1.00  0.00     0.156 C 
BRANCH   5   6
HETATM    6  C   UNL     1     -41.163 -47.955  11.307  1.00  0.00     0.167 C 
HETATM    7  O   UNL     1     -42.076 -48.474  10.318  1.00  0.00    -0.381 OA
HETATM    8  C   UNL     1     -43.135 -47.541  10.067  1.00  0.00     0.198 C 
HETATM    9  C   UNL     1     -42.606 -46.153   9.655  1.00  0.00     0.298 C 
HETATM   10  N   UNL     1     -41.605 -45.570  10.577  1.00  0.00     0.093 N 
HETATM   11  C   UNL     1     -40.580 -46.604  10.837  1.00  0.00     0.305 C 
BRANCH  10  12
HETATM   12  C   UNL     1     -42.222 -45.007  11.789  1.00  0.00     0.276 C 
BRANCH  12  13
HETATM   13  C   UNL     1     -41.961 -43.496  12.019  1.00  0.00     0.006 C 
HETATM   14  C   UNL     1     -40.679 -43.002  11.344  1.00  0.00     0.011 C 
HETATM   15  C   UNL     1     -43.150 -42.667  11.525  1.00  0.00     0.011 C 
ENDBRANCH  12  13
ENDBRANCH  10  12
ENDBRANCH   5   6
ENDBRANCH   1   5
BRANCH   2  16
HETATM   16  C   UNL     1     -41.200 -52.647  11.807  1.00  0.00     0.234 C 
BRANCH  16  17
HETATM   17  N   UNL     1     -42.228 -53.140  12.713  1.00  0.00    -0.315 N 
HETATM   18  C   UNL     1     -43.555 -52.868  12.438  1.00  0.00     0.095 A 
HETATM   19  C   UNL     1     -44.534 -53.419  13.162  1.00  0.00     0.018 A 
HETATM   20  C   UNL     1     -44.211 -54.316  14.243  1.00  0.00     0.013 A 
HETATM   21  C   UNL     1     -42.936 -54.618  14.541  1.00  0.00     0.006 A 
HETATM   22  C   UNL     1     -42.530 -55.543  15.641  1.00  0.00     0.054 C 
HETATM   23  C   UNL     1     -41.832 -54.014  13.725  1.00  0.00     0.253 A 
HETATM   24  O   UNL     1     -40.659 -54.318  13.939  1.00  0.00    -0.267 OA
ENDBRANCH  16  17
ENDBRANCH   2  16
TORSDOF 6
ENDMDL
MODEL 8
REMARK VINA RESULT:      -5.5      3.851      5.719
REMARK  6 active torsions:
REMARK  status: ('A' for Active; 'I' for Inactive)
REMARK    1  A    between atoms: C_2  and  C_4 
REMARK    2  A    between atoms: C_4  and  N_5 
REMARK    3  A    between atoms: C_9  and  C_10 
REMARK    4  A    between atoms: C_10  and  N_11 
REMARK       I    between atoms: N_11  and  C_12 
REMARK    5  A    between atoms: C_12  and  C_14 
REMARK    6  A    between atoms: C_14  and  N_15 
ROOT
HETATM    1  N   UNL     1     -42.775 -54.024  14.049  1.00  0.00    -0.357 N 
HETATM    2  C   UNL     1     -43.584 -55.016  14.556  1.00  0.00     0.235 C 
HETATM    3  O   UNL     1     -43.249 -55.755  15.477  1.00  0.00    -0.272 OA
HETATM    4  H   UNL     1     -43.131 -53.426  13.307  1.00  0.00     0.162 HD
ENDROOT
BRANCH   1   5
HETATM    5  C   UNL     1     -41.404 -53.836  14.480  1.00  0.00     0.156 C 
BRANCH   5   6
HETATM    6  C   UNL     1     -40.807 -52.498  14.017  1.00  0.00     0.167 C 
HETATM    7  O   UNL     1     -41.043 -52.358  12.600  1.00  0.00    -0.381 OA
HETATM    8  C   UNL     1     -40.535 -51.107  12.123  1.00  0.00     0.198 C 
HETATM    9  C   UNL     1     -39.042 -50.915  12.456  1.00  0.00     0.298 C 
HETATM   10  N   UNL     1     -38.692 -51.111  13.881  1.00  0.00     0.093 N 
HETATM   11  C   UNL     1     -39.297 -52.388  14.319  1.00  0.00     0.305 C 
BRANCH  10  12
HETATM   12  C   UNL     1     -39.055 -49.950  14.710  1.00  0.00     0.276 C 
BRANCH  12  13
HETATM   13  C   UNL     1     -37.860 -49.091  15.197  1.00  0.00     0.006 C 
HETATM   14  C   UNL     1     -38.205 -48.222  16.410  1.00  0.00     0.011 C 
HETATM   15  C   UNL     1     -36.661 -49.982  15.533  1.00  0.00     0.011 C 
ENDBRANCH  12  13
ENDBRANCH  10  12
ENDBRANCH   5   6
ENDBRANCH   1   5
BRANCH   2  16
HETATM   16  C   UNL     1     -44.975 -55.066  13.931  1.00  0.00     0.234 C 
BRANCH  16  17
HETATM   17  N   UNL     1     -45.530 -53.721  14.009  1.00  0.00    -0.315 N 
HETATM   18  C   UNL     1     -45.603 -52.956  12.861  1.00  0.00     0.095 A 
HETATM   19  C   UNL     1     -46.232 -51.776  12.860  1.00  0.00     0.018 A 
HETATM   20  C   UNL     1     -46.851 -51.291  14.068  1.00  0.00     0.013 A 
HETATM   21  C   UNL     1     -46.813 -52.004  15.205  1.00  0.00     0.006 A 
HETATM   22  C   UNL     1     -47.437 -51.565  16.489  1.00  0.00     0.054 C 
HETATM   23  C   UNL     1     -46.121 -53.335  15.212  1.00  0.00     0.253 A 
HETATM   24  O   UNL     1     -46.121 -54.035  16.224  1.00  0.00    -0.267 OA
ENDBRANCH  16  17
ENDBRANCH   2  16
TORSDOF 6
ENDMDL
MODEL 9
REMARK VINA RESULT:      -5.5      2.756      4.486
REMARK  6 active torsions:
REMARK  status: ('A' for Active; 'I' for Inactive)
REMARK    1  A    between atoms: C_2  and  C_4 
REMARK    2  A    between atoms: C_4  and  N_5 
REMARK    3  A    between atoms: C_9  and  C_10 
REMARK    4  A    between atoms: C_10  and  N_11 
REMARK       I    between atoms: N_11  and  C_12 
REMARK    5  A    between atoms: C_12  and  C_14 
REMARK    6  A    between atoms: C_14  and  N_15 
ROOT
HETATM    1  N   UNL     1     -42.209 -53.223  12.383  1.00  0.00    -0.357 N 
HETATM    2  C   UNL     1     -42.673 -53.889  13.496  1.00  0.00     0.235 C 
HETATM    3  O   UNL     1     -42.026 -53.998  14.534  1.00  0.00    -0.272 OA
HETATM    4  H   UNL     1     -42.814 -53.142  11.569  1.00  0.00     0.162 HD
ENDROOT
BRANCH   1   5
HETATM    5  C   UNL     1     -40.865 -52.691  12.294  1.00  0.00     0.156 C 
BRANCH   5   6
HETATM    6  C   UNL     1     -40.795 -51.184  12.590  1.00  0.00     0.167 C 
HETATM    7  O   UNL     1     -41.914 -50.539  11.948  1.00  0.00    -0.381 OA
HETATM    8  C   UNL     1     -41.916 -49.134  12.224  1.00  0.00     0.198 C 
HETATM    9  C   UNL     1     -40.588 -48.458  11.828  1.00  0.00     0.298 C 
HETATM   10  N   UNL     1     -39.374 -49.098  12.385  1.00  0.00     0.093 N 
HETATM   11  C   UNL     1     -39.470 -50.549  12.115  1.00  0.00     0.305 C 
BRANCH  10  12
HETATM   12  C   UNL     1     -39.159 -48.754  13.800  1.00  0.00     0.276 C 
BRANCH  12  13
HETATM   13  C   UNL     1     -38.416 -47.417  14.046  1.00  0.00     0.006 C 
HETATM   14  C   UNL     1     -39.191 -46.461  14.957  1.00  0.00     0.011 C 
HETATM   15  C   UNL     1     -37.030 -47.677  14.643  1.00  0.00     0.011 C 
ENDBRANCH  12  13
ENDBRANCH  10  12
ENDBRANCH   5   6
ENDBRANCH   1   5
BRANCH   2  16
HETATM   16  C   UNL     1     -44.102 -54.407  13.363  1.00  0.00     0.234 C 
BRANCH  16  17
HETATM   17  N   UNL     1     -44.992 -53.293  13.659  1.00  0.00    -0.315 N 
HETATM   18  C   UNL     1     -45.483 -52.528  12.618  1.00  0.00     0.095 A 
HETATM   19  C   UNL     1     -46.411 -51.590  12.831  1.00  0.00     0.018 A 
HETATM   20  C   UNL     1     -46.917 -51.369  14.162  1.00  0.00     0.013 A 
HETATM   21  C   UNL     1     -46.477 -52.095  15.204  1.00  0.00     0.006 A 
HETATM   22  C   UNL     1     -46.962 -51.925  16.606  1.00  0.00     0.054 C 
HETATM   23  C   UNL     1     -45.446 -53.159  14.971  1.00  0.00     0.253 A 
HETATM   24  O   UNL     1     -45.067 -53.876  15.896  1.00  0.00    -0.267 OA
ENDBRANCH  16  17
ENDBRANCH   2  16
TORSDOF 6
ENDMDL
