MODEL 1
REMARK VINA RESULT:      -6.1      0.000      0.000
REMARK  5 active torsions:
REMARK  status: ('A' for Active; 'I' for Inactive)
REMARK    1  A    between atoms: C_2  and  C_4 
REMARK    2  A    between atoms: C_8  and  C_9 
REMARK    3  A    between atoms: C_9  and  N_10 
REMARK       I    between atoms: N_10  and  C_11 
REMARK    4  A    between atoms: C_11  and  C_13 
REMARK    5  A    between atoms: C_13  and  C_14 
ROOT
HETATM    1  N   UNL     1     -42.504 -50.571  13.495  1.00  0.00    -0.360 N 
HETATM    2  C   UNL     1     -42.597 -49.318  14.063  1.00  0.00     0.221 C 
HETATM    3  O   UNL     1     -43.188 -49.096  15.114  1.00  0.00    -0.273 OA
HETATM    4  H   UNL     1     -41.970 -50.685  12.643  1.00  0.00     0.162 HD
ENDROOT
BRANCH   1   5
HETATM    5  C   UNL     1     -43.195 -51.742  14.036  1.00  0.00     0.130 C 
BRANCH   5   6
HETATM    6  C   UNL     1     -43.648 -52.701  12.922  1.00  0.00     0.035 C 
HETATM    7  C   UNL     1     -45.168 -52.837  12.742  1.00  0.00     0.130 C 
HETATM    8  O   UNL     1     -45.587 -53.747  13.779  1.00  0.00    -0.385 OA
HETATM    9  C   UNL     1     -44.490 -54.608  14.094  1.00  0.00     0.168 C 
HETATM   10  C   UNL     1     -43.307 -54.150  13.262  1.00  0.00     0.035 C 
BRANCH   7  11
HETATM   11  C   UNL     1     -46.066 -51.590  12.766  1.00  0.00     0.007 C 
HETATM   12  C   UNL     1     -47.115 -51.605  11.655  1.00  0.00     0.012 C 
HETATM   13  C   UNL     1     -46.773 -51.481  14.130  1.00  0.00     0.012 C 
ENDBRANCH   7  11
ENDBRANCH   5   6
ENDBRANCH   1   5
BRANCH   2  14
HETATM   14  C   UNL     1     -41.917 -48.211  13.268  1.00  0.00     0.142 C 
BRANCH  14  15
HETATM   15  C   UNL     1     -42.374 -48.094  11.840  1.00  0.00    -0.034 A 
HETATM   16  C   UNL     1     -43.634 -47.586  11.515  1.00  0.00     0.011 A 
HETATM   17  C   UNL     1     -43.999 -47.428  10.179  1.00  0.00     0.025 A 
HETATM   18  C   UNL     1     -43.087 -47.769   9.189  1.00  0.00     0.005 A 
HETATM   19  C   UNL     1     -43.432 -47.616   7.737  1.00  0.00     0.068 C 
HETATM   20  N   UNL     1     -41.862 -48.270   9.476  1.00  0.00    -0.369 N 
HETATM   21  C   UNL     1     -41.532 -48.416  10.781  1.00  0.00     0.095 A 
ATOM     22  HN  UNL     1     -41.212 -48.529   8.734  1.00  0.00     0.165 HD
ENDBRANCH  14  15
ENDBRANCH   2  14
TORSDOF 5
ENDMDL
MODEL 2
REMARK VINA RESULT:      -6.0      2.854      6.813
REMARK  5 active torsions:
REMARK  status: ('A' for Active; 'I' for Inactive)
REMARK    1  A    between atoms: C_2  and  C_4 
REMARK    2  A    between atoms: C_8  and  C_9 
REMARK    3  A    between atoms: C_9  and  N_10 
REMARK       I    between atoms: N_10  and  C_11 
REMARK    4  A    between atoms: C_11  and  C_13 
REMARK    5  A    between atoms: C_13  and  C_14 
ROOT
HETATM    1  N   UNL     1     -42.489 -52.465  11.912  1.00  0.00    -0.360 N 
HETATM    2  C   UNL     1     -42.888 -53.462  12.776  1.00  0.00     0.221 C 
HETATM    3  O   UNL     1     -42.123 -54.039  13.540  1.00  0.00    -0.273 OA
HETATM    4  H   UNL     1     -43.184 -52.009  11.333  1.00  0.00     0.162 HD
ENDROOT
BRANCH   1   5
HETATM    5  C   UNL     1     -41.090 -52.071  11.745  1.00  0.00     0.130 C 
BRANCH   5   6
HETATM    6  C   UNL     1     -40.931 -50.541  11.698  1.00  0.00     0.035 C 
HETATM    7  C   UNL     1     -39.674 -49.983  12.383  1.00  0.00     0.130 C 
HETATM    8  O   UNL     1     -39.990 -49.968  13.789  1.00  0.00    -0.385 OA
HETATM    9  C   UNL     1     -41.406 -49.831  13.932  1.00  0.00     0.168 C 
HETATM   10  C   UNL     1     -42.000 -49.844  12.536  1.00  0.00     0.035 C 
BRANCH   7  11
HETATM   11  C   UNL     1     -38.311 -50.666  12.176  1.00  0.00     0.007 C 
HETATM   12  C   UNL     1     -37.423 -49.907  11.191  1.00  0.00     0.012 C 
HETATM   13  C   UNL     1     -37.580 -50.794  13.524  1.00  0.00     0.012 C 
ENDBRANCH   7  11
ENDBRANCH   5   6
ENDBRANCH   1   5
BRANCH   2  14
HETATM   14  C   UNL     1     -44.369 -53.813  12.696  1.00  0.00     0.142 C 
BRANCH  14  15
HETATM   15  C   UNL     1     -45.234 -53.109  13.704  1.00  0.00    -0.034 A 
HETATM   16  C   UNL     1     -45.904 -51.924  13.392  1.00  0.00     0.011 A 
HETATM   17  C   UNL     1     -46.752 -51.334  14.328  1.00  0.00     0.025 A 
HETATM   18  C   UNL     1     -46.926 -51.951  15.560  1.00  0.00     0.005 A 
HETATM   19  C   UNL     1     -47.827 -51.356  16.600  1.00  0.00     0.068 C 
HETATM   20  N   UNL     1     -46.282 -53.096  15.892  1.00  0.00    -0.369 N 
HETATM   21  C   UNL     1     -45.463 -53.648  14.966  1.00  0.00     0.095 A 
ATOM     22  HN  UNL     1     -46.411 -53.526  16.807  1.00  0.00     0.165 HD
ENDBRANCH  14  15
ENDBRANCH   2  14
TORSDOF 5
ENDMDL
MODEL 3
REMARK VINA RESULT:      -5.9      1.952      2.410
REMARK  5 active torsions:
REMARK  status: ('A' for Active; 'I' for Inactive)
REMARK    1  A    between atoms: C_2  and  C_4 
REMARK    2  A    between atoms: C_8  and  C_9 
REMARK    3  A    between atoms: C_9  and  N_10 
REMARK       I    between atoms: N_10  and  C_11 
REMARK    4  A    between atoms: C_11  and  C_13 
REMARK    5  A    between atoms: C_13  and  C_14 
ROOT
HETATM    1  N   UNL     1     -42.300 -50.764  11.989  1.00  0.00    -0.360 N 
HETATM    2  C   UNL     1     -41.222 -49.915  12.125  1.00  0.00     0.221 C 
HETATM    3  O   UNL     1     -40.546 -49.842  13.145  1.00  0.00    -0.273 OA
HETATM    4  H   UNL     1     -42.792 -50.795  11.105  1.00  0.00     0.162 HD
ENDROOT
BRANCH   1   5
HETATM    5  C   UNL     1     -42.810 -51.584  13.088  1.00  0.00     0.130 C 
BRANCH   5   6
HETATM    6  C   UNL     1     -43.562 -52.823  12.573  1.00  0.00     0.035 C 
HETATM    7  C   UNL     1     -45.047 -52.905  12.957  1.00  0.00     0.130 C 
HETATM    8  O   UNL     1     -45.055 -53.390  14.316  1.00  0.00    -0.385 OA
HETATM    9  C   UNL     1     -43.877 -54.173  14.523  1.00  0.00     0.168 C 
HETATM   10  C   UNL     1     -43.060 -54.099  13.247  1.00  0.00     0.035 C 
BRANCH   7  11
HETATM   11  C   UNL     1     -45.943 -51.660  12.856  1.00  0.00     0.007 C 
HETATM   12  C   UNL     1     -47.004 -51.793  11.764  1.00  0.00     0.012 C 
HETATM   13  C   UNL     1     -46.636 -51.402  14.207  1.00  0.00     0.012 C 
ENDBRANCH   7  11
ENDBRANCH   5   6
ENDBRANCH   1   5
BRANCH   2  14
HETATM   14  C   UNL     1     -40.941 -49.049  10.904  1.00  0.00     0.142 C 
BRANCH  14  15
HETATM   15  C   UNL     1     -41.317 -47.602  11.062  1.00  0.00    -0.034 A 
HETATM   16  C   UNL     1     -40.360 -46.586  10.993  1.00  0.00     0.011 A 
HETATM   17  C   UNL     1     -40.754 -45.251  11.075  1.00  0.00     0.025 A 
HETATM   18  C   UNL     1     -42.104 -44.956  11.212  1.00  0.00     0.005 A 
HETATM   19  C   UNL     1     -42.576 -43.535  11.305  1.00  0.00     0.068 C 
HETATM   20  N   UNL     1     -43.050 -45.921  11.289  1.00  0.00    -0.369 N 
HETATM   21  C   UNL     1     -42.644 -47.210  11.208  1.00  0.00     0.095 A 
ATOM     22  HN  UNL     1     -44.036 -45.685  11.405  1.00  0.00     0.165 HD
ENDBRANCH  14  15
ENDBRANCH   2  14
TORSDOF 5
ENDMDL
MODEL 4
REMARK VINA RESULT:      -5.8      3.301      6.822
REMARK  5 active torsions:
REMARK  status: ('A' for Active; 'I' for Inactive)
REMARK    1  A    between atoms: C_2  and  C_4 
REMARK    2  A    between atoms: C_8  and  C_9 
REMARK    3  A    between atoms: C_9  and  N_10 
REMARK       I    between atoms: N_10  and  C_11 
REMARK    4  A    between atoms: C_11  and  C_13 
REMARK    5  A    between atoms: C_13  and  C_14 
ROOT
HETATM    1  N   UNL     1     -42.718 -52.219  12.180  1.00  0.00    -0.360 N 
HETATM    2  C   UNL     1     -43.270 -53.388  12.660  1.00  0.00     0.221 C 
HETATM    3  O   UNL     1     -42.603 -54.316  13.104  1.00  0.00    -0.273 OA
HETATM    4  H   UNL     1     -43.332 -51.481  11.861  1.00  0.00     0.162 HD
ENDROOT
BRANCH   1   5
HETATM    5  C   UNL     1     -41.275 -52.016  12.052  1.00  0.00     0.130 C 
BRANCH   5   6
HETATM    6  C   UNL     1     -40.699 -51.246  13.254  1.00  0.00     0.035 C 
HETATM    7  C   UNL     1     -39.312 -50.621  13.040  1.00  0.00     0.130 C 
HETATM    8  O   UNL     1     -38.382 -51.709  13.213  1.00  0.00    -0.385 OA
HETATM    9  C   UNL     1     -38.971 -52.671  14.092  1.00  0.00     0.168 C 
HETATM   10  C   UNL     1     -40.372 -52.187  14.412  1.00  0.00     0.035 C 
BRANCH   7  11
HETATM   11  C   UNL     1     -38.990 -49.881  11.731  1.00  0.00     0.007 C 
HETATM   12  C   UNL     1     -39.325 -48.392  11.808  1.00  0.00     0.012 C 
HETATM   13  C   UNL     1     -37.499 -50.049  11.388  1.00  0.00     0.012 C 
ENDBRANCH   7  11
ENDBRANCH   5   6
ENDBRANCH   1   5
BRANCH   2  14
HETATM   14  C   UNL     1     -44.790 -53.449  12.581  1.00  0.00     0.142 C 
BRANCH  14  15
HETATM   15  C   UNL     1     -45.503 -52.881  13.777  1.00  0.00    -0.034 A 
HETATM   16  C   UNL     1     -46.242 -51.698  13.694  1.00  0.00     0.011 A 
HETATM   17  C   UNL     1     -46.946 -51.237  14.805  1.00  0.00     0.025 A 
HETATM   18  C   UNL     1     -46.908 -51.977  15.980  1.00  0.00     0.005 A 
HETATM   19  C   UNL     1     -47.649 -51.522  17.202  1.00  0.00     0.068 C 
HETATM   20  N   UNL     1     -46.194 -53.122  16.090  1.00  0.00    -0.369 N 
HETATM   21  C   UNL     1     -45.517 -53.549  14.997  1.00  0.00     0.095 A 
ATOM     22  HN  UNL     1     -46.166 -53.644  16.965  1.00  0.00     0.165 HD
ENDBRANCH  14  15
ENDBRANCH   2  14
TORSDOF 5
ENDMDL
MODEL 5
REMARK VINA RESULT:      -5.8      2.680      6.441
REMARK  5 active torsions:
REMARK  status: ('A' for Active; 'I' for Inactive)
REMARK    1  A    between atoms: C_2  and  C_4 
REMARK    2  A    between atoms: C_8  and  C_9 
REMARK    3  A    between atoms: C_9  and  N_10 
REMARK       I    between atoms: N_10  and  C_11 
REMARK    4  A    between atoms: C_11  and  C_13 
REMARK    5  A    between atoms: C_13  and  C_14 
ROOT
HETATM    1  N   UNL     1     -42.570 -52.613  12.020  1.00  0.00    -0.360 N 
HETATM    2  C   UNL     1     -43.006 -53.597  12.882  1.00  0.00     0.221 C 
HETATM    3  O   UNL     1     -42.262 -54.205  13.643  1.00  0.00    -0.273 OA
HETATM    4  H   UNL     1     -43.248 -52.129  11.445  1.00  0.00     0.162 HD
ENDROOT
BRANCH   1   5
HETATM    5  C   UNL     1     -41.157 -52.273  11.851  1.00  0.00     0.130 C 
BRANCH   5   6
HETATM    6  C   UNL     1     -40.695 -51.229  12.883  1.00  0.00     0.035 C 
HETATM    7  C   UNL     1     -40.722 -49.768  12.406  1.00  0.00     0.130 C 
HETATM    8  O   UNL     1     -39.524 -49.610  11.619  1.00  0.00    -0.385 OA
HETATM    9  C   UNL     1     -38.545 -50.537  12.097  1.00  0.00     0.168 C 
HETATM   10  C   UNL     1     -39.204 -51.365  13.183  1.00  0.00     0.035 C 
BRANCH   7  11
HETATM   11  C   UNL     1     -41.926 -49.234  11.612  1.00  0.00     0.007 C 
HETATM   12  C   UNL     1     -43.052 -48.746  12.521  1.00  0.00     0.012 C 
HETATM   13  C   UNL     1     -41.478 -48.082  10.695  1.00  0.00     0.012 C 
ENDBRANCH   7  11
ENDBRANCH   5   6
ENDBRANCH   1   5
BRANCH   2  14
HETATM   14  C   UNL     1     -44.499 -53.889  12.806  1.00  0.00     0.142 C 
BRANCH  14  15
HETATM   15  C   UNL     1     -45.334 -53.157  13.820  1.00  0.00    -0.034 A 
HETATM   16  C   UNL     1     -45.963 -51.948  13.512  1.00  0.00     0.011 A 
HETATM   17  C   UNL     1     -46.785 -51.330  14.454  1.00  0.00     0.025 A 
HETATM   18  C   UNL     1     -46.973 -51.943  15.687  1.00  0.00     0.005 A 
HETATM   19  C   UNL     1     -47.847 -51.318  16.732  1.00  0.00     0.068 C 
HETATM   20  N   UNL     1     -46.369 -53.110  16.013  1.00  0.00    -0.369 N 
HETATM   21  C   UNL     1     -45.574 -53.690  15.082  1.00  0.00     0.095 A 
ATOM     22  HN  UNL     1     -46.507 -53.537  16.929  1.00  0.00     0.165 HD
ENDBRANCH  14  15
ENDBRANCH   2  14
TORSDOF 5
ENDMDL
MODEL 6
REMARK VINA RESULT:      -5.7      3.429      4.911
REMARK  5 active torsions:
REMARK  status: ('A' for Active; 'I' for Inactive)
REMARK    1  A    between atoms: C_2  and  C_4 
REMARK    2  A    between atoms: C_8  and  C_9 
REMARK    3  A    between atoms: C_9  and  N_10 
REMARK       I    between atoms: N_10  and  C_11 
REMARK    4  A    between atoms: C_11  and  C_13 
REMARK    5  A    between atoms: C_13  and  C_14 
ROOT
HETATM    1  N   UNL     1     -39.945 -47.383  11.084  1.00  0.00    -0.360 N 
HETATM    2  C   UNL     1     -40.875 -46.441  11.470  1.00  0.00     0.221 C 
HETATM    3  O   UNL     1     -41.150 -46.205  12.641  1.00  0.00    -0.273 OA
HETATM    4  H   UNL     1     -39.745 -47.499  10.098  1.00  0.00     0.162 HD
ENDROOT
BRANCH   1   5
HETATM    5  C   UNL     1     -39.272 -48.270  12.032  1.00  0.00     0.130 C 
BRANCH   5   6
HETATM    6  C   UNL     1     -39.092 -49.686  11.458  1.00  0.00     0.035 C 
HETATM    7  C   UNL     1     -39.757 -50.816  12.260  1.00  0.00     0.130 C 
HETATM    8  O   UNL     1     -38.854 -51.079  13.353  1.00  0.00    -0.385 OA
HETATM    9  C   UNL     1     -37.531 -50.728  12.940  1.00  0.00     0.168 C 
HETATM   10  C   UNL     1     -37.637 -50.142  11.546  1.00  0.00     0.035 C 
BRANCH   7  11
HETATM   11  C   UNL     1     -41.182 -50.642  12.808  1.00  0.00     0.007 C 
HETATM   12  C   UNL     1     -42.137 -51.721  12.301  1.00  0.00     0.012 C 
HETATM   13  C   UNL     1     -41.158 -50.670  14.347  1.00  0.00     0.012 C 
ENDBRANCH   7  11
ENDBRANCH   5   6
ENDBRANCH   1   5
BRANCH   2  14
HETATM   14  C   UNL     1     -41.560 -45.717  10.317  1.00  0.00     0.142 C 
BRANCH  14  15
HETATM   15  C   UNL     1     -42.917 -46.254   9.958  1.00  0.00    -0.034 A 
HETATM   16  C   UNL     1     -43.409 -47.434  10.522  1.00  0.00     0.011 A 
HETATM   17  C   UNL     1     -44.699 -47.868  10.218  1.00  0.00     0.025 A 
HETATM   18  C   UNL     1     -45.481 -47.102   9.363  1.00  0.00     0.005 A 
HETATM   19  C   UNL     1     -46.874 -47.526   9.007  1.00  0.00     0.068 C 
HETATM   20  N   UNL     1     -45.026 -45.959   8.798  1.00  0.00    -0.369 N 
HETATM   21  C   UNL     1     -43.770 -45.560   9.106  1.00  0.00     0.095 A 
ATOM     22  HN  UNL     1     -45.610 -45.418   8.160  1.00  0.00     0.165 HD
ENDBRANCH  14  15
ENDBRANCH   2  14
TORSDOF 5
ENDMDL
MODEL 7
REMARK VINA RESULT:      -5.7      2.702      7.139
REMARK  5 active torsions:
REMARK  status: ('A' for Active; 'I' for Inactive)
REMARK    1  A    between atoms: C_2  and  C_4 
REMARK    2  A    between atoms: C_8  and  C_9 
REMARK    3  A    between atoms: C_9  and  N_10 
REMARK       I    between atoms: N_10  and  C_11 
REMARK    4  A    between atoms: C_11  and  C_13 
REMARK    5  A    between atoms: C_13  and  C_14 
ROOT
HETATM    1  N   UNL     1     -43.486 -48.787  12.125  1.00  0.00    -0.360 N 
HETATM    2  C   UNL     1     -42.631 -49.649  12.779  1.00  0.00     0.221 C 
HETATM    3  O   UNL     1     -41.499 -49.338  13.131  1.00  0.00    -0.273 OA
HETATM    4  H   UNL     1     -44.420 -49.103  11.895  1.00  0.00     0.162 HD
ENDROOT
BRANCH   1   5
HETATM    5  C   UNL     1     -43.086 -47.448  11.691  1.00  0.00     0.130 C 
BRANCH   5   6
HETATM    6  C   UNL     1     -42.440 -47.472  10.295  1.00  0.00     0.035 C 
HETATM    7  C   UNL     1     -41.779 -46.158   9.848  1.00  0.00     0.130 C 
HETATM    8  O   UNL     1     -42.869 -45.328   9.397  1.00  0.00    -0.385 OA
HETATM    9  C   UNL     1     -43.924 -46.177   8.938  1.00  0.00     0.168 C 
HETATM   10  C   UNL     1     -43.492 -47.607   9.197  1.00  0.00     0.035 C 
BRANCH   7  11
HETATM   11  C   UNL     1     -40.902 -45.360  10.826  1.00  0.00     0.007 C 
HETATM   12  C   UNL     1     -39.570 -44.942  10.206  1.00  0.00     0.012 C 
HETATM   13  C   UNL     1     -41.657 -44.104  11.300  1.00  0.00     0.012 C 
ENDBRANCH   7  11
ENDBRANCH   5   6
ENDBRANCH   1   5
BRANCH   2  14
HETATM   14  C   UNL     1     -43.199 -51.043  13.019  1.00  0.00     0.142 C 
BRANCH  14  15
HETATM   15  C   UNL     1     -44.417 -51.080  13.899  1.00  0.00    -0.034 A 
HETATM   16  C   UNL     1     -45.661 -51.485  13.409  1.00  0.00     0.011 A 
HETATM   17  C   UNL     1     -46.754 -51.573  14.269  1.00  0.00     0.025 A 
HETATM   18  C   UNL     1     -46.579 -51.266  15.612  1.00  0.00     0.005 A 
HETATM   19  C   UNL     1     -47.725 -51.346  16.577  1.00  0.00     0.068 C 
HETATM   20  N   UNL     1     -45.387 -50.863  16.111  1.00  0.00    -0.369 N 
HETATM   21  C   UNL     1     -44.340 -50.784  15.256  1.00  0.00     0.095 A 
ATOM     22  HN  UNL     1     -45.281 -50.627  17.098  1.00  0.00     0.165 HD
ENDBRANCH  14  15
ENDBRANCH   2  14
TORSDOF 5
ENDMDL
MODEL 8
REMARK VINA RESULT:      -5.7      3.588      6.667
REMARK  5 active torsions:
REMARK  status: ('A' for Active; 'I' for Inactive)
REMARK    1  A    between atoms: C_2  and  C_4 
REMARK    2  A    between atoms: C_8  and  C_9 
REMARK    3  A    between atoms: C_9  and  N_10 
REMARK       I    between atoms: N_10  and  C_11 
REMARK    4  A    between atoms: C_11  and  C_13 
REMARK    5  A    between atoms: C_13  and  C_14 
ROOT
HETATM    1  N   UNL     1     -43.443 -54.713  14.382  1.00  0.00    -0.360 N 
HETATM    2  C   UNL     1     -44.539 -54.537  13.565  1.00  0.00     0.221 C 
HETATM    3  O   UNL     1     -44.454 -54.280  12.369  1.00  0.00    -0.273 OA
HETATM    4  H   UNL     1     -43.589 -54.957  15.354  1.00  0.00     0.162 HD
ENDROOT
BRANCH   1   5
HETATM    5  C   UNL     1     -42.069 -54.504  13.926  1.00  0.00     0.130 C 
BRANCH   5   6
HETATM    6  C   UNL     1     -41.396 -53.332  14.661  1.00  0.00     0.035 C 
HETATM    7  C   UNL     1     -40.918 -52.176  13.769  1.00  0.00     0.130 C 
HETATM    8  O   UNL     1     -39.666 -52.626  13.213  1.00  0.00    -0.385 OA
HETATM    9  C   UNL     1     -39.076 -53.556  14.125  1.00  0.00     0.168 C 
HETATM   10  C   UNL     1     -40.056 -53.750  15.265  1.00  0.00     0.035 C 
BRANCH   7  11
HETATM   11  C   UNL     1     -41.816 -51.648  12.638  1.00  0.00     0.007 C 
HETATM   12  C   UNL     1     -43.115 -51.039  13.163  1.00  0.00     0.012 C 
HETATM   13  C   UNL     1     -41.056 -50.591  11.817  1.00  0.00     0.012 C 
ENDBRANCH   7  11
ENDBRANCH   5   6
ENDBRANCH   1   5
BRANCH   2  14
HETATM   14  C   UNL     1     -45.883 -54.668  14.271  1.00  0.00     0.142 C 
BRANCH  14  15
HETATM   15  C   UNL     1     -46.235 -53.514  15.168  1.00  0.00    -0.034 A 
HETATM   16  C   UNL     1     -46.752 -52.322  14.655  1.00  0.00     0.011 A 
HETATM   17  C   UNL     1     -47.131 -51.297  15.521  1.00  0.00     0.025 A 
HETATM   18  C   UNL     1     -46.998 -51.491  16.891  1.00  0.00     0.005 A 
HETATM   19  C   UNL     1     -47.393 -50.419  17.862  1.00  0.00     0.068 C 
HETATM   20  N   UNL     1     -46.493 -52.634  17.413  1.00  0.00    -0.369 N 
HETATM   21  C   UNL     1     -46.130 -53.613  16.551  1.00  0.00     0.095 A 
ATOM     22  HN  UNL     1     -46.389 -52.752  18.420  1.00  0.00     0.165 HD
ENDBRANCH  14  15
ENDBRANCH   2  14
TORSDOF 5
ENDMDL
MODEL 9
REMARK VINA RESULT:      -5.4      3.279      6.575
REMARK  5 active torsions:
REMARK  status: ('A' for Active; 'I' for Inactive)
REMARK    1  A    between atoms: C_2  and  C_4 
REMARK    2  A    between atoms: C_8  and  C_9 
REMARK    3  A    between atoms: C_9  and  N_10 
REMARK       I    between atoms: N_10  and  C_11 
REMARK    4  A    between atoms: C_11  and  C_13 
REMARK    5  A    between atoms: C_13  and  C_14 
ROOT
HETATM    1  N   UNL     1     -43.699 -52.103  12.626  1.00  0.00    -0.360 N 
HETATM    2  C   UNL     1     -44.644 -53.105  12.568  1.00  0.00     0.221 C 
HETATM    3  O   UNL     1     -44.387 -54.256  12.235  1.00  0.00    -0.273 OA
HETATM    4  H   UNL     1     -43.978 -51.183  12.943  1.00  0.00     0.162 HD
ENDROOT
BRANCH   1   5
HETATM    5  C   UNL     1     -42.315 -52.290  12.192  1.00  0.00     0.130 C 
BRANCH   5   6
HETATM    6  C   UNL     1     -41.314 -51.796  13.250  1.00  0.00     0.035 C 
HETATM    7  C   UNL     1     -41.204 -52.661  14.515  1.00  0.00     0.130 C 
HETATM    8  O   UNL     1     -42.338 -52.285  15.324  1.00  0.00    -0.385 OA
HETATM    9  C   UNL     1     -42.691 -50.937  15.007  1.00  0.00     0.168 C 
HETATM   10  C   UNL     1     -41.776 -50.486  13.885  1.00  0.00     0.035 C 
BRANCH   7  11
HETATM   11  C   UNL     1     -41.144 -54.193  14.403  1.00  0.00     0.007 C 
HETATM   12  C   UNL     1     -39.873 -54.773  15.020  1.00  0.00     0.012 C 
HETATM   13  C   UNL     1     -42.372 -54.816  15.092  1.00  0.00     0.012 C 
ENDBRANCH   7  11
ENDBRANCH   5   6
ENDBRANCH   1   5
BRANCH   2  14
HETATM   14  C   UNL     1     -46.056 -52.666  12.935  1.00  0.00     0.142 C 
BRANCH  14  15
HETATM   15  C   UNL     1     -46.288 -52.468  14.408  1.00  0.00    -0.034 A 
HETATM   16  C   UNL     1     -46.996 -51.367  14.895  1.00  0.00     0.011 A 
HETATM   17  C   UNL     1     -47.250 -51.251  16.261  1.00  0.00     0.025 A 
HETATM   18  C   UNL     1     -46.802 -52.250  17.116  1.00  0.00     0.005 A 
HETATM   19  C   UNL     1     -47.052 -52.170  18.592  1.00  0.00     0.068 C 
HETATM   20  N   UNL     1     -46.107 -53.323  16.670  1.00  0.00    -0.369 N 
HETATM   21  C   UNL     1     -45.871 -53.413  15.340  1.00  0.00     0.095 A 
ATOM     22  HN  UNL     1     -45.773 -54.039  17.315  1.00  0.00     0.165 HD
ENDBRANCH  14  15
ENDBRANCH   2  14
TORSDOF 5
ENDMDL
