MODEL 1
REMARK VINA RESULT:      -5.7      0.000      0.000
REMARK  4 active torsions:
REMARK  status: ('A' for Active; 'I' for Inactive)
REMARK       I    between atoms: N_2  and  C_3 
REMARK    1  A    between atoms: C_3  and  C_5 
REMARK    2  A    between atoms: C_5  and  C_6 
REMARK    3  A    between atoms: C_10  and  C_11 
REMARK    4  A    between atoms: C_11  and  C_12 
ROOT
HETATM    1  C   UNL     1     -42.220 -47.201  10.015  1.00  0.00     0.112 A 
HETATM    2  N   UNL     1     -42.570 -48.424  10.430  1.00  0.00    -0.247 N 
ATOM      3  HN  UNL     1     -43.438 -48.929  10.250  1.00  0.00     0.196 HD
HETATM    4  O   UNL     1     -41.465 -48.843  11.166  1.00  0.00    -0.223 OA
HETATM    5  C   UNL     1     -40.561 -47.820  11.128  1.00  0.00     0.148 A 
HETATM    6  N   UNL     1     -40.970 -46.789  10.421  1.00  0.00    -0.326 N 
ATOM      7  HN  UNL     1     -40.487 -45.912  10.225  1.00  0.00     0.169 HD
ENDROOT
BRANCH   1   8
HETATM    8  C   UNL     1     -43.120 -46.338   9.219  1.00  0.00     0.181 C 
BRANCH   8   9
HETATM    9  C   UNL     1     -44.370 -47.083   8.807  1.00  0.00     0.224 C 
HETATM   10  N   UNL     1     -45.529 -46.666   9.433  1.00  0.00    -0.365 N 
HETATM   11  C   UNL     1     -46.798 -47.249   9.085  1.00  0.00     0.149 C 
HETATM   12  H   UNL     1     -45.519 -45.773   9.915  1.00  0.00     0.161 HD
HETATM   13  O   UNL     1     -44.340 -48.028   8.023  1.00  0.00    -0.273 OA
ENDBRANCH   8   9
ENDBRANCH   1   8
BRANCH   5  14
HETATM   14  C   UNL     1     -39.308 -48.019  11.893  1.00  0.00     0.091 C 
BRANCH  14  15
HETATM   15  C   UNL     1     -38.880 -49.477  11.885  1.00  0.00    -0.007 C 
HETATM   16  C   UNL     1     -38.313 -50.020  13.226  1.00  0.00     0.005 C 
HETATM   17  C   UNL     1     -37.379 -50.908  12.379  1.00  0.00     0.001 C 
HETATM   18  C   UNL     1     -37.491 -49.831  11.278  1.00  0.00     0.005 C 
ENDBRANCH  14  15
ENDBRANCH   5  14
TORSDOF 4
ENDMDL
MODEL 2
REMARK VINA RESULT:      -5.5      5.711      7.532
REMARK  4 active torsions:
REMARK  status: ('A' for Active; 'I' for Inactive)
REMARK       I    between atoms: N_2  and  C_3 
REMARK    1  A    between atoms: C_3  and  C_5 
REMARK    2  A    between atoms: C_5  and  C_6 
REMARK    3  A    between atoms: C_10  and  C_11 
REMARK    4  A    between atoms: C_11  and  C_12 
ROOT
HETATM    1  C   UNL     1     -43.172 -52.955  12.495  1.00  0.00     0.112 A 
HETATM    2  N   UNL     1     -43.871 -54.093  12.402  1.00  0.00    -0.247 N 
ATOM      3  HN  UNL     1     -43.521 -55.041  12.261  1.00  0.00     0.196 HD
HETATM    4  O   UNL     1     -45.191 -53.673  12.545  1.00  0.00    -0.223 OA
HETATM    5  C   UNL     1     -45.154 -52.317  12.700  1.00  0.00     0.148 A 
HETATM    6  N   UNL     1     -43.934 -51.824  12.690  1.00  0.00    -0.326 N 
ATOM      7  HN  UNL     1     -43.631 -50.856  12.799  1.00  0.00     0.169 HD
ENDROOT
BRANCH   1   8
HETATM    8  C   UNL     1     -41.701 -52.906  12.356  1.00  0.00     0.181 C 
BRANCH   8   9
HETATM    9  C   UNL     1     -41.190 -51.485  12.418  1.00  0.00     0.224 C 
HETATM   10  N   UNL     1     -40.801 -50.952  11.205  1.00  0.00    -0.365 N 
HETATM   11  C   UNL     1     -40.354 -49.587  11.115  1.00  0.00     0.149 C 
HETATM   12  H   UNL     1     -41.097 -51.425  10.356  1.00  0.00     0.161 HD
HETATM   13  O   UNL     1     -41.073 -50.878  13.479  1.00  0.00    -0.273 OA
ENDBRANCH   8   9
ENDBRANCH   1   8
BRANCH   5  14
HETATM   14  C   UNL     1     -46.462 -51.632  12.823  1.00  0.00     0.091 C 
BRANCH  14  15
HETATM   15  C   UNL     1     -46.811 -51.362  14.277  1.00  0.00    -0.007 C 
HETATM   16  C   UNL     1     -45.604 -51.110  15.224  1.00  0.00     0.005 C 
HETATM   17  C   UNL     1     -46.427 -51.809  16.326  1.00  0.00     0.001 C 
HETATM   18  C   UNL     1     -47.138 -52.578  15.192  1.00  0.00     0.005 C 
ENDBRANCH  14  15
ENDBRANCH   5  14
TORSDOF 4
ENDMDL
MODEL 3
REMARK VINA RESULT:      -5.5      1.890      6.372
REMARK  4 active torsions:
REMARK  status: ('A' for Active; 'I' for Inactive)
REMARK       I    between atoms: N_2  and  C_3 
REMARK    1  A    between atoms: C_3  and  C_5 
REMARK    2  A    between atoms: C_5  and  C_6 
REMARK    3  A    between atoms: C_10  and  C_11 
REMARK    4  A    between atoms: C_11  and  C_12 
ROOT
HETATM    1  C   UNL     1     -41.320 -45.998  10.512  1.00  0.00     0.112 A 
HETATM    2  N   UNL     1     -41.696 -44.757  10.844  1.00  0.00    -0.247 N 
ATOM      3  HN  UNL     1     -41.201 -44.079  11.424  1.00  0.00     0.196 HD
HETATM    4  O   UNL     1     -42.926 -44.612  10.207  1.00  0.00    -0.223 OA
HETATM    5  C   UNL     1     -43.172 -45.789   9.561  1.00  0.00     0.148 A 
HETATM    6  N   UNL     1     -42.209 -46.674   9.705  1.00  0.00    -0.326 N 
ATOM      7  HN  UNL     1     -42.138 -47.615   9.319  1.00  0.00     0.169 HD
ENDROOT
BRANCH   1   8
HETATM    8  C   UNL     1     -40.071 -46.615  11.007  1.00  0.00     0.181 C 
BRANCH   8   9
HETATM    9  C   UNL     1     -40.317 -48.013  11.526  1.00  0.00     0.224 C 
HETATM   10  N   UNL     1     -39.253 -48.883  11.385  1.00  0.00    -0.365 N 
HETATM   11  C   UNL     1     -39.334 -50.226  11.894  1.00  0.00     0.149 C 
HETATM   12  H   UNL     1     -38.337 -48.492  11.184  1.00  0.00     0.161 HD
HETATM   13  O   UNL     1     -41.405 -48.361  11.979  1.00  0.00    -0.273 OA
ENDBRANCH   8   9
ENDBRANCH   1   8
BRANCH   5  14
HETATM   14  C   UNL     1     -44.464 -45.889   8.843  1.00  0.00     0.091 C 
BRANCH  14  15
HETATM   15  C   UNL     1     -45.223 -47.144   9.241  1.00  0.00    -0.007 C 
HETATM   16  C   UNL     1     -45.271 -48.270   8.171  1.00  0.00     0.005 C 
HETATM   17  C   UNL     1     -46.679 -48.605   8.703  1.00  0.00     0.001 C 
HETATM   18  C   UNL     1     -46.776 -47.126   9.138  1.00  0.00     0.005 C 
ENDBRANCH  14  15
ENDBRANCH   5  14
TORSDOF 4
ENDMDL
MODEL 4
REMARK VINA RESULT:      -5.4      4.175      5.295
REMARK  4 active torsions:
REMARK  status: ('A' for Active; 'I' for Inactive)
REMARK       I    between atoms: N_2  and  C_3 
REMARK    1  A    between atoms: C_3  and  C_5 
REMARK    2  A    between atoms: C_5  and  C_6 
REMARK    3  A    between atoms: C_10  and  C_11 
REMARK    4  A    between atoms: C_11  and  C_12 
ROOT
HETATM    1  C   UNL     1     -41.540 -49.764  11.505  1.00  0.00     0.112 A 
HETATM    2  N   UNL     1     -40.757 -50.848  11.436  1.00  0.00    -0.247 N 
ATOM      3  HN  UNL     1     -39.864 -50.953  10.955  1.00  0.00     0.196 HD
HETATM    4  O   UNL     1     -41.454 -51.797  12.180  1.00  0.00    -0.223 OA
HETATM    5  C   UNL     1     -42.597 -51.189  12.614  1.00  0.00     0.148 A 
HETATM    6  N   UNL     1     -42.694 -49.932  12.239  1.00  0.00    -0.326 N 
ATOM      7  HN  UNL     1     -43.432 -49.257  12.438  1.00  0.00     0.169 HD
ENDROOT
BRANCH   1   8
HETATM    8  C   UNL     1     -41.217 -48.498  10.813  1.00  0.00     0.181 C 
BRANCH   8   9
HETATM    9  C   UNL     1     -42.457 -47.860  10.228  1.00  0.00     0.224 C 
HETATM   10  N   UNL     1     -42.657 -48.103   8.883  1.00  0.00    -0.365 N 
HETATM   11  C   UNL     1     -43.832 -47.606   8.217  1.00  0.00     0.149 C 
HETATM   12  H   UNL     1     -42.133 -48.856   8.448  1.00  0.00     0.161 HD
HETATM   13  O   UNL     1     -43.190 -47.130  10.888  1.00  0.00    -0.273 OA
ENDBRANCH   8   9
ENDBRANCH   1   8
BRANCH   5  14
HETATM   14  C   UNL     1     -43.533 -52.029  13.397  1.00  0.00     0.091 C 
BRANCH  14  15
HETATM   15  C   UNL     1     -44.786 -51.257  13.775  1.00  0.00    -0.007 C 
HETATM   16  C   UNL     1     -45.473 -51.695  15.098  1.00  0.00     0.005 C 
HETATM   17  C   UNL     1     -46.814 -51.338  14.426  1.00  0.00     0.001 C 
HETATM   18  C   UNL     1     -46.124 -51.640  13.078  1.00  0.00     0.005 C 
ENDBRANCH  14  15
ENDBRANCH   5  14
TORSDOF 4
ENDMDL
MODEL 5
REMARK VINA RESULT:      -5.4      5.023      7.305
REMARK  4 active torsions:
REMARK  status: ('A' for Active; 'I' for Inactive)
REMARK       I    between atoms: N_2  and  C_3 
REMARK    1  A    between atoms: C_3  and  C_5 
REMARK    2  A    between atoms: C_5  and  C_6 
REMARK    3  A    between atoms: C_10  and  C_11 
REMARK    4  A    between atoms: C_11  and  C_12 
ROOT
HETATM    1  C   UNL     1     -39.902 -51.290  12.342  1.00  0.00     0.112 A 
HETATM    2  N   UNL     1     -40.900 -51.197  11.454  1.00  0.00    -0.247 N 
ATOM      3  HN  UNL     1     -41.055 -50.475  10.750  1.00  0.00     0.196 HD
HETATM    4  O   UNL     1     -41.676 -52.322  11.723  1.00  0.00    -0.223 OA
HETATM    5  C   UNL     1     -41.069 -52.976  12.756  1.00  0.00     0.148 A 
HETATM    6  N   UNL     1     -39.965 -52.391  13.168  1.00  0.00    -0.326 N 
ATOM      7  HN  UNL     1     -39.323 -52.677  13.907  1.00  0.00     0.169 HD
ENDROOT
BRANCH   1   8
HETATM    8  C   UNL     1     -38.839 -50.270  12.459  1.00  0.00     0.181 C 
BRANCH   8   9
HETATM    9  C   UNL     1     -37.614 -50.660  11.663  1.00  0.00     0.224 C 
HETATM   10  N   UNL     1     -37.511 -50.061  10.422  1.00  0.00    -0.365 N 
HETATM   11  C   UNL     1     -36.362 -50.298   9.589  1.00  0.00     0.149 C 
HETATM   12  H   UNL     1     -38.093 -49.251  10.230  1.00  0.00     0.161 HD
HETATM   13  O   UNL     1     -36.810 -51.496  12.067  1.00  0.00    -0.273 OA
ENDBRANCH   8   9
ENDBRANCH   1   8
BRANCH   5  14
HETATM   14  C   UNL     1     -41.749 -54.194  13.255  1.00  0.00     0.091 C 
BRANCH  14  15
HETATM   15  C   UNL     1     -43.156 -53.885  13.738  1.00  0.00    -0.007 C 
HETATM   16  C   UNL     1     -43.796 -54.948  14.674  1.00  0.00     0.005 C 
HETATM   17  C   UNL     1     -45.148 -54.588  14.025  1.00  0.00     0.001 C 
HETATM   18  C   UNL     1     -44.344 -54.175  12.774  1.00  0.00     0.005 C 
ENDBRANCH  14  15
ENDBRANCH   5  14
TORSDOF 4
ENDMDL
MODEL 6
REMARK VINA RESULT:      -5.1      6.580      8.568
REMARK  4 active torsions:
REMARK  status: ('A' for Active; 'I' for Inactive)
REMARK       I    between atoms: N_2  and  C_3 
REMARK    1  A    between atoms: C_3  and  C_5 
REMARK    2  A    between atoms: C_5  and  C_6 
REMARK    3  A    between atoms: C_10  and  C_11 
REMARK    4  A    between atoms: C_11  and  C_12 
ROOT
HETATM    1  C   UNL     1     -42.823 -54.149  13.626  1.00  0.00     0.112 A 
HETATM    2  N   UNL     1     -43.310 -54.018  12.386  1.00  0.00    -0.247 N 
ATOM      3  HN  UNL     1     -42.804 -53.805  11.526  1.00  0.00     0.196 HD
HETATM    4  O   UNL     1     -44.675 -54.241  12.552  1.00  0.00    -0.223 OA
HETATM    5  C   UNL     1     -44.873 -54.476  13.882  1.00  0.00     0.148 A 
HETATM    6  N   UNL     1     -43.763 -54.444  14.588  1.00  0.00    -0.326 N 
ATOM      7  HN  UNL     1     -43.633 -54.597  15.588  1.00  0.00     0.169 HD
ENDROOT
BRANCH   1   8
HETATM    8  C   UNL     1     -41.393 -53.950  13.948  1.00  0.00     0.181 C 
BRANCH   8   9
HETATM    9  C   UNL     1     -40.782 -52.868  13.088  1.00  0.00     0.224 C 
HETATM   10  N   UNL     1     -40.576 -51.661  13.728  1.00  0.00    -0.365 N 
HETATM   11  C   UNL     1     -39.943 -50.567  13.041  1.00  0.00     0.149 C 
HETATM   12  H   UNL     1     -40.608 -51.645  14.743  1.00  0.00     0.161 HD
HETATM   13  O   UNL     1     -40.549 -53.035  11.893  1.00  0.00    -0.273 OA
ENDBRANCH   8   9
ENDBRANCH   1   8
BRANCH   5  14
HETATM   14  C   UNL     1     -46.274 -54.695  14.311  1.00  0.00     0.091 C 
BRANCH  14  15
HETATM   15  C   UNL     1     -46.951 -53.387  14.683  1.00  0.00    -0.007 C 
HETATM   16  C   UNL     1     -46.470 -52.134  13.899  1.00  0.00     0.005 C 
HETATM   17  C   UNL     1     -46.719 -51.330  15.192  1.00  0.00     0.001 C 
HETATM   18  C   UNL     1     -46.461 -52.645  15.960  1.00  0.00     0.005 C 
ENDBRANCH  14  15
ENDBRANCH   5  14
TORSDOF 4
ENDMDL
MODEL 7
REMARK VINA RESULT:      -5.1      4.802      5.788
REMARK  4 active torsions:
REMARK  status: ('A' for Active; 'I' for Inactive)
REMARK       I    between atoms: N_2  and  C_3 
REMARK    1  A    between atoms: C_3  and  C_5 
REMARK    2  A    between atoms: C_5  and  C_6 
REMARK    3  A    between atoms: C_10  and  C_11 
REMARK    4  A    between atoms: C_11  and  C_12 
ROOT
HETATM    1  C   UNL     1     -40.993 -50.858  11.859  1.00  0.00     0.112 A 
HETATM    2  N   UNL     1     -41.014 -52.027  11.208  1.00  0.00    -0.247 N 
ATOM      3  HN  UNL     1     -40.633 -52.245  10.287  1.00  0.00     0.196 HD
HETATM    4  O   UNL     1     -41.679 -52.875  12.090  1.00  0.00    -0.223 OA
HETATM    5  C   UNL     1     -42.002 -52.125  13.183  1.00  0.00     0.148 A 
HETATM    6  N   UNL     1     -41.592 -50.877  13.100  1.00  0.00    -0.326 N 
ATOM      7  HN  UNL     1     -41.691 -50.121  13.777  1.00  0.00     0.169 HD
ENDROOT
BRANCH   1   8
HETATM    8  C   UNL     1     -40.414 -49.628  11.277  1.00  0.00     0.181 C 
BRANCH   8   9
HETATM    9  C   UNL     1     -41.475 -48.576  11.049  1.00  0.00     0.224 C 
HETATM   10  N   UNL     1     -41.840 -48.393   9.729  1.00  0.00    -0.365 N 
HETATM   11  C   UNL     1     -42.884 -47.466   9.380  1.00  0.00     0.149 C 
HETATM   12  H   UNL     1     -41.576 -49.106   9.055  1.00  0.00     0.161 HD
HETATM   13  O   UNL     1     -41.928 -47.893  11.964  1.00  0.00    -0.273 OA
ENDBRANCH   8   9
ENDBRANCH   1   8
BRANCH   5  14
HETATM   14  C   UNL     1     -42.768 -52.810  14.250  1.00  0.00     0.091 C 
BRANCH  14  15
HETATM   15  C   UNL     1     -43.538 -54.000  13.701  1.00  0.00    -0.007 C 
HETATM   16  C   UNL     1     -44.997 -53.708  13.252  1.00  0.00     0.005 C 
HETATM   17  C   UNL     1     -45.343 -55.134  13.728  1.00  0.00     0.001 C 
HETATM   18  C   UNL     1     -44.164 -55.000  14.717  1.00  0.00     0.005 C 
ENDBRANCH  14  15
ENDBRANCH   5  14
TORSDOF 4
ENDMDL
MODEL 8
REMARK VINA RESULT:      -5.0      3.439      6.172
REMARK  4 active torsions:
REMARK  status: ('A' for Active; 'I' for Inactive)
REMARK       I    between atoms: N_2  and  C_3 
REMARK    1  A    between atoms: C_3  and  C_5 
REMARK    2  A    between atoms: C_5  and  C_6 
REMARK    3  A    between atoms: C_10  and  C_11 
REMARK    4  A    between atoms: C_11  and  C_12 
ROOT
HETATM    1  C   UNL     1     -41.132 -51.026  11.730  1.00  0.00     0.112 A 
HETATM    2  N   UNL     1     -40.074 -50.378  11.228  1.00  0.00    -0.247 N 
ATOM      3  HN  UNL     1     -39.146 -50.747  11.019  1.00  0.00     0.196 HD
HETATM    4  O   UNL     1     -40.544 -49.078  11.057  1.00  0.00    -0.223 OA
HETATM    5  C   UNL     1     -41.840 -49.072  11.486  1.00  0.00     0.148 A 
HETATM    6  N   UNL     1     -42.257 -50.250  11.899  1.00  0.00    -0.326 N 
ATOM      7  HN  UNL     1     -43.176 -50.518  12.252  1.00  0.00     0.169 HD
ENDROOT
BRANCH   1   8
HETATM    8  C   UNL     1     -41.086 -52.452  12.117  1.00  0.00     0.181 C 
BRANCH   8   9
HETATM    9  C   UNL     1     -42.310 -52.845  12.913  1.00  0.00     0.224 C 
HETATM   10  N   UNL     1     -43.235 -53.604  12.222  1.00  0.00    -0.365 N 
HETATM   11  C   UNL     1     -44.415 -54.096  12.882  1.00  0.00     0.149 C 
HETATM   12  H   UNL     1     -42.943 -54.043  11.354  1.00  0.00     0.161 HD
HETATM   13  O   UNL     1     -42.493 -52.460  14.064  1.00  0.00    -0.273 OA
ENDBRANCH   8   9
ENDBRANCH   1   8
BRANCH   5  14
HETATM   14  C   UNL     1     -42.542 -47.768  11.445  1.00  0.00     0.091 C 
BRANCH  14  15
HETATM   15  C   UNL     1     -43.097 -47.482  10.060  1.00  0.00    -0.007 C 
HETATM   16  C   UNL     1     -43.154 -45.983   9.655  1.00  0.00     0.005 C 
HETATM   17  C   UNL     1     -44.436 -46.327   8.869  1.00  0.00     0.001 C 
HETATM   18  C   UNL     1     -44.642 -47.481   9.874  1.00  0.00     0.005 C 
ENDBRANCH  14  15
ENDBRANCH   5  14
TORSDOF 4
ENDMDL
MODEL 9
REMARK VINA RESULT:      -5.0      4.389      6.012
REMARK  4 active torsions:
REMARK  status: ('A' for Active; 'I' for Inactive)
REMARK       I    between atoms: N_2  and  C_3 
REMARK    1  A    between atoms: C_3  and  C_5 
REMARK    2  A    between atoms: C_5  and  C_6 
REMARK    3  A    between atoms: C_10  and  C_11 
REMARK    4  A    between atoms: C_11  and  C_12 
ROOT
HETATM    1  C   UNL     1     -41.094 -50.722  11.950  1.00  0.00     0.112 A 
HETATM    2  N   UNL     1     -40.813 -51.875  11.330  1.00  0.00    -0.247 N 
ATOM      3  HN  UNL     1     -40.018 -52.093  10.729  1.00  0.00     0.196 HD
HETATM    4  O   UNL     1     -41.866 -52.706  11.704  1.00  0.00    -0.223 OA
HETATM    5  C   UNL     1     -42.683 -51.963  12.506  1.00  0.00     0.148 A 
HETATM    6  N   UNL     1     -42.248 -50.737  12.701  1.00  0.00    -0.326 N 
ATOM      7  HN  UNL     1     -42.659 -49.991  13.263  1.00  0.00     0.169 HD
ENDROOT
BRANCH   1   8
HETATM    8  C   UNL     1     -40.257 -49.511  11.805  1.00  0.00     0.181 C 
BRANCH   8   9
HETATM    9  C   UNL     1     -41.031 -48.382  11.164  1.00  0.00     0.224 C 
HETATM   10  N   UNL     1     -40.346 -47.186  11.069  1.00  0.00    -0.365 N 
HETATM   11  C   UNL     1     -40.946 -46.049  10.423  1.00  0.00     0.149 C 
HETATM   12  H   UNL     1     -39.339 -47.199  11.195  1.00  0.00     0.161 HD
HETATM   13  O   UNL     1     -42.202 -48.507  10.815  1.00  0.00    -0.273 OA
ENDBRANCH   8   9
ENDBRANCH   1   8
BRANCH   5  14
HETATM   14  C   UNL     1     -43.913 -52.631  12.993  1.00  0.00     0.091 C 
BRANCH  14  15
HETATM   15  C   UNL     1     -44.924 -51.622  13.511  1.00  0.00    -0.007 C 
HETATM   16  C   UNL     1     -45.440 -51.866  14.956  1.00  0.00     0.005 C 
HETATM   17  C   UNL     1     -46.792 -51.293  14.484  1.00  0.00     0.001 C 
HETATM   18  C   UNL     1     -46.408 -51.777  13.068  1.00  0.00     0.005 C 
ENDBRANCH  14  15
ENDBRANCH   5  14
TORSDOF 4
ENDMDL
