MODEL 1
REMARK VINA RESULT:      -6.0      0.000      0.000
REMARK  6 active torsions:
REMARK  status: ('A' for Active; 'I' for Inactive)
REMARK    1  A    between atoms: C_2  and  C_3 
REMARK    2  A    between atoms: C_3  and  N_4 
REMARK    3  A    between atoms: N_7  and  C_8 
REMARK    4  A    between atoms: C_8  and  C_9 
REMARK    5  A    between atoms: C_9  and  O_10 
REMARK    6  A    between atoms: C_9  and  C_11 
ROOT
HETATM    1  N   UNL     1     -40.960 -45.899  10.650  1.00  0.00    -0.297 N 
HETATM    2  C   UNL     1     -42.330 -45.831  10.306  1.00  0.00     0.330 A 
HETATM    3  O   UNL     1     -42.931 -44.880   9.832  1.00  0.00    -0.246 OA
HETATM    4  N   UNL     1     -42.875 -47.101  10.596  1.00  0.00    -0.295 N 
HETATM    5  C   UNL     1     -41.871 -47.916  11.137  1.00  0.00     0.066 A 
HETATM    6  C   UNL     1     -41.922 -49.224  11.573  1.00  0.00     0.032 A 
HETATM    7  C   UNL     1     -40.733 -49.784  12.057  1.00  0.00     0.002 A 
HETATM    8  C   UNL     1     -39.540 -49.035  12.091  1.00  0.00     0.002 A 
HETATM    9  C   UNL     1     -39.508 -47.710  11.645  1.00  0.00     0.032 A 
HETATM   10  C   UNL     1     -40.686 -47.174  11.170  1.00  0.00     0.066 A 
ENDROOT
BRANCH   4  11
HETATM   11  C   UNL     1     -44.247 -47.478  10.351  1.00  0.00     0.175 C 
BRANCH  11  12
HETATM   12  C   UNL     1     -44.618 -47.511   8.864  1.00  0.00     0.244 C 
BRANCH  12  13
HETATM   13  O   UNL     1     -43.670 -48.299   8.114  1.00  0.00    -0.385 OA
HETATM   14  H   UNL     1     -43.123 -48.804   8.744  1.00  0.00     0.210 HD
ENDBRANCH  12  13
BRANCH  12  15
HETATM   15  C   UNL     1     -46.068 -48.006   8.704  1.00  0.00     0.414 C 
HETATM   16  F   UNL     1     -46.958 -46.988   8.660  1.00  0.00    -0.168 F 
HETATM   17  F   UNL     1     -46.215 -48.711   7.559  1.00  0.00    -0.168 F 
HETATM   18  F   UNL     1     -46.441 -48.809   9.727  1.00  0.00    -0.168 F 
ENDBRANCH  12  15
ENDBRANCH  11  12
ENDBRANCH   4  11
BRANCH   1  19
HETATM   19  C   UNL     1     -40.002 -44.844  10.440  1.00  0.00     0.134 C 
BRANCH  19  20
HETATM   20  C   UNL     1     -40.062 -43.729  11.490  1.00  0.00     0.016 C 
HETATM   21  C   UNL     1     -39.324 -44.065  12.776  1.00  0.00     0.006 C 
ENDBRANCH  19  20
ENDBRANCH   1  19
TORSDOF 6
ENDMDL
MODEL 2
REMARK VINA RESULT:      -5.7      1.549      3.786
REMARK  6 active torsions:
REMARK  status: ('A' for Active; 'I' for Inactive)
REMARK    1  A    between atoms: C_2  and  C_3 
REMARK    2  A    between atoms: C_3  and  N_4 
REMARK    3  A    between atoms: N_7  and  C_8 
REMARK    4  A    between atoms: C_8  and  C_9 
REMARK    5  A    between atoms: C_9  and  O_10 
REMARK    6  A    between atoms: C_9  and  C_11 
ROOT
HETATM    1  N   UNL     1     -40.237 -47.453  12.142  1.00  0.00    -0.297 N 
HETATM    2  C   UNL     1     -41.069 -47.685  11.023  1.00  0.00     0.330 A 
HETATM    3  O   UNL     1     -41.458 -48.760  10.596  1.00  0.00    -0.246 OA
HETATM    4  N   UNL     1     -41.389 -46.414  10.497  1.00  0.00    -0.295 N 
HETATM    5  C   UNL     1     -40.741 -45.429  11.255  1.00  0.00     0.066 A 
HETATM    6  C   UNL     1     -40.746 -44.056  11.125  1.00  0.00     0.032 A 
HETATM    7  C   UNL     1     -40.003 -43.322  12.058  1.00  0.00     0.002 A 
HETATM    8  C   UNL     1     -39.284 -43.970  13.083  1.00  0.00     0.002 A 
HETATM    9  C   UNL     1     -39.290 -45.363  13.198  1.00  0.00     0.032 A 
HETATM   10  C   UNL     1     -40.029 -46.071  12.274  1.00  0.00     0.066 A 
ENDROOT
BRANCH   4  11
HETATM   11  C   UNL     1     -42.260 -46.192   9.367  1.00  0.00     0.175 C 
BRANCH  11  12
HETATM   12  C   UNL     1     -43.696 -45.828   9.760  1.00  0.00     0.244 C 
BRANCH  12  13
HETATM   13  O   UNL     1     -44.018 -44.486   9.342  1.00  0.00    -0.385 OA
HETATM   14  H   UNL     1     -44.609 -44.088  10.009  1.00  0.00     0.210 HD
ENDBRANCH  12  13
BRANCH  12  15
HETATM   15  C   UNL     1     -44.668 -46.881   9.196  1.00  0.00     0.414 C 
HETATM   16  F   UNL     1     -44.970 -47.841  10.102  1.00  0.00    -0.168 F 
HETATM   17  F   UNL     1     -45.836 -46.309   8.821  1.00  0.00    -0.168 F 
HETATM   18  F   UNL     1     -44.157 -47.510   8.113  1.00  0.00    -0.168 F 
ENDBRANCH  12  15
ENDBRANCH  11  12
ENDBRANCH   4  11
BRANCH   1  19
HETATM   19  C   UNL     1     -39.740 -48.474  13.029  1.00  0.00     0.134 C 
BRANCH  19  20
HETATM   20  C   UNL     1     -38.264 -48.824  12.813  1.00  0.00     0.016 C 
HETATM   21  C   UNL     1     -38.014 -49.667  11.573  1.00  0.00     0.006 C 
ENDBRANCH  19  20
ENDBRANCH   1  19
TORSDOF 6
ENDMDL
MODEL 3
REMARK VINA RESULT:      -5.6      7.331      8.871
REMARK  6 active torsions:
REMARK  status: ('A' for Active; 'I' for Inactive)
REMARK    1  A    between atoms: C_2  and  C_3 
REMARK    2  A    between atoms: C_3  and  N_4 
REMARK    3  A    between atoms: N_7  and  C_8 
REMARK    4  A    between atoms: C_8  and  C_9 
REMARK    5  A    between atoms: C_9  and  O_10 
REMARK    6  A    between atoms: C_9  and  C_11 
ROOT
HETATM    1  N   UNL     1     -42.971 -54.434  16.404  1.00  0.00    -0.297 N 
HETATM    2  C   UNL     1     -44.285 -54.446  15.883  1.00  0.00     0.330 A 
HETATM    3  O   UNL     1     -45.330 -54.562  16.504  1.00  0.00    -0.246 OA
HETATM    4  N   UNL     1     -44.161 -54.272  14.488  1.00  0.00    -0.295 N 
HETATM    5  C   UNL     1     -42.801 -54.190  14.157  1.00  0.00     0.066 A 
HETATM    6  C   UNL     1     -42.189 -54.026  12.932  1.00  0.00     0.032 A 
HETATM    7  C   UNL     1     -40.790 -53.963  12.919  1.00  0.00     0.002 A 
HETATM    8  C   UNL     1     -40.048 -54.064  14.114  1.00  0.00     0.002 A 
HETATM    9  C   UNL     1     -40.687 -54.232  15.346  1.00  0.00     0.032 A 
HETATM   10  C   UNL     1     -42.065 -54.289  15.342  1.00  0.00     0.066 A 
ENDROOT
BRANCH   4  11
HETATM   11  C   UNL     1     -45.273 -54.183  13.572  1.00  0.00     0.175 C 
BRANCH  11  12
HETATM   12  C   UNL     1     -45.570 -52.753  13.104  1.00  0.00     0.244 C 
BRANCH  12  13
HETATM   13  O   UNL     1     -46.165 -52.756  11.790  1.00  0.00    -0.385 OA
HETATM   14  H   UNL     1     -47.134 -52.825  11.889  1.00  0.00     0.210 HD
ENDBRANCH  12  13
BRANCH  12  15
HETATM   15  C   UNL     1     -46.439 -52.036  14.154  1.00  0.00     0.414 C 
HETATM   16  F   UNL     1     -47.298 -52.878  14.774  1.00  0.00    -0.168 F 
HETATM   17  F   UNL     1     -45.670 -51.475  15.116  1.00  0.00    -0.168 F 
HETATM   18  F   UNL     1     -47.184 -51.051  13.603  1.00  0.00    -0.168 F 
ENDBRANCH  12  15
ENDBRANCH  11  12
ENDBRANCH   4  11
BRANCH   1  19
HETATM   19  C   UNL     1     -42.636 -54.499  17.804  1.00  0.00     0.134 C 
BRANCH  19  20
HETATM   20  C   UNL     1     -42.576 -55.925  18.364  1.00  0.00     0.016 C 
HETATM   21  C   UNL     1     -41.196 -56.555  18.279  1.00  0.00     0.006 C 
ENDBRANCH  19  20
ENDBRANCH   1  19
TORSDOF 6
ENDMDL
MODEL 4
REMARK VINA RESULT:      -5.6      6.589      8.580
REMARK  6 active torsions:
REMARK  status: ('A' for Active; 'I' for Inactive)
REMARK    1  A    between atoms: C_2  and  C_3 
REMARK    2  A    between atoms: C_3  and  N_4 
REMARK    3  A    between atoms: N_7  and  C_8 
REMARK    4  A    between atoms: C_8  and  C_9 
REMARK    5  A    between atoms: C_9  and  O_10 
REMARK    6  A    between atoms: C_9  and  C_11 
ROOT
HETATM    1  N   UNL     1     -41.491 -54.282  15.228  1.00  0.00    -0.297 N 
HETATM    2  C   UNL     1     -42.752 -54.816  14.875  1.00  0.00     0.330 A 
HETATM    3  O   UNL     1     -43.398 -55.658  15.479  1.00  0.00    -0.246 OA
HETATM    4  N   UNL     1     -43.141 -54.163  13.685  1.00  0.00    -0.295 N 
HETATM    5  C   UNL     1     -42.127 -53.276  13.299  1.00  0.00     0.066 A 
HETATM    6  C   UNL     1     -42.049 -52.428  12.213  1.00  0.00     0.032 A 
HETATM    7  C   UNL     1     -40.899 -51.638  12.100  1.00  0.00     0.002 A 
HETATM    8  C   UNL     1     -39.870 -51.713  13.060  1.00  0.00     0.002 A 
HETATM    9  C   UNL     1     -39.967 -52.579  14.154  1.00  0.00     0.032 A 
HETATM   10  C   UNL     1     -41.107 -53.348  14.253  1.00  0.00     0.066 A 
ENDROOT
BRANCH   4  11
HETATM   11  C   UNL     1     -44.395 -54.382  13.005  1.00  0.00     0.175 C 
BRANCH  11  12
HETATM   12  C   UNL     1     -45.474 -53.352  13.356  1.00  0.00     0.244 C 
BRANCH  12  13
HETATM   13  O   UNL     1     -46.271 -53.026  12.199  1.00  0.00    -0.385 OA
HETATM   14  H   UNL     1     -46.016 -52.137  11.888  1.00  0.00     0.210 HD
ENDBRANCH  12  13
BRANCH  12  15
HETATM   15  C   UNL     1     -46.316 -53.868  14.538  1.00  0.00     0.414 C 
HETATM   16  F   UNL     1     -47.558 -53.331  14.558  1.00  0.00    -0.168 F 
HETATM   17  F   UNL     1     -46.466 -55.211  14.474  1.00  0.00    -0.168 F 
HETATM   18  F   UNL     1     -45.744 -53.578  15.728  1.00  0.00    -0.168 F 
ENDBRANCH  12  15
ENDBRANCH  11  12
ENDBRANCH   4  11
BRANCH   1  19
HETATM   19  C   UNL     1     -40.760 -54.610  16.425  1.00  0.00     0.134 C 
BRANCH  19  20
HETATM   20  C   UNL     1     -39.836 -55.824  16.279  1.00  0.00     0.016 C 
HETATM   21  C   UNL     1     -40.310 -57.045  17.052  1.00  0.00     0.006 C 
ENDBRANCH  19  20
ENDBRANCH   1  19
TORSDOF 6
ENDMDL
MODEL 5
REMARK VINA RESULT:      -5.6      5.767      7.519
REMARK  6 active torsions:
REMARK  status: ('A' for Active; 'I' for Inactive)
REMARK    1  A    between atoms: C_2  and  C_3 
REMARK    2  A    between atoms: C_3  and  N_4 
REMARK    3  A    between atoms: N_7  and  C_8 
REMARK    4  A    between atoms: C_8  and  C_9 
REMARK    5  A    between atoms: C_9  and  O_10 
REMARK    6  A    between atoms: C_9  and  C_11 
ROOT
HETATM    1  N   UNL     1     -43.239 -51.528  13.333  1.00  0.00    -0.297 N 
HETATM    2  C   UNL     1     -42.377 -50.478  12.941  1.00  0.00     0.330 A 
HETATM    3  O   UNL     1     -42.688 -49.403  12.455  1.00  0.00    -0.246 OA
HETATM    4  N   UNL     1     -41.066 -50.906  13.247  1.00  0.00    -0.295 N 
HETATM    5  C   UNL     1     -41.122 -52.201  13.781  1.00  0.00     0.066 A 
HETATM    6  C   UNL     1     -40.109 -53.029  14.220  1.00  0.00     0.032 A 
HETATM    7  C   UNL     1     -40.481 -54.281  14.725  1.00  0.00     0.002 A 
HETATM    8  C   UNL     1     -41.835 -54.669  14.778  1.00  0.00     0.002 A 
HETATM    9  C   UNL     1     -42.847 -53.816  14.327  1.00  0.00     0.032 A 
HETATM   10  C   UNL     1     -42.465 -52.585  13.835  1.00  0.00     0.066 A 
ENDROOT
BRANCH   4  11
HETATM   11  C   UNL     1     -39.878 -50.111  13.045  1.00  0.00     0.175 C 
BRANCH  11  12
HETATM   12  C   UNL     1     -39.111 -50.467  11.766  1.00  0.00     0.244 C 
BRANCH  12  13
HETATM   13  O   UNL     1     -39.728 -49.862  10.611  1.00  0.00    -0.385 OA
HETATM   14  H   UNL     1     -40.490 -50.411  10.345  1.00  0.00     0.210 HD
ENDBRANCH  12  13
BRANCH  12  15
HETATM   15  C   UNL     1     -37.630 -50.077  11.927  1.00  0.00     0.414 C 
HETATM   16  F   UNL     1     -37.463 -49.015  12.749  1.00  0.00    -0.168 F 
HETATM   17  F   UNL     1     -36.915 -51.100  12.451  1.00  0.00    -0.168 F 
HETATM   18  F   UNL     1     -37.064 -49.749  10.743  1.00  0.00    -0.168 F 
ENDBRANCH  12  15
ENDBRANCH  11  12
ENDBRANCH   4  11
BRANCH   1  19
HETATM   19  C   UNL     1     -44.678 -51.481  13.276  1.00  0.00     0.134 C 
BRANCH  19  20
HETATM   20  C   UNL     1     -45.343 -51.121  14.609  1.00  0.00     0.016 C 
HETATM   21  C   UNL     1     -46.828 -51.442  14.654  1.00  0.00     0.006 C 
ENDBRANCH  19  20
ENDBRANCH   1  19
TORSDOF 6
ENDMDL
MODEL 6
REMARK VINA RESULT:      -5.5      3.974      5.866
REMARK  6 active torsions:
REMARK  status: ('A' for Active; 'I' for Inactive)
REMARK    1  A    between atoms: C_2  and  C_3 
REMARK    2  A    between atoms: C_3  and  N_4 
REMARK    3  A    between atoms: N_7  and  C_8 
REMARK    4  A    between atoms: C_8  and  C_9 
REMARK    5  A    between atoms: C_9  and  O_10 
REMARK    6  A    between atoms: C_9  and  C_11 
ROOT
HETATM    1  N   UNL     1     -43.106 -46.575   9.571  1.00  0.00    -0.297 N 
HETATM    2  C   UNL     1     -43.244 -45.206   9.893  1.00  0.00     0.330 A 
HETATM    3  O   UNL     1     -43.970 -44.385   9.355  1.00  0.00    -0.246 OA
HETATM    4  N   UNL     1     -42.388 -44.967  10.990  1.00  0.00    -0.295 N 
HETATM    5  C   UNL     1     -41.714 -46.155  11.310  1.00  0.00     0.066 A 
HETATM    6  C   UNL     1     -40.782 -46.415  12.293  1.00  0.00     0.032 A 
HETATM    7  C   UNL     1     -40.292 -47.723  12.379  1.00  0.00     0.002 A 
HETATM    8  C   UNL     1     -40.739 -48.726  11.494  1.00  0.00     0.002 A 
HETATM    9  C   UNL     1     -41.684 -48.442  10.504  1.00  0.00     0.032 A 
HETATM   10  C   UNL     1     -42.159 -47.150  10.433  1.00  0.00     0.066 A 
ENDROOT
BRANCH   4  11
HETATM   11  C   UNL     1     -42.256 -43.698  11.664  1.00  0.00     0.175 C 
BRANCH  11  12
HETATM   12  C   UNL     1     -41.043 -42.881  11.206  1.00  0.00     0.244 C 
BRANCH  12  13
HETATM   13  O   UNL     1     -41.436 -41.860  10.266  1.00  0.00    -0.385 OA
HETATM   14  H   UNL     1     -42.100 -42.238   9.659  1.00  0.00     0.210 HD
ENDBRANCH  12  13
BRANCH  12  15
HETATM   15  C   UNL     1     -40.307 -42.314  12.435  1.00  0.00     0.414 C 
HETATM   16  F   UNL     1     -39.896 -41.039  12.245  1.00  0.00    -0.168 F 
HETATM   17  F   UNL     1     -41.113 -42.313  13.522  1.00  0.00    -0.168 F 
HETATM   18  F   UNL     1     -39.208 -43.039  12.743  1.00  0.00    -0.168 F 
ENDBRANCH  12  15
ENDBRANCH  11  12
ENDBRANCH   4  11
BRANCH   1  19
HETATM   19  C   UNL     1     -43.864 -47.268   8.560  1.00  0.00     0.134 C 
BRANCH  19  20
HETATM   20  C   UNL     1     -45.339 -47.476   8.920  1.00  0.00     0.016 C 
HETATM   21  C   UNL     1     -46.031 -48.525   8.065  1.00  0.00     0.006 C 
ENDBRANCH  19  20
ENDBRANCH   1  19
TORSDOF 6
ENDMDL
MODEL 7
REMARK VINA RESULT:      -5.5      6.214      8.364
REMARK  6 active torsions:
REMARK  status: ('A' for Active; 'I' for Inactive)
REMARK    1  A    between atoms: C_2  and  C_3 
REMARK    2  A    between atoms: C_3  and  N_4 
REMARK    3  A    between atoms: N_7  and  C_8 
REMARK    4  A    between atoms: C_8  and  C_9 
REMARK    5  A    between atoms: C_9  and  O_10 
REMARK    6  A    between atoms: C_9  and  C_11 
ROOT
HETATM    1  N   UNL     1     -40.170 -53.174  15.115  1.00  0.00    -0.297 N 
HETATM    2  C   UNL     1     -39.482 -51.997  14.741  1.00  0.00     0.330 A 
HETATM    3  O   UNL     1     -38.439 -51.566  15.207  1.00  0.00    -0.246 OA
HETATM    4  N   UNL     1     -40.228 -51.416  13.693  1.00  0.00    -0.295 N 
HETATM    5  C   UNL     1     -41.365 -52.200  13.453  1.00  0.00     0.066 A 
HETATM    6  C   UNL     1     -42.385 -52.037  12.539  1.00  0.00     0.032 A 
HETATM    7  C   UNL     1     -43.393 -53.009  12.525  1.00  0.00     0.002 A 
HETATM    8  C   UNL     1     -43.358 -54.104  13.412  1.00  0.00     0.002 A 
HETATM    9  C   UNL     1     -42.316 -54.251  14.332  1.00  0.00     0.032 A 
HETATM   10  C   UNL     1     -41.329 -53.288  14.332  1.00  0.00     0.066 A 
ENDROOT
BRANCH   4  11
HETATM   11  C   UNL     1     -39.851 -50.215  12.987  1.00  0.00     0.175 C 
BRANCH  11  12
HETATM   12  C   UNL     1     -39.072 -50.480  11.694  1.00  0.00     0.244 C 
BRANCH  12  13
HETATM   13  O   UNL     1     -39.690 -49.811  10.575  1.00  0.00    -0.385 OA
HETATM   14  H   UNL     1     -39.857 -50.470   9.875  1.00  0.00     0.210 HD
ENDBRANCH  12  13
BRANCH  12  15
HETATM   15  C   UNL     1     -37.596 -50.084  11.888  1.00  0.00     0.414 C 
HETATM   16  F   UNL     1     -37.006 -49.711  10.729  1.00  0.00    -0.168 F 
HETATM   17  F   UNL     1     -37.484 -49.042  12.744  1.00  0.00    -0.168 F 
HETATM   18  F   UNL     1     -36.864 -51.104  12.391  1.00  0.00    -0.168 F 
ENDBRANCH  12  15
ENDBRANCH  11  12
ENDBRANCH   4  11
BRANCH   1  19
HETATM   19  C   UNL     1     -39.713 -54.122  16.099  1.00  0.00     0.134 C 
BRANCH  19  20
HETATM   20  C   UNL     1     -38.841 -55.245  15.524  1.00  0.00     0.016 C 
HETATM   21  C   UNL     1     -37.837 -55.805  16.518  1.00  0.00     0.006 C 
ENDBRANCH  19  20
ENDBRANCH   1  19
TORSDOF 6
ENDMDL
MODEL 8
REMARK VINA RESULT:      -5.4      5.337      6.642
REMARK  6 active torsions:
REMARK  status: ('A' for Active; 'I' for Inactive)
REMARK    1  A    between atoms: C_2  and  C_3 
REMARK    2  A    between atoms: C_3  and  N_4 
REMARK    3  A    between atoms: N_7  and  C_8 
REMARK    4  A    between atoms: C_8  and  C_9 
REMARK    5  A    between atoms: C_9  and  O_10 
REMARK    6  A    between atoms: C_9  and  C_11 
ROOT
HETATM    1  N   UNL     1     -41.776 -50.729  13.771  1.00  0.00    -0.297 N 
HETATM    2  C   UNL     1     -43.026 -51.162  13.272  1.00  0.00     0.330 A 
HETATM    3  O   UNL     1     -44.019 -50.483  13.063  1.00  0.00    -0.246 OA
HETATM    4  N   UNL     1     -42.900 -52.549  13.034  1.00  0.00    -0.295 N 
HETATM    5  C   UNL     1     -41.614 -52.961  13.411  1.00  0.00     0.066 A 
HETATM    6  C   UNL     1     -41.030 -54.210  13.370  1.00  0.00     0.032 A 
HETATM    7  C   UNL     1     -39.703 -54.311  13.806  1.00  0.00     0.002 A 
HETATM    8  C   UNL     1     -39.003 -53.177  14.266  1.00  0.00     0.002 A 
HETATM    9  C   UNL     1     -39.613 -51.919  14.301  1.00  0.00     0.032 A 
HETATM   10  C   UNL     1     -40.918 -51.837  13.866  1.00  0.00     0.066 A 
ENDROOT
BRANCH   4  11
HETATM   11  C   UNL     1     -43.939 -53.381  12.478  1.00  0.00     0.175 C 
BRANCH  11  12
HETATM   12  C   UNL     1     -45.198 -53.456  13.349  1.00  0.00     0.244 C 
BRANCH  12  13
HETATM   13  O   UNL     1     -46.387 -53.282  12.551  1.00  0.00    -0.385 OA
HETATM   14  H   UNL     1     -46.732 -52.382  12.703  1.00  0.00     0.210 HD
ENDBRANCH  12  13
BRANCH  12  15
HETATM   15  C   UNL     1     -45.199 -54.776  14.143  1.00  0.00     0.414 C 
HETATM   16  F   UNL     1     -43.947 -55.230  14.389  1.00  0.00    -0.168 F 
HETATM   17  F   UNL     1     -45.806 -54.618  15.342  1.00  0.00    -0.168 F 
HETATM   18  F   UNL     1     -45.850 -55.761  13.483  1.00  0.00    -0.168 F 
ENDBRANCH  12  15
ENDBRANCH  11  12
ENDBRANCH   4  11
BRANCH   1  19
HETATM   19  C   UNL     1     -41.434 -49.362  14.072  1.00  0.00     0.134 C 
BRANCH  19  20
HETATM   20  C   UNL     1     -40.808 -48.604  12.896  1.00  0.00     0.016 C 
HETATM   21  C   UNL     1     -39.317 -48.355  13.058  1.00  0.00     0.006 C 
ENDBRANCH  19  20
ENDBRANCH   1  19
TORSDOF 6
ENDMDL
MODEL 9
REMARK VINA RESULT:      -5.2      1.920      2.163
REMARK  6 active torsions:
REMARK  status: ('A' for Active; 'I' for Inactive)
REMARK    1  A    between atoms: C_2  and  C_3 
REMARK    2  A    between atoms: C_3  and  N_4 
REMARK    3  A    between atoms: N_7  and  C_8 
REMARK    4  A    between atoms: C_8  and  C_9 
REMARK    5  A    between atoms: C_9  and  O_10 
REMARK    6  A    between atoms: C_9  and  C_11 
ROOT
HETATM    1  N   UNL     1     -41.387 -45.610  12.167  1.00  0.00    -0.297 N 
HETATM    2  C   UNL     1     -41.613 -45.881  10.798  1.00  0.00     0.330 A 
HETATM    3  O   UNL     1     -41.297 -45.191   9.841  1.00  0.00    -0.246 OA
HETATM    4  N   UNL     1     -42.265 -47.132  10.744  1.00  0.00    -0.295 N 
HETATM    5  C   UNL     1     -42.464 -47.600  12.050  1.00  0.00     0.066 A 
HETATM    6  C   UNL     1     -43.056 -48.762  12.501  1.00  0.00     0.032 A 
HETATM    7  C   UNL     1     -43.094 -48.965  13.885  1.00  0.00     0.002 A 
HETATM    8  C   UNL     1     -42.547 -48.016  14.773  1.00  0.00     0.002 A 
HETATM    9  C   UNL     1     -41.952 -46.844  14.297  1.00  0.00     0.032 A 
HETATM   10  C   UNL     1     -41.920 -46.660  12.930  1.00  0.00     0.066 A 
ENDROOT
BRANCH   4  11
HETATM   11  C   UNL     1     -42.642 -47.806   9.524  1.00  0.00     0.175 C 
BRANCH  11  12
HETATM   12  C   UNL     1     -43.588 -46.988   8.637  1.00  0.00     0.244 C 
BRANCH  12  13
HETATM   13  O   UNL     1     -43.203 -47.082   7.250  1.00  0.00    -0.385 OA
HETATM   14  H   UNL     1     -42.228 -47.116   7.202  1.00  0.00     0.210 HD
ENDBRANCH  12  13
BRANCH  12  15
HETATM   15  C   UNL     1     -45.042 -47.430   8.887  1.00  0.00     0.414 C 
HETATM   16  F   UNL     1     -45.921 -46.410   8.751  1.00  0.00    -0.168 F 
HETATM   17  F   UNL     1     -45.412 -48.392   8.009  1.00  0.00    -0.168 F 
HETATM   18  F   UNL     1     -45.209 -47.929  10.133  1.00  0.00    -0.168 F 
ENDBRANCH  12  15
ENDBRANCH  11  12
ENDBRANCH   4  11
BRANCH   1  19
HETATM   19  C   UNL     1     -40.671 -44.468  12.676  1.00  0.00     0.134 C 
BRANCH  19  20
HETATM   20  C   UNL     1     -41.569 -43.410  13.328  1.00  0.00     0.016 C 
HETATM   21  C   UNL     1     -42.811 -43.083  12.516  1.00  0.00     0.006 C 
ENDBRANCH  19  20
ENDBRANCH   1  19
TORSDOF 6
ENDMDL
