MODEL 1
REMARK VINA RESULT:      -5.6      0.000      0.000
REMARK  7 active torsions:
REMARK  status: ('A' for Active; 'I' for Inactive)
REMARK    1  A    between atoms: C_2  and  O_3 
REMARK    2  A    between atoms: O_3  and  C_4 
REMARK    3  A    between atoms: C_4  and  C_5 
REMARK    4  A    between atoms: C_5  and  O_6 
REMARK    5  A    between atoms: C_5  and  C_7 
REMARK    6  A    between atoms: C_7  and  N_8 
REMARK    7  A    between atoms: C_12  and  C_16 
ROOT
HETATM    1  N   UNL     1     -41.778 -47.026  11.032  1.00  0.00    -0.308 N 
HETATM    2  C   UNL     1     -41.497 -48.301  10.612  1.00  0.00     0.186 A 
HETATM    3  N   UNL     1     -40.435 -48.965  10.931  1.00  0.00    -0.355 N 
ATOM      4  HN  UNL     1     -40.278 -49.914  10.594  1.00  0.00     0.166 HD
HETATM    5  C   UNL     1     -39.528 -48.333  11.741  1.00  0.00     0.019 A 
HETATM    6  C   UNL     1     -39.651 -47.067  12.160  1.00  0.00     0.100 A 
HETATM    7  C   UNL     1     -40.873 -46.330  11.800  1.00  0.00     0.250 A 
HETATM    8  O   UNL     1     -41.058 -45.203  12.256  1.00  0.00    -0.268 OA
ENDROOT
BRANCH   1   9
HETATM    9  C   UNL     1     -43.113 -46.492  10.834  1.00  0.00     0.166 C 
BRANCH   9  10
HETATM   10  C   UNL     1     -43.346 -45.978   9.400  1.00  0.00     0.160 C 
BRANCH  10  11
HETATM   11  C   UNL     1     -44.353 -46.844   8.619  1.00  0.00     0.200 C 
BRANCH  11  12
HETATM   12  O   UNL     1     -45.649 -46.233   8.676  1.00  0.00    -0.389 OA
BRANCH  12  13
HETATM   13  C   UNL     1     -46.620 -47.129   9.218  1.00  0.00     0.163 C 
HETATM   14  C   UNL     1     -46.492 -48.471   8.524  1.00  0.00     0.033 C 
ENDBRANCH  12  13
ENDBRANCH  11  12
ENDBRANCH  10  11
BRANCH  10  15
HETATM   15  O   UNL     1     -43.785 -44.616   9.498  1.00  0.00    -0.392 OA
HETATM   16  H   UNL     1     -43.185 -44.151  10.108  1.00  0.00     0.210 HD
ENDBRANCH  10  15
ENDBRANCH   9  10
ENDBRANCH   1   9
BRANCH   5  17
HETATM   17  C   UNL     1     -38.394 -49.138  12.269  1.00  0.00     0.036 C 
HETATM   18  C   UNL     1     -37.452 -49.793  11.224  1.00  0.00     0.011 C 
HETATM   19  C   UNL     1     -37.331 -50.988  12.192  1.00  0.00     0.001 C 
HETATM   20  C   UNL     1     -38.711 -50.583  12.744  1.00  0.00     0.011 C 
ENDBRANCH   5  17
TORSDOF 7
ENDMDL
MODEL 2
REMARK VINA RESULT:      -5.5      6.684      8.990
REMARK  7 active torsions:
REMARK  status: ('A' for Active; 'I' for Inactive)
REMARK    1  A    between atoms: C_2  and  O_3 
REMARK    2  A    between atoms: O_3  and  C_4 
REMARK    3  A    between atoms: C_4  and  C_5 
REMARK    4  A    between atoms: C_5  and  O_6 
REMARK    5  A    between atoms: C_5  and  C_7 
REMARK    6  A    between atoms: C_7  and  N_8 
REMARK    7  A    between atoms: C_12  and  C_16 
ROOT
HETATM    1  N   UNL     1     -42.935 -54.111  13.643  1.00  0.00    -0.308 N 
HETATM    2  C   UNL     1     -43.760 -53.240  12.980  1.00  0.00     0.186 A 
HETATM    3  N   UNL     1     -44.933 -52.881  13.387  1.00  0.00    -0.355 N 
ATOM      4  HN  UNL     1     -45.503 -52.224  12.855  1.00  0.00     0.166 HD
HETATM    5  C   UNL     1     -45.374 -53.423  14.565  1.00  0.00     0.019 A 
HETATM    6  C   UNL     1     -44.695 -54.338  15.270  1.00  0.00     0.100 A 
HETATM    7  C   UNL     1     -43.355 -54.726  14.800  1.00  0.00     0.250 A 
HETATM    8  O   UNL     1     -42.670 -55.485  15.482  1.00  0.00    -0.268 OA
ENDROOT
BRANCH   1   9
HETATM    9  C   UNL     1     -41.547 -54.226  13.233  1.00  0.00     0.166 C 
BRANCH   9  10
HETATM   10  C   UNL     1     -41.032 -52.969  12.506  1.00  0.00     0.160 C 
BRANCH  10  11
HETATM   11  C   UNL     1     -39.969 -52.209  13.323  1.00  0.00     0.200 C 
BRANCH  11  12
HETATM   12  O   UNL     1     -38.913 -51.785  12.450  1.00  0.00    -0.389 OA
BRANCH  12  13
HETATM   13  C   UNL     1     -38.664 -50.385  12.581  1.00  0.00     0.163 C 
HETATM   14  C   UNL     1     -37.563 -49.989  11.617  1.00  0.00     0.033 C 
ENDBRANCH  12  13
ENDBRANCH  11  12
ENDBRANCH  10  11
BRANCH  10  15
HETATM   15  O   UNL     1     -40.520 -53.388  11.234  1.00  0.00    -0.392 OA
HETATM   16  H   UNL     1     -39.987 -52.658  10.870  1.00  0.00     0.210 HD
ENDBRANCH  10  15
ENDBRANCH   9  10
ENDBRANCH   1   9
BRANCH   5  17
HETATM   17  C   UNL     1     -46.634 -52.887  15.144  1.00  0.00     0.036 C 
HETATM   18  C   UNL     1     -46.941 -51.387  14.891  1.00  0.00     0.011 C 
HETATM   19  C   UNL     1     -47.550 -51.349  16.308  1.00  0.00     0.001 C 
HETATM   20  C   UNL     1     -46.623 -52.529  16.656  1.00  0.00     0.011 C 
ENDBRANCH   5  17
TORSDOF 7
ENDMDL
MODEL 3
REMARK VINA RESULT:      -5.3      5.144      6.814
REMARK  7 active torsions:
REMARK  status: ('A' for Active; 'I' for Inactive)
REMARK    1  A    between atoms: C_2  and  O_3 
REMARK    2  A    between atoms: O_3  and  C_4 
REMARK    3  A    between atoms: C_4  and  C_5 
REMARK    4  A    between atoms: C_5  and  O_6 
REMARK    5  A    between atoms: C_5  and  C_7 
REMARK    6  A    between atoms: C_7  and  N_8 
REMARK    7  A    between atoms: C_12  and  C_16 
ROOT
HETATM    1  N   UNL     1     -42.317 -50.914  12.520  1.00  0.00    -0.308 N 
HETATM    2  C   UNL     1     -43.539 -50.456  12.942  1.00  0.00     0.186 A 
HETATM    3  N   UNL     1     -44.582 -51.198  13.120  1.00  0.00    -0.355 N 
ATOM      4  HN  UNL     1     -45.467 -50.805  13.440  1.00  0.00     0.166 HD
HETATM    5  C   UNL     1     -44.445 -52.535  12.858  1.00  0.00     0.019 A 
HETATM    6  C   UNL     1     -43.328 -53.095  12.374  1.00  0.00     0.100 A 
HETATM    7  C   UNL     1     -42.144 -52.239  12.191  1.00  0.00     0.250 A 
HETATM    8  O   UNL     1     -41.078 -52.745  11.846  1.00  0.00    -0.268 OA
ENDROOT
BRANCH   1   9
HETATM    9  C   UNL     1     -41.160 -50.042  12.618  1.00  0.00     0.166 C 
BRANCH   9  10
HETATM   10  C   UNL     1     -40.941 -49.195  11.350  1.00  0.00     0.160 C 
BRANCH  10  11
HETATM   11  C   UNL     1     -40.099 -47.933  11.622  1.00  0.00     0.200 C 
BRANCH  11  12
HETATM   12  O   UNL     1     -40.506 -46.888  10.728  1.00  0.00    -0.389 OA
BRANCH  12  13
HETATM   13  C   UNL     1     -40.102 -45.606  11.213  1.00  0.00     0.163 C 
HETATM   14  C   UNL     1     -39.523 -44.807  10.062  1.00  0.00     0.033 C 
ENDBRANCH  12  13
ENDBRANCH  11  12
ENDBRANCH  10  11
BRANCH  10  15
HETATM   15  O   UNL     1     -40.324 -50.040  10.370  1.00  0.00    -0.392 OA
HETATM   16  H   UNL     1     -40.829 -49.956   9.541  1.00  0.00     0.210 HD
ENDBRANCH  10  15
ENDBRANCH   9  10
ENDBRANCH   1   9
BRANCH   5  17
HETATM   17  C   UNL     1     -45.572 -53.432  13.230  1.00  0.00     0.036 C 
HETATM   18  C   UNL     1     -46.302 -53.126  14.565  1.00  0.00     0.011 C 
HETATM   19  C   UNL     1     -46.458 -54.651  14.744  1.00  0.00     0.001 C 
HETATM   20  C   UNL     1     -45.206 -54.806  13.859  1.00  0.00     0.011 C 
ENDBRANCH   5  17
TORSDOF 7
ENDMDL
MODEL 4
REMARK VINA RESULT:      -5.3      4.900      6.640
REMARK  7 active torsions:
REMARK  status: ('A' for Active; 'I' for Inactive)
REMARK    1  A    between atoms: C_2  and  O_3 
REMARK    2  A    between atoms: O_3  and  C_4 
REMARK    3  A    between atoms: C_4  and  C_5 
REMARK    4  A    between atoms: C_5  and  O_6 
REMARK    5  A    between atoms: C_5  and  C_7 
REMARK    6  A    between atoms: C_7  and  N_8 
REMARK    7  A    between atoms: C_12  and  C_16 
ROOT
HETATM    1  N   UNL     1     -40.791 -51.806  12.595  1.00  0.00    -0.308 N 
HETATM    2  C   UNL     1     -42.061 -51.422  12.247  1.00  0.00     0.186 A 
HETATM    3  N   UNL     1     -43.105 -52.181  12.314  1.00  0.00    -0.355 N 
ATOM      4  HN  UNL     1     -44.028 -51.842  12.046  1.00  0.00     0.166 HD
HETATM    5  C   UNL     1     -42.913 -53.461  12.761  1.00  0.00     0.019 A 
HETATM    6  C   UNL     1     -41.715 -53.979  13.064  1.00  0.00     0.100 A 
HETATM    7  C   UNL     1     -40.539 -53.098  12.996  1.00  0.00     0.250 A 
HETATM    8  O   UNL     1     -39.445 -53.518  13.366  1.00  0.00    -0.268 OA
ENDROOT
BRANCH   1   9
HETATM    9  C   UNL     1     -39.757 -50.796  12.734  1.00  0.00     0.166 C 
BRANCH   9  10
HETATM   10  C   UNL     1     -39.669 -49.859  11.514  1.00  0.00     0.160 C 
BRANCH  10  11
HETATM   11  C   UNL     1     -39.757 -48.371  11.906  1.00  0.00     0.200 C 
BRANCH  11  12
HETATM   12  O   UNL     1     -41.135 -47.976  11.962  1.00  0.00    -0.389 OA
BRANCH  12  13
HETATM   13  C   UNL     1     -41.741 -48.027  10.670  1.00  0.00     0.163 C 
HETATM   14  C   UNL     1     -43.218 -47.715  10.808  1.00  0.00     0.033 C 
ENDBRANCH  12  13
ENDBRANCH  11  12
ENDBRANCH  10  11
BRANCH  10  15
HETATM   15  O   UNL     1     -38.440 -50.153  10.836  1.00  0.00    -0.392 OA
HETATM   16  H   UNL     1     -38.360 -49.541  10.083  1.00  0.00     0.210 HD
ENDBRANCH  10  15
ENDBRANCH   9  10
ENDBRANCH   1   9
BRANCH   5  17
HETATM   17  C   UNL     1     -44.120 -54.291  13.022  1.00  0.00     0.036 C 
HETATM   18  C   UNL     1     -45.450 -53.534  13.280  1.00  0.00     0.011 C 
HETATM   19  C   UNL     1     -45.801 -54.647  14.290  1.00  0.00     0.001 C 
HETATM   20  C   UNL     1     -44.286 -54.871  14.454  1.00  0.00     0.011 C 
ENDBRANCH   5  17
TORSDOF 7
ENDMDL
MODEL 5
REMARK VINA RESULT:      -5.1      5.297      7.472
REMARK  7 active torsions:
REMARK  status: ('A' for Active; 'I' for Inactive)
REMARK    1  A    between atoms: C_2  and  O_3 
REMARK    2  A    between atoms: O_3  and  C_4 
REMARK    3  A    between atoms: C_4  and  C_5 
REMARK    4  A    between atoms: C_5  and  O_6 
REMARK    5  A    between atoms: C_5  and  C_7 
REMARK    6  A    between atoms: C_7  and  N_8 
REMARK    7  A    between atoms: C_12  and  C_16 
ROOT
HETATM    1  N   UNL     1     -41.185 -52.165  12.602  1.00  0.00    -0.308 N 
HETATM    2  C   UNL     1     -42.503 -51.786  12.589  1.00  0.00     0.186 A 
HETATM    3  N   UNL     1     -43.471 -52.469  13.104  1.00  0.00    -0.355 N 
ATOM      4  HN  UNL     1     -44.435 -52.137  13.070  1.00  0.00     0.166 HD
HETATM    5  C   UNL     1     -43.144 -53.659  13.698  1.00  0.00     0.019 A 
HETATM    6  C   UNL     1     -41.907 -54.174  13.715  1.00  0.00     0.100 A 
HETATM    7  C   UNL     1     -40.814 -53.377  13.136  1.00  0.00     0.250 A 
HETATM    8  O   UNL     1     -39.656 -53.779  13.230  1.00  0.00    -0.268 OA
ENDROOT
BRANCH   1   9
HETATM    9  C   UNL     1     -40.165 -51.198  12.238  1.00  0.00     0.166 C 
BRANCH   9  10
HETATM   10  C   UNL     1     -40.747 -49.936  11.573  1.00  0.00     0.160 C 
BRANCH  10  11
HETATM   11  C   UNL     1     -40.264 -48.638  12.248  1.00  0.00     0.200 C 
BRANCH  11  12
HETATM   12  O   UNL     1     -40.147 -48.852  13.661  1.00  0.00    -0.389 OA
BRANCH  12  13
HETATM   13  C   UNL     1     -39.107 -48.048  14.222  1.00  0.00     0.163 C 
HETATM   14  C   UNL     1     -37.767 -48.588  13.763  1.00  0.00     0.033 C 
ENDBRANCH  12  13
ENDBRANCH  11  12
ENDBRANCH  10  11
BRANCH  10  15
HETATM   15  O   UNL     1     -40.385 -49.976  10.186  1.00  0.00    -0.392 OA
HETATM   16  H   UNL     1     -40.542 -50.881   9.861  1.00  0.00     0.210 HD
ENDBRANCH  10  15
ENDBRANCH   9  10
ENDBRANCH   1   9
BRANCH   5  17
HETATM   17  C   UNL     1     -44.208 -54.370  14.456  1.00  0.00     0.036 C 
HETATM   18  C   UNL     1     -45.354 -55.008  13.626  1.00  0.00     0.011 C 
HETATM   19  C   UNL     1     -46.304 -54.621  14.779  1.00  0.00     0.001 C 
HETATM   20  C   UNL     1     -45.308 -53.497  15.121  1.00  0.00     0.011 C 
ENDBRANCH   5  17
TORSDOF 7
ENDMDL
MODEL 6
REMARK VINA RESULT:      -5.1      6.850      9.413
REMARK  7 active torsions:
REMARK  status: ('A' for Active; 'I' for Inactive)
REMARK    1  A    between atoms: C_2  and  O_3 
REMARK    2  A    between atoms: O_3  and  C_4 
REMARK    3  A    between atoms: C_4  and  C_5 
REMARK    4  A    between atoms: C_5  and  O_6 
REMARK    5  A    between atoms: C_5  and  C_7 
REMARK    6  A    between atoms: C_7  and  N_8 
REMARK    7  A    between atoms: C_12  and  C_16 
ROOT
HETATM    1  N   UNL     1     -43.165 -53.176  13.522  1.00  0.00    -0.308 N 
HETATM    2  C   UNL     1     -42.970 -52.133  14.391  1.00  0.00     0.186 A 
HETATM    3  N   UNL     1     -43.915 -51.428  14.920  1.00  0.00    -0.355 N 
ATOM      4  HN  UNL     1     -43.714 -50.665  15.566  1.00  0.00     0.166 HD
HETATM    5  C   UNL     1     -45.200 -51.753  14.573  1.00  0.00     0.019 A 
HETATM    6  C   UNL     1     -45.520 -52.701  13.682  1.00  0.00     0.100 A 
HETATM    7  C   UNL     1     -44.432 -53.504  13.100  1.00  0.00     0.250 A 
HETATM    8  O   UNL     1     -44.705 -54.447  12.359  1.00  0.00    -0.268 OA
ENDROOT
BRANCH   1   9
HETATM    9  C   UNL     1     -42.053 -54.057  13.211  1.00  0.00     0.166 C 
BRANCH   9  10
HETATM   10  C   UNL     1     -40.749 -53.292  12.913  1.00  0.00     0.160 C 
BRANCH  10  11
HETATM   11  C   UNL     1     -39.579 -53.754  13.803  1.00  0.00     0.200 C 
BRANCH  11  12
HETATM   12  O   UNL     1     -40.083 -54.584  14.858  1.00  0.00    -0.389 OA
BRANCH  12  13
HETATM   13  C   UNL     1     -39.021 -55.235  15.558  1.00  0.00     0.163 C 
HETATM   14  C   UNL     1     -39.612 -56.114  16.641  1.00  0.00     0.033 C 
ENDBRANCH  12  13
ENDBRANCH  11  12
ENDBRANCH  10  11
BRANCH  10  15
HETATM   15  O   UNL     1     -40.455 -53.471  11.521  1.00  0.00    -0.392 OA
HETATM   16  H   UNL     1     -40.564 -52.609  11.079  1.00  0.00     0.210 HD
ENDBRANCH  10  15
ENDBRANCH   9  10
ENDBRANCH   1   9
BRANCH   5  17
HETATM   17  C   UNL     1     -46.306 -51.082  15.307  1.00  0.00     0.036 C 
HETATM   18  C   UNL     1     -46.045 -50.721  16.794  1.00  0.00     0.011 C 
HETATM   19  C   UNL     1     -47.528 -51.055  17.058  1.00  0.00     0.001 C 
HETATM   20  C   UNL     1     -47.459 -51.983  15.830  1.00  0.00     0.011 C 
ENDBRANCH   5  17
TORSDOF 7
ENDMDL
MODEL 7
REMARK VINA RESULT:      -5.0      4.153      4.995
REMARK  7 active torsions:
REMARK  status: ('A' for Active; 'I' for Inactive)
REMARK    1  A    between atoms: C_2  and  O_3 
REMARK    2  A    between atoms: O_3  and  C_4 
REMARK    3  A    between atoms: C_4  and  C_5 
REMARK    4  A    between atoms: C_5  and  O_6 
REMARK    5  A    between atoms: C_5  and  C_7 
REMARK    6  A    between atoms: C_7  and  N_8 
REMARK    7  A    between atoms: C_12  and  C_16 
ROOT
HETATM    1  N   UNL     1     -41.866 -49.820  12.588  1.00  0.00    -0.308 N 
HETATM    2  C   UNL     1     -41.478 -50.916  11.861  1.00  0.00     0.186 A 
HETATM    3  N   UNL     1     -42.048 -52.074  11.913  1.00  0.00    -0.355 N 
ATOM      4  HN  UNL     1     -41.720 -52.856  11.346  1.00  0.00     0.166 HD
HETATM    5  C   UNL     1     -43.112 -52.204  12.766  1.00  0.00     0.019 A 
HETATM    6  C   UNL     1     -43.544 -51.232  13.581  1.00  0.00     0.100 A 
HETATM    7  C   UNL     1     -42.893 -49.915  13.499  1.00  0.00     0.250 A 
HETATM    8  O   UNL     1     -43.335 -48.978  14.160  1.00  0.00    -0.268 OA
ENDROOT
BRANCH   1   9
HETATM    9  C   UNL     1     -41.328 -48.515  12.246  1.00  0.00     0.166 C 
BRANCH   9  10
HETATM   10  C   UNL     1     -41.588 -48.126  10.778  1.00  0.00     0.160 C 
BRANCH  10  11
HETATM   11  C   UNL     1     -43.020 -47.602  10.552  1.00  0.00     0.200 C 
BRANCH  11  12
HETATM   12  O   UNL     1     -43.076 -46.897   9.305  1.00  0.00    -0.389 OA
BRANCH  12  13
HETATM   13  C   UNL     1     -43.916 -47.571   8.366  1.00  0.00     0.163 C 
HETATM   14  C   UNL     1     -45.332 -47.597   8.904  1.00  0.00     0.033 C 
ENDBRANCH  12  13
ENDBRANCH  11  12
ENDBRANCH  10  11
BRANCH  10  15
HETATM   15  O   UNL     1     -40.605 -47.149  10.412  1.00  0.00    -0.392 OA
HETATM   16  H   UNL     1     -39.972 -47.574   9.806  1.00  0.00     0.210 HD
ENDBRANCH  10  15
ENDBRANCH   9  10
ENDBRANCH   1   9
BRANCH   5  17
HETATM   17  C   UNL     1     -43.896 -53.467  12.707  1.00  0.00     0.036 C 
HETATM   18  C   UNL     1     -45.417 -53.363  12.995  1.00  0.00     0.011 C 
HETATM   19  C   UNL     1     -45.305 -54.740  13.684  1.00  0.00     0.001 C 
HETATM   20  C   UNL     1     -43.825 -54.404  13.944  1.00  0.00     0.011 C 
ENDBRANCH   5  17
TORSDOF 7
ENDMDL
MODEL 8
REMARK VINA RESULT:      -4.9      7.567      9.405
REMARK  7 active torsions:
REMARK  status: ('A' for Active; 'I' for Inactive)
REMARK    1  A    between atoms: C_2  and  O_3 
REMARK    2  A    between atoms: O_3  and  C_4 
REMARK    3  A    between atoms: C_4  and  C_5 
REMARK    4  A    between atoms: C_5  and  O_6 
REMARK    5  A    between atoms: C_5  and  C_7 
REMARK    6  A    between atoms: C_7  and  N_8 
REMARK    7  A    between atoms: C_12  and  C_16 
ROOT
HETATM    1  N   UNL     1     -45.381 -53.133  13.471  1.00  0.00    -0.308 N 
HETATM    2  C   UNL     1     -45.834 -51.841  13.393  1.00  0.00     0.186 A 
HETATM    3  N   UNL     1     -46.509 -51.239  14.316  1.00  0.00    -0.355 N 
ATOM      4  HN  UNL     1     -46.817 -50.273  14.207  1.00  0.00     0.166 HD
HETATM    5  C   UNL     1     -46.791 -51.958  15.447  1.00  0.00     0.019 A 
HETATM    6  C   UNL     1     -46.468 -53.247  15.617  1.00  0.00     0.100 A 
HETATM    7  C   UNL     1     -45.687 -53.914  14.562  1.00  0.00     0.250 A 
HETATM    8  O   UNL     1     -45.289 -55.064  14.737  1.00  0.00    -0.268 OA
ENDROOT
BRANCH   1   9
HETATM    9  C   UNL     1     -44.411 -53.606  12.499  1.00  0.00     0.166 C 
BRANCH   9  10
HETATM   10  C   UNL     1     -42.984 -53.096  12.782  1.00  0.00     0.160 C 
BRANCH  10  11
HETATM   11  C   UNL     1     -42.103 -54.160  13.464  1.00  0.00     0.200 C 
BRANCH  11  12
HETATM   12  O   UNL     1     -40.821 -54.199  12.822  1.00  0.00    -0.389 OA
BRANCH  12  13
HETATM   13  C   UNL     1     -39.762 -54.108  13.776  1.00  0.00     0.163 C 
HETATM   14  C   UNL     1     -39.399 -52.649  13.970  1.00  0.00     0.033 C 
ENDBRANCH  12  13
ENDBRANCH  11  12
ENDBRANCH  10  11
BRANCH  10  15
HETATM   15  O   UNL     1     -42.425 -52.671  11.532  1.00  0.00    -0.392 OA
HETATM   16  H   UNL     1     -41.691 -53.272  11.312  1.00  0.00     0.210 HD
ENDBRANCH  10  15
ENDBRANCH   9  10
ENDBRANCH   1   9
BRANCH   5  17
HETATM   17  C   UNL     1     -47.402 -51.234  16.593  1.00  0.00     0.036 C 
HETATM   18  C   UNL     1     -46.498 -50.221  17.346  1.00  0.00     0.011 C 
HETATM   19  C   UNL     1     -47.219 -50.654  18.640  1.00  0.00     0.001 C 
HETATM   20  C   UNL     1     -47.503 -51.998  17.942  1.00  0.00     0.011 C 
ENDBRANCH   5  17
TORSDOF 7
ENDMDL
MODEL 9
REMARK VINA RESULT:      -4.9      3.822      6.826
REMARK  7 active torsions:
REMARK  status: ('A' for Active; 'I' for Inactive)
REMARK    1  A    between atoms: C_2  and  O_3 
REMARK    2  A    between atoms: O_3  and  C_4 
REMARK    3  A    between atoms: C_4  and  C_5 
REMARK    4  A    between atoms: C_5  and  O_6 
REMARK    5  A    between atoms: C_5  and  C_7 
REMARK    6  A    between atoms: C_7  and  N_8 
REMARK    7  A    between atoms: C_12  and  C_16 
ROOT
HETATM    1  N   UNL     1     -41.759 -50.106  11.963  1.00  0.00    -0.308 N 
HETATM    2  C   UNL     1     -40.745 -49.699  11.134  1.00  0.00     0.186 A 
HETATM    3  N   UNL     1     -40.611 -48.502  10.668  1.00  0.00    -0.355 N 
ATOM      4  HN  UNL     1     -39.833 -48.251  10.058  1.00  0.00     0.166 HD
HETATM    5  C   UNL     1     -41.562 -47.584  11.029  1.00  0.00     0.019 A 
HETATM    6  C   UNL     1     -42.638 -47.873  11.773  1.00  0.00     0.100 A 
HETATM    7  C   UNL     1     -42.769 -49.238  12.309  1.00  0.00     0.250 A 
HETATM    8  O   UNL     1     -43.691 -49.502  13.077  1.00  0.00    -0.268 OA
ENDROOT
BRANCH   1   9
HETATM    9  C   UNL     1     -41.655 -51.390  12.634  1.00  0.00     0.166 C 
BRANCH   9  10
HETATM   10  C   UNL     1     -40.307 -52.090  12.379  1.00  0.00     0.160 C 
BRANCH  10  11
HETATM   11  C   UNL     1     -39.570 -52.444  13.685  1.00  0.00     0.200 C 
BRANCH  11  12
HETATM   12  O   UNL     1     -39.035 -53.771  13.584  1.00  0.00    -0.389 OA
BRANCH  12  13
HETATM   13  C   UNL     1     -39.177 -54.481  14.816  1.00  0.00     0.163 C 
HETATM   14  C   UNL     1     -40.651 -54.621  15.136  1.00  0.00     0.033 C 
ENDBRANCH  12  13
ENDBRANCH  11  12
ENDBRANCH  10  11
BRANCH  10  15
HETATM   15  O   UNL     1     -40.572 -53.258  11.590  1.00  0.00    -0.392 OA
HETATM   16  H   UNL     1     -40.746 -53.998  12.199  1.00  0.00     0.210 HD
ENDBRANCH  10  15
ENDBRANCH   9  10
ENDBRANCH   1   9
BRANCH   5  17
HETATM   17  C   UNL     1     -41.329 -46.163  10.658  1.00  0.00     0.036 C 
HETATM   18  C   UNL     1     -39.853 -45.686  10.598  1.00  0.00     0.011 C 
HETATM   19  C   UNL     1     -40.348 -44.329  11.143  1.00  0.00     0.001 C 
HETATM   20  C   UNL     1     -41.526 -45.098  11.772  1.00  0.00     0.011 C 
ENDBRANCH   5  17
TORSDOF 7
ENDMDL
