MODEL 1
REMARK VINA RESULT:      -6.0      0.000      0.000
REMARK  6 active torsions:
REMARK  status: ('A' for Active; 'I' for Inactive)
REMARK    1  A    between atoms: C_2  and  S_3 
REMARK    2  A    between atoms: S_3  and  N_6 
REMARK    3  A    between atoms: C_9  and  C_12 
REMARK       I    between atoms: C_12  and  N_14 
REMARK    4  A    between atoms: N_14  and  C_15 
REMARK    5  A    between atoms: C_15  and  C_16 
REMARK    6  A    between atoms: C_16  and  C_17 
ROOT
HETATM    1  C   UNL     1     -42.355 -54.122  13.370  1.00  0.00     0.221 C 
HETATM    2  O   UNL     1     -42.651 -54.538  14.485  1.00  0.00    -0.273 OA
HETATM    3  N   UNL     1     -43.298 -53.846  12.403  1.00  0.00    -0.360 N 
HETATM    4  H   UNL     1     -43.026 -53.243  11.636  1.00  0.00     0.162 HD
ENDROOT
BRANCH   1   5
HETATM    5  C   UNL     1     -40.915 -53.888  12.918  1.00  0.00     0.081 C 
HETATM    6  C   UNL     1     -39.967 -53.915  14.124  1.00  0.00     0.034 C 
HETATM    7  C   UNL     1     -40.081 -52.642  14.958  1.00  0.00     0.136 C 
HETATM    8  N   UNL     1     -39.865 -51.430  14.131  1.00  0.00    -0.311 N 
HETATM    9  C   UNL     1     -40.861 -51.343  13.028  1.00  0.00     0.136 C 
HETATM   10  C   UNL     1     -40.782 -52.575  12.130  1.00  0.00     0.034 C 
BRANCH   8  11
HETATM   11  S   UNL     1     -38.278 -50.978  13.726  1.00  0.00     0.228 S 
HETATM   12  O   UNL     1     -37.704 -52.048  12.937  1.00  0.00    -0.206 OA
HETATM   13  O   UNL     1     -37.619 -50.510  14.925  1.00  0.00    -0.206 OA
BRANCH  11  14
HETATM   14  C   UNL     1     -38.542 -49.579  12.639  1.00  0.00     0.159 C 
HETATM   15  C   UNL     1     -37.712 -49.714  11.378  1.00  0.00     0.023 C 
ENDBRANCH  11  14
ENDBRANCH   8  11
ENDBRANCH   1   5
BRANCH   3  16
HETATM   16  C   UNL     1     -44.710 -53.977  12.716  1.00  0.00     0.128 C 
BRANCH  16  17
HETATM   17  C   UNL     1     -45.387 -52.624  12.886  1.00  0.00     0.076 C 
BRANCH  17  18
HETATM   18  C   UNL     1     -45.893 -52.445  14.290  1.00  0.00     0.010 A 
HETATM   19  C   UNL     1     -46.771 -51.411  14.602  1.00  0.00     0.025 A 
HETATM   20  C   UNL     1     -47.216 -51.282  15.915  1.00  0.00     0.003 A 
HETATM   21  C   UNL     1     -46.783 -52.190  16.873  1.00  0.00     0.017 A 
HETATM   22  C   UNL     1     -45.922 -53.199  16.475  1.00  0.00     0.088 A 
HETATM   23  N   UNL     1     -45.470 -53.345  15.209  1.00  0.00    -0.369 N 
ATOM     24  HN  UNL     1     -44.836 -54.103  14.957  1.00  0.00     0.165 HD
ENDBRANCH  17  18
ENDBRANCH  16  17
ENDBRANCH   3  16
TORSDOF 6
ENDMDL
MODEL 2
REMARK VINA RESULT:      -5.9      3.451      6.555
REMARK  6 active torsions:
REMARK  status: ('A' for Active; 'I' for Inactive)
REMARK    1  A    between atoms: C_2  and  S_3 
REMARK    2  A    between atoms: S_3  and  N_6 
REMARK    3  A    between atoms: C_9  and  C_12 
REMARK       I    between atoms: C_12  and  N_14 
REMARK    4  A    between atoms: N_14  and  C_15 
REMARK    5  A    between atoms: C_15  and  C_16 
REMARK    6  A    between atoms: C_16  and  C_17 
ROOT
HETATM    1  C   UNL     1     -41.122 -52.688  12.673  1.00  0.00     0.221 C 
HETATM    2  O   UNL     1     -40.172 -52.624  13.445  1.00  0.00    -0.273 OA
HETATM    3  N   UNL     1     -41.315 -51.781  11.652  1.00  0.00    -0.360 N 
HETATM    4  H   UNL     1     -41.928 -52.051  10.890  1.00  0.00     0.162 HD
ENDROOT
BRANCH   1   5
HETATM    5  C   UNL     1     -42.209 -53.757  12.768  1.00  0.00     0.081 C 
HETATM    6  C   UNL     1     -43.579 -53.153  12.429  1.00  0.00     0.034 C 
HETATM    7  C   UNL     1     -44.110 -52.286  13.566  1.00  0.00     0.136 C 
HETATM    8  N   UNL     1     -44.154 -53.034  14.845  1.00  0.00    -0.311 N 
HETATM    9  C   UNL     1     -42.801 -53.519  15.236  1.00  0.00     0.136 C 
HETATM   10  C   UNL     1     -42.219 -54.425  14.152  1.00  0.00     0.034 C 
BRANCH   8  11
HETATM   11  S   UNL     1     -45.432 -54.117  15.126  1.00  0.00     0.228 S 
HETATM   12  O   UNL     1     -45.528 -54.321  16.557  1.00  0.00    -0.206 OA
HETATM   13  O   UNL     1     -45.281 -55.240  14.228  1.00  0.00    -0.206 OA
BRANCH  11  14
HETATM   14  C   UNL     1     -46.861 -53.167  14.614  1.00  0.00     0.159 C 
HETATM   15  C   UNL     1     -47.174 -52.078  15.621  1.00  0.00     0.023 C 
ENDBRANCH  11  14
ENDBRANCH   8  11
ENDBRANCH   1   5
BRANCH   3  16
HETATM   16  C   UNL     1     -40.330 -50.742  11.416  1.00  0.00     0.128 C 
BRANCH  16  17
HETATM   17  C   UNL     1     -40.708 -49.431  12.091  1.00  0.00     0.076 C 
BRANCH  17  18
HETATM   18  C   UNL     1     -41.799 -48.728  11.333  1.00  0.00     0.010 A 
HETATM   19  C   UNL     1     -42.994 -48.387  11.961  1.00  0.00     0.025 A 
HETATM   20  C   UNL     1     -43.978 -47.736  11.222  1.00  0.00     0.003 A 
HETATM   21  C   UNL     1     -43.739 -47.435   9.887  1.00  0.00     0.017 A 
HETATM   22  C   UNL     1     -42.517 -47.794   9.344  1.00  0.00     0.088 A 
HETATM   23  N   UNL     1     -41.547 -48.431  10.036  1.00  0.00    -0.369 N 
ATOM     24  HN  UNL     1     -40.659 -48.678   9.599  1.00  0.00     0.165 HD
ENDBRANCH  17  18
ENDBRANCH  16  17
ENDBRANCH   3  16
TORSDOF 6
ENDMDL
MODEL 3
REMARK VINA RESULT:      -5.7      1.426      1.956
REMARK  6 active torsions:
REMARK  status: ('A' for Active; 'I' for Inactive)
REMARK    1  A    between atoms: C_2  and  S_3 
REMARK    2  A    between atoms: S_3  and  N_6 
REMARK    3  A    between atoms: C_9  and  C_12 
REMARK       I    between atoms: C_12  and  N_14 
REMARK    4  A    between atoms: N_14  and  C_15 
REMARK    5  A    between atoms: C_15  and  C_16 
REMARK    6  A    between atoms: C_16  and  C_17 
ROOT
HETATM    1  C   UNL     1     -41.268 -54.340  14.507  1.00  0.00     0.221 C 
HETATM    2  O   UNL     1     -41.046 -54.407  15.710  1.00  0.00    -0.273 OA
HETATM    3  N   UNL     1     -42.499 -54.635  13.959  1.00  0.00    -0.360 N 
HETATM    4  H   UNL     1     -42.699 -54.284  13.030  1.00  0.00     0.162 HD
ENDROOT
BRANCH   1   5
HETATM    5  C   UNL     1     -40.209 -53.951  13.478  1.00  0.00     0.081 C 
HETATM    6  C   UNL     1     -38.987 -53.340  14.179  1.00  0.00     0.034 C 
HETATM    7  C   UNL     1     -39.267 -51.921  14.663  1.00  0.00     0.136 C 
HETATM    8  N   UNL     1     -39.743 -51.053  13.559  1.00  0.00    -0.311 N 
HETATM    9  C   UNL     1     -40.997 -51.584  12.956  1.00  0.00     0.136 C 
HETATM   10  C   UNL     1     -40.781 -52.997  12.418  1.00  0.00     0.034 C 
BRANCH   8  11
HETATM   11  S   UNL     1     -38.613 -50.415  12.463  1.00  0.00     0.228 S 
HETATM   12  O   UNL     1     -39.349 -49.857  11.348  1.00  0.00    -0.206 OA
HETATM   13  O   UNL     1     -37.582 -51.406  12.245  1.00  0.00    -0.206 OA
BRANCH  11  14
HETATM   14  C   UNL     1     -37.906 -49.053  13.387  1.00  0.00     0.159 C 
HETATM   15  C   UNL     1     -38.940 -47.969  13.621  1.00  0.00     0.023 C 
ENDBRANCH  11  14
ENDBRANCH   8  11
ENDBRANCH   1   5
BRANCH   3  16
HETATM   16  C   UNL     1     -43.612 -54.971  14.829  1.00  0.00     0.128 C 
BRANCH  16  17
HETATM   17  C   UNL     1     -44.936 -55.006  14.077  1.00  0.00     0.076 C 
BRANCH  17  18
HETATM   18  C   UNL     1     -45.657 -53.692  14.193  1.00  0.00     0.010 A 
HETATM   19  C   UNL     1     -45.689 -52.802  13.123  1.00  0.00     0.025 A 
HETATM   20  C   UNL     1     -46.369 -51.597  13.273  1.00  0.00     0.003 A 
HETATM   21  C   UNL     1     -47.005 -51.319  14.477  1.00  0.00     0.017 A 
HETATM   22  C   UNL     1     -46.938 -52.265  15.485  1.00  0.00     0.088 A 
HETATM   23  N   UNL     1     -46.281 -53.441  15.369  1.00  0.00    -0.369 N 
ATOM     24  HN  UNL     1     -46.256 -54.112  16.136  1.00  0.00     0.165 HD
ENDBRANCH  17  18
ENDBRANCH  16  17
ENDBRANCH   3  16
TORSDOF 6
ENDMDL
MODEL 4
REMARK VINA RESULT:      -5.6      4.699      5.401
REMARK  6 active torsions:
REMARK  status: ('A' for Active; 'I' for Inactive)
REMARK    1  A    between atoms: C_2  and  S_3 
REMARK    2  A    between atoms: S_3  and  N_6 
REMARK    3  A    between atoms: C_9  and  C_12 
REMARK       I    between atoms: C_12  and  N_14 
REMARK    4  A    between atoms: N_14  and  C_15 
REMARK    5  A    between atoms: C_15  and  C_16 
REMARK    6  A    between atoms: C_16  and  C_17 
ROOT
HETATM    1  C   UNL     1     -42.719 -49.329  12.664  1.00  0.00     0.221 C 
HETATM    2  O   UNL     1     -42.639 -49.322  13.887  1.00  0.00    -0.273 OA
HETATM    3  N   UNL     1     -42.465 -50.453  11.907  1.00  0.00    -0.360 N 
HETATM    4  H   UNL     1     -42.826 -50.477  10.961  1.00  0.00     0.162 HD
ENDROOT
BRANCH   1   5
HETATM    5  C   UNL     1     -43.080 -48.095  11.840  1.00  0.00     0.081 C 
HETATM    6  C   UNL     1     -42.171 -47.994  10.607  1.00  0.00     0.034 C 
HETATM    7  C   UNL     1     -40.766 -47.531  10.980  1.00  0.00     0.136 C 
HETATM    8  N   UNL     1     -40.795 -46.253  11.731  1.00  0.00    -0.311 N 
HETATM    9  C   UNL     1     -41.581 -46.383  12.990  1.00  0.00     0.136 C 
HETATM   10  C   UNL     1     -43.015 -46.815  12.690  1.00  0.00     0.034 C 
BRANCH   8  11
HETATM   11  S   UNL     1     -41.008 -44.798  10.880  1.00  0.00     0.228 S 
HETATM   12  O   UNL     1     -42.382 -44.750  10.428  1.00  0.00    -0.206 OA
HETATM   13  O   UNL     1     -39.916 -44.658   9.941  1.00  0.00    -0.206 OA
BRANCH  11  14
HETATM   14  C   UNL     1     -40.813 -43.568  12.167  1.00  0.00     0.159 C 
HETATM   15  C   UNL     1     -40.829 -42.170  11.580  1.00  0.00     0.023 C 
ENDBRANCH  11  14
ENDBRANCH   8  11
ENDBRANCH   1   5
BRANCH   3  16
HETATM   16  C   UNL     1     -42.159 -51.711  12.566  1.00  0.00     0.128 C 
BRANCH  16  17
HETATM   17  C   UNL     1     -43.339 -52.672  12.540  1.00  0.00     0.076 C 
BRANCH  17  18
HETATM   18  C   UNL     1     -44.443 -52.196  13.442  1.00  0.00     0.010 A 
HETATM   19  C   UNL     1     -45.722 -51.966  12.941  1.00  0.00     0.025 A 
HETATM   20  C   UNL     1     -46.715 -51.527  13.810  1.00  0.00     0.003 A 
HETATM   21  C   UNL     1     -46.410 -51.339  15.153  1.00  0.00     0.017 A 
HETATM   22  C   UNL     1     -45.118 -51.607  15.573  1.00  0.00     0.088 A 
HETATM   23  N   UNL     1     -44.133 -52.029  14.750  1.00  0.00    -0.369 N 
ATOM     24  HN  UNL     1     -43.193 -52.215  15.100  1.00  0.00     0.165 HD
ENDBRANCH  17  18
ENDBRANCH  16  17
ENDBRANCH   3  16
TORSDOF 6
ENDMDL
MODEL 5
REMARK VINA RESULT:      -5.5      2.689      6.793
REMARK  6 active torsions:
REMARK  status: ('A' for Active; 'I' for Inactive)
REMARK    1  A    between atoms: C_2  and  S_3 
REMARK    2  A    between atoms: S_3  and  N_6 
REMARK    3  A    between atoms: C_9  and  C_12 
REMARK       I    between atoms: C_12  and  N_14 
REMARK    4  A    between atoms: N_14  and  C_15 
REMARK    5  A    between atoms: C_15  and  C_16 
REMARK    6  A    between atoms: C_16  and  C_17 
ROOT
HETATM    1  C   UNL     1     -40.206 -53.126  14.428  1.00  0.00     0.221 C 
HETATM    2  O   UNL     1     -39.778 -52.982  15.568  1.00  0.00    -0.273 OA
HETATM    3  N   UNL     1     -39.767 -52.364  13.366  1.00  0.00    -0.360 N 
HETATM    4  H   UNL     1     -39.930 -52.719  12.430  1.00  0.00     0.162 HD
ENDROOT
BRANCH   1   5
HETATM    5  C   UNL     1     -41.287 -54.140  14.060  1.00  0.00     0.081 C 
HETATM    6  C   UNL     1     -42.133 -53.614  12.891  1.00  0.00     0.034 C 
HETATM    7  C   UNL     1     -43.091 -52.516  13.339  1.00  0.00     0.136 C 
HETATM    8  N   UNL     1     -43.948 -52.966  14.463  1.00  0.00    -0.311 N 
HETATM    9  C   UNL     1     -43.130 -53.365  15.641  1.00  0.00     0.136 C 
HETATM   10  C   UNL     1     -42.164 -54.489  15.273  1.00  0.00     0.034 C 
BRANCH   8  11
HETATM   11  S   UNL     1     -45.292 -53.952  14.134  1.00  0.00     0.228 S 
HETATM   12  O   UNL     1     -45.579 -54.717  15.330  1.00  0.00    -0.206 OA
HETATM   13  O   UNL     1     -45.070 -54.616  12.869  1.00  0.00    -0.206 OA
BRANCH  11  14
HETATM   14  C   UNL     1     -46.607 -52.754  13.925  1.00  0.00     0.159 C 
HETATM   15  C   UNL     1     -46.333 -51.507  14.742  1.00  0.00     0.023 C 
ENDBRANCH  11  14
ENDBRANCH   8  11
ENDBRANCH   1   5
BRANCH   3  16
HETATM   16  C   UNL     1     -38.704 -51.395  13.565  1.00  0.00     0.128 C 
BRANCH  16  17
HETATM   17  C   UNL     1     -38.283 -50.730  12.262  1.00  0.00     0.076 C 
BRANCH  17  18
HETATM   18  C   UNL     1     -39.208 -49.599  11.910  1.00  0.00     0.010 A 
HETATM   19  C   UNL     1     -39.074 -48.355  12.520  1.00  0.00     0.025 A 
HETATM   20  C   UNL     1     -39.950 -47.335  12.164  1.00  0.00     0.003 A 
HETATM   21  C   UNL     1     -40.927 -47.579  11.206  1.00  0.00     0.017 A 
HETATM   22  C   UNL     1     -40.981 -48.840  10.636  1.00  0.00     0.088 A 
HETATM   23  N   UNL     1     -40.147 -49.850  10.966  1.00  0.00    -0.369 N 
ATOM     24  HN  UNL     1     -40.220 -50.765  10.522  1.00  0.00     0.165 HD
ENDBRANCH  17  18
ENDBRANCH  16  17
ENDBRANCH   3  16
TORSDOF 6
ENDMDL
MODEL 6
REMARK VINA RESULT:      -5.5      2.861      7.153
REMARK  6 active torsions:
REMARK  status: ('A' for Active; 'I' for Inactive)
REMARK    1  A    between atoms: C_2  and  S_3 
REMARK    2  A    between atoms: S_3  and  N_6 
REMARK    3  A    between atoms: C_9  and  C_12 
REMARK       I    between atoms: C_12  and  N_14 
REMARK    4  A    between atoms: N_14  and  C_15 
REMARK    5  A    between atoms: C_15  and  C_16 
REMARK    6  A    between atoms: C_16  and  C_17 
ROOT
HETATM    1  C   UNL     1     -40.712 -54.023  15.414  1.00  0.00     0.221 C 
HETATM    2  O   UNL     1     -40.627 -54.205  16.623  1.00  0.00    -0.273 OA
HETATM    3  N   UNL     1     -39.881 -53.160  14.731  1.00  0.00    -0.360 N 
HETATM    4  H   UNL     1     -39.803 -53.275  13.726  1.00  0.00     0.162 HD
ENDROOT
BRANCH   1   5
HETATM    5  C   UNL     1     -41.757 -54.705  14.534  1.00  0.00     0.081 C 
HETATM    6  C   UNL     1     -42.244 -53.742  13.443  1.00  0.00     0.034 C 
HETATM    7  C   UNL     1     -43.181 -52.679  14.008  1.00  0.00     0.136 C 
HETATM    8  N   UNL     1     -44.321 -53.289  14.734  1.00  0.00    -0.311 N 
HETATM    9  C   UNL     1     -43.851 -54.132  15.868  1.00  0.00     0.136 C 
HETATM   10  C   UNL     1     -42.929 -55.243  15.371  1.00  0.00     0.034 C 
BRANCH   8  11
HETATM   11  S   UNL     1     -45.627 -53.915  13.846  1.00  0.00     0.228 S 
HETATM   12  O   UNL     1     -45.765 -55.313  14.194  1.00  0.00    -0.206 OA
HETATM   13  O   UNL     1     -45.475 -53.508  12.466  1.00  0.00    -0.206 OA
BRANCH  11  14
HETATM   14  C   UNL     1     -47.023 -53.038  14.546  1.00  0.00     0.159 C 
HETATM   15  C   UNL     1     -46.752 -51.548  14.598  1.00  0.00     0.023 C 
ENDBRANCH  11  14
ENDBRANCH   8  11
ENDBRANCH   1   5
BRANCH   3  16
HETATM   16  C   UNL     1     -38.808 -52.483  15.437  1.00  0.00     0.128 C 
BRANCH  16  17
HETATM   17  C   UNL     1     -38.908 -50.969  15.314  1.00  0.00     0.076 C 
BRANCH  17  18
HETATM   18  C   UNL     1     -38.600 -50.519  13.914  1.00  0.00     0.010 A 
HETATM   19  C   UNL     1     -37.520 -51.055  13.217  1.00  0.00     0.025 A 
HETATM   20  C   UNL     1     -37.270 -50.611  11.922  1.00  0.00     0.003 A 
HETATM   21  C   UNL     1     -38.106 -49.657  11.356  1.00  0.00     0.017 A 
HETATM   22  C   UNL     1     -39.167 -49.188  12.111  1.00  0.00     0.088 A 
HETATM   23  N   UNL     1     -39.430 -49.597  13.372  1.00  0.00    -0.369 N 
ATOM     24  HN  UNL     1     -40.224 -49.226  13.895  1.00  0.00     0.165 HD
ENDBRANCH  17  18
ENDBRANCH  16  17
ENDBRANCH   3  16
TORSDOF 6
ENDMDL
MODEL 7
REMARK VINA RESULT:      -5.4      2.567      6.899
REMARK  6 active torsions:
REMARK  status: ('A' for Active; 'I' for Inactive)
REMARK    1  A    between atoms: C_2  and  S_3 
REMARK    2  A    between atoms: S_3  and  N_6 
REMARK    3  A    between atoms: C_9  and  C_12 
REMARK       I    between atoms: C_12  and  N_14 
REMARK    4  A    between atoms: N_14  and  C_15 
REMARK    5  A    between atoms: C_15  and  C_16 
REMARK    6  A    between atoms: C_16  and  C_17 
ROOT
HETATM    1  C   UNL     1     -40.618 -52.157  12.331  1.00  0.00     0.221 C 
HETATM    2  O   UNL     1     -39.568 -52.104  12.962  1.00  0.00    -0.273 OA
HETATM    3  N   UNL     1     -41.018 -51.161  11.465  1.00  0.00    -0.360 N 
HETATM    4  H   UNL     1     -41.720 -51.391  10.771  1.00  0.00     0.162 HD
ENDROOT
BRANCH   1   5
HETATM    5  C   UNL     1     -41.612 -53.311  12.451  1.00  0.00     0.081 C 
HETATM    6  C   UNL     1     -43.050 -52.788  12.332  1.00  0.00     0.034 C 
HETATM    7  C   UNL     1     -43.493 -52.065  13.599  1.00  0.00     0.136 C 
HETATM    8  N   UNL     1     -43.330 -52.920  14.799  1.00  0.00    -0.311 N 
HETATM    9  C   UNL     1     -41.910 -53.331  14.982  1.00  0.00     0.136 C 
HETATM   10  C   UNL     1     -41.406 -54.093  13.758  1.00  0.00     0.034 C 
BRANCH   8  11
HETATM   11  S   UNL     1     -44.489 -54.119  15.124  1.00  0.00     0.228 S 
HETATM   12  O   UNL     1     -43.932 -55.011  16.119  1.00  0.00    -0.206 OA
HETATM   13  O   UNL     1     -44.977 -54.633  13.863  1.00  0.00    -0.206 OA
BRANCH  11  14
HETATM   14  C   UNL     1     -45.802 -53.184  15.904  1.00  0.00     0.159 C 
HETATM   15  C   UNL     1     -46.864 -52.800  14.891  1.00  0.00     0.023 C 
ENDBRANCH  11  14
ENDBRANCH   8  11
ENDBRANCH   1   5
BRANCH   3  16
HETATM   16  C   UNL     1     -40.143 -50.028  11.218  1.00  0.00     0.128 C 
BRANCH  16  17
HETATM   17  C   UNL     1     -40.585 -48.787  11.982  1.00  0.00     0.076 C 
BRANCH  17  18
HETATM   18  C   UNL     1     -39.501 -48.311  12.908  1.00  0.00     0.010 A 
HETATM   19  C   UNL     1     -39.466 -46.987  13.340  1.00  0.00     0.025 A 
HETATM   20  C   UNL     1     -38.447 -46.588  14.198  1.00  0.00     0.003 A 
HETATM   21  C   UNL     1     -37.500 -47.518  14.610  1.00  0.00     0.017 A 
HETATM   22  C   UNL     1     -37.616 -48.817  14.147  1.00  0.00     0.088 A 
HETATM   23  N   UNL     1     -38.593 -49.231  13.309  1.00  0.00    -0.369 N 
ATOM     24  HN  UNL     1     -38.644 -50.199  12.992  1.00  0.00     0.165 HD
ENDBRANCH  17  18
ENDBRANCH  16  17
ENDBRANCH   3  16
TORSDOF 6
ENDMDL
MODEL 8
REMARK VINA RESULT:      -5.3      4.706      5.920
REMARK  6 active torsions:
REMARK  status: ('A' for Active; 'I' for Inactive)
REMARK    1  A    between atoms: C_2  and  S_3 
REMARK    2  A    between atoms: S_3  and  N_6 
REMARK    3  A    between atoms: C_9  and  C_12 
REMARK       I    between atoms: C_12  and  N_14 
REMARK    4  A    between atoms: N_14  and  C_15 
REMARK    5  A    between atoms: C_15  and  C_16 
REMARK    6  A    between atoms: C_16  and  C_17 
ROOT
HETATM    1  C   UNL     1     -42.223 -49.404  12.774  1.00  0.00     0.221 C 
HETATM    2  O   UNL     1     -42.463 -49.338  13.974  1.00  0.00    -0.273 OA
HETATM    3  N   UNL     1     -41.456 -50.407  12.221  1.00  0.00    -0.360 N 
HETATM    4  H   UNL     1     -41.540 -50.572  11.225  1.00  0.00     0.162 HD
ENDROOT
BRANCH   1   5
HETATM    5  C   UNL     1     -42.722 -48.375  11.762  1.00  0.00     0.081 C 
HETATM    6  C   UNL     1     -41.690 -48.188  10.641  1.00  0.00     0.034 C 
HETATM    7  C   UNL     1     -40.487 -47.379  11.111  1.00  0.00     0.136 C 
HETATM    8  N   UNL     1     -40.899 -46.074  11.683  1.00  0.00    -0.311 N 
HETATM    9  C   UNL     1     -41.809 -46.258  12.848  1.00  0.00     0.136 C 
HETATM   10  C   UNL     1     -43.057 -47.037  12.442  1.00  0.00     0.034 C 
BRANCH   8  11
HETATM   11  S   UNL     1     -41.298 -44.800  10.634  1.00  0.00     0.228 S 
HETATM   12  O   UNL     1     -42.403 -45.240   9.808  1.00  0.00    -0.206 OA
HETATM   13  O   UNL     1     -40.078 -44.308  10.032  1.00  0.00    -0.206 OA
BRANCH  11  14
HETATM   14  C   UNL     1     -41.920 -43.554  11.759  1.00  0.00     0.159 C 
HETATM   15  C   UNL     1     -43.080 -42.799  11.139  1.00  0.00     0.023 C 
ENDBRANCH  11  14
ENDBRANCH   8  11
ENDBRANCH   1   5
BRANCH   3  16
HETATM   16  C   UNL     1     -40.959 -51.481  13.063  1.00  0.00     0.128 C 
BRANCH  16  17
HETATM   17  C   UNL     1     -41.192 -52.851  12.441  1.00  0.00     0.076 C 
BRANCH  17  18
HETATM   18  C   UNL     1     -42.506 -53.429  12.886  1.00  0.00     0.010 A 
HETATM   19  C   UNL     1     -42.584 -54.219  14.030  1.00  0.00     0.025 A 
HETATM   20  C   UNL     1     -43.821 -54.733  14.407  1.00  0.00     0.003 A 
HETATM   21  C   UNL     1     -44.943 -54.439  13.643  1.00  0.00     0.017 A 
HETATM   22  C   UNL     1     -44.781 -53.632  12.529  1.00  0.00     0.088 A 
HETATM   23  N   UNL     1     -43.592 -53.123  12.137  1.00  0.00    -0.369 N 
ATOM     24  HN  UNL     1     -43.515 -52.532  11.310  1.00  0.00     0.165 HD
ENDBRANCH  17  18
ENDBRANCH  16  17
ENDBRANCH   3  16
TORSDOF 6
ENDMDL
MODEL 9
REMARK VINA RESULT:      -5.2      2.849      4.634
REMARK  6 active torsions:
REMARK  status: ('A' for Active; 'I' for Inactive)
REMARK    1  A    between atoms: C_2  and  S_3 
REMARK    2  A    between atoms: S_3  and  N_6 
REMARK    3  A    between atoms: C_9  and  C_12 
REMARK       I    between atoms: C_12  and  N_14 
REMARK    4  A    between atoms: N_14  and  C_15 
REMARK    5  A    between atoms: C_15  and  C_16 
REMARK    6  A    between atoms: C_16  and  C_17 
ROOT
HETATM    1  C   UNL     1     -40.136 -50.020  12.437  1.00  0.00     0.221 C 
HETATM    2  O   UNL     1     -41.253 -49.581  12.685  1.00  0.00    -0.273 OA
HETATM    3  N   UNL     1     -39.917 -51.326  12.052  1.00  0.00    -0.360 N 
HETATM    4  H   UNL     1     -39.043 -51.542  11.588  1.00  0.00     0.162 HD
ENDROOT
BRANCH   1   5
HETATM    5  C   UNL     1     -38.862 -49.185  12.551  1.00  0.00     0.081 C 
HETATM    6  C   UNL     1     -37.695 -50.058  13.033  1.00  0.00     0.034 C 
HETATM    7  C   UNL     1     -37.809 -50.380  14.520  1.00  0.00     0.136 C 
HETATM    8  N   UNL     1     -37.929 -49.147  15.335  1.00  0.00    -0.311 N 
HETATM    9  C   UNL     1     -39.130 -48.357  14.947  1.00  0.00     0.136 C 
HETATM   10  C   UNL     1     -39.069 -47.971  13.470  1.00  0.00     0.034 C 
BRANCH   8  11
HETATM   11  S   UNL     1     -36.533 -48.241  15.676  1.00  0.00     0.228 S 
HETATM   12  O   UNL     1     -36.319 -47.331  14.571  1.00  0.00    -0.206 OA
HETATM   13  O   UNL     1     -35.491 -49.153  16.093  1.00  0.00    -0.206 OA
BRANCH  11  14
HETATM   14  C   UNL     1     -37.040 -47.270  17.093  1.00  0.00     0.159 C 
HETATM   15  C   UNL     1     -35.937 -47.217  18.131  1.00  0.00     0.023 C 
ENDBRANCH  11  14
ENDBRANCH   8  11
ENDBRANCH   1   5
BRANCH   3  16
HETATM   16  C   UNL     1     -41.047 -52.218  11.856  1.00  0.00     0.128 C 
BRANCH  16  17
HETATM   17  C   UNL     1     -40.896 -53.514  12.639  1.00  0.00     0.076 C 
BRANCH  17  18
HETATM   18  C   UNL     1     -42.219 -53.971  13.186  1.00  0.00     0.010 A 
HETATM   19  C   UNL     1     -42.297 -54.589  14.432  1.00  0.00     0.025 A 
HETATM   20  C   UNL     1     -43.542 -54.995  14.902  1.00  0.00     0.003 A 
HETATM   21  C   UNL     1     -44.672 -54.766  14.125  1.00  0.00     0.017 A 
HETATM   22  C   UNL     1     -44.508 -54.131  12.906  1.00  0.00     0.088 A 
HETATM   23  N   UNL     1     -43.311 -53.730  12.423  1.00  0.00    -0.369 N 
ATOM     24  HN  UNL     1     -43.233 -53.265  11.519  1.00  0.00     0.165 HD
ENDBRANCH  17  18
ENDBRANCH  16  17
ENDBRANCH   3  16
TORSDOF 6
ENDMDL
