MODEL 1
REMARK VINA RESULT:      -6.7      0.000      0.000
REMARK  5 active torsions:
REMARK  status: ('A' for Active; 'I' for Inactive)
REMARK       I    between atoms: C_2  and  N_3 
REMARK    1  A    between atoms: C_2  and  C_13 
REMARK    2  A    between atoms: N_3  and  C_4 
REMARK    3  A    between atoms: C_4  and  C_5 
REMARK    4  A    between atoms: C_5  and  C_6 
REMARK    5  A    between atoms: N_15  and  C_16 
ROOT
HETATM    1  O   UNL     1     -39.106 -53.547  13.647  1.00  0.00    -0.273 OA
HETATM    2  C   UNL     1     -40.219 -53.109  13.373  1.00  0.00     0.223 C 
HETATM    3  N   UNL     1     -40.435 -51.780  13.058  1.00  0.00    -0.360 N 
HETATM    4  H   UNL     1     -41.380 -51.421  13.115  1.00  0.00     0.162 HD
ENDROOT
BRANCH   2   5
HETATM    5  C   UNL     1     -41.466 -53.966  13.378  1.00  0.00     0.104 C 
HETATM    6  C   UNL     1     -42.709 -53.144  13.062  1.00  0.00     0.141 C 
HETATM    7  N   UNL     1     -43.771 -53.771  13.817  1.00  0.00    -0.347 N 
HETATM    8  C   UNL     1     -43.259 -54.538  14.857  1.00  0.00     0.221 C 
HETATM    9  O   UNL     1     -43.898 -55.070  15.751  1.00  0.00    -0.273 OA
HETATM   10  C   UNL     1     -41.757 -54.572  14.745  1.00  0.00     0.118 C 
BRANCH   7  11
HETATM   11  C   UNL     1     -45.137 -53.254  13.854  1.00  0.00     0.087 C 
HETATM   12  C   UNL     1     -45.710 -52.801  12.505  1.00  0.00     0.025 C 
HETATM   13  C   UNL     1     -46.542 -51.549  12.787  1.00  0.00     0.002 C 
HETATM   14  C   UNL     1     -46.603 -51.414  14.301  1.00  0.00     0.002 C 
HETATM   15  C   UNL     1     -45.304 -52.044  14.779  1.00  0.00     0.025 C 
ENDBRANCH   7  11
ENDBRANCH   2   5
BRANCH   3  16
HETATM   16  C   UNL     1     -39.326 -50.839  13.137  1.00  0.00     0.128 C 
BRANCH  16  17
HETATM   17  C   UNL     1     -38.961 -50.234  11.786  1.00  0.00     0.076 C 
BRANCH  17  18
HETATM   18  C   UNL     1     -39.851 -49.061  11.467  1.00  0.00     0.010 A 
HETATM   19  C   UNL     1     -39.626 -47.819  12.055  1.00  0.00     0.025 A 
HETATM   20  C   UNL     1     -40.492 -46.769  11.762  1.00  0.00     0.003 A 
HETATM   21  C   UNL     1     -41.558 -46.987  10.897  1.00  0.00     0.017 A 
HETATM   22  C   UNL     1     -41.713 -48.252  10.358  1.00  0.00     0.088 A 
HETATM   23  N   UNL     1     -40.885 -49.289  10.623  1.00  0.00    -0.369 N 
ATOM     24  HN  UNL     1     -41.035 -50.207  10.204  1.00  0.00     0.165 HD
ENDBRANCH  17  18
ENDBRANCH  16  17
ENDBRANCH   3  16
TORSDOF 5
ENDMDL
MODEL 2
REMARK VINA RESULT:      -6.3      1.683      2.382
REMARK  5 active torsions:
REMARK  status: ('A' for Active; 'I' for Inactive)
REMARK       I    between atoms: C_2  and  N_3 
REMARK    1  A    between atoms: C_2  and  C_13 
REMARK    2  A    between atoms: N_3  and  C_4 
REMARK    3  A    between atoms: C_4  and  C_5 
REMARK    4  A    between atoms: C_5  and  C_6 
REMARK    5  A    between atoms: N_15  and  C_16 
ROOT
HETATM    1  O   UNL     1     -39.340 -52.005  12.950  1.00  0.00    -0.273 OA
HETATM    2  C   UNL     1     -40.375 -52.008  12.292  1.00  0.00     0.223 C 
HETATM    3  N   UNL     1     -40.665 -51.025  11.364  1.00  0.00    -0.360 N 
HETATM    4  H   UNL     1     -41.626 -50.918  11.061  1.00  0.00     0.162 HD
ENDROOT
BRANCH   2   5
HETATM    5  C   UNL     1     -41.447 -53.065  12.444  1.00  0.00     0.104 C 
HETATM    6  C   UNL     1     -42.838 -52.447  12.486  1.00  0.00     0.141 C 
HETATM    7  N   UNL     1     -43.602 -53.312  13.358  1.00  0.00    -0.347 N 
HETATM    8  C   UNL     1     -42.766 -54.064  14.174  1.00  0.00     0.221 C 
HETATM    9  O   UNL     1     -43.106 -54.774  15.107  1.00  0.00    -0.273 OA
HETATM   10  C   UNL     1     -41.337 -53.827  13.758  1.00  0.00     0.118 C 
BRANCH   7  11
HETATM   11  C   UNL     1     -44.989 -53.045  13.730  1.00  0.00     0.087 C 
HETATM   12  C   UNL     1     -45.914 -52.621  12.581  1.00  0.00     0.025 C 
HETATM   13  C   UNL     1     -46.849 -51.552  13.151  1.00  0.00     0.002 C 
HETATM   14  C   UNL     1     -46.591 -51.519  14.649  1.00  0.00     0.002 C 
HETATM   15  C   UNL     1     -45.135 -51.939  14.781  1.00  0.00     0.025 C 
ENDBRANCH   7  11
ENDBRANCH   2   5
BRANCH   3  16
HETATM   16  C   UNL     1     -39.760 -49.892  11.218  1.00  0.00     0.128 C 
BRANCH  16  17
HETATM   17  C   UNL     1     -40.256 -48.637  11.927  1.00  0.00     0.076 C 
BRANCH  17  18
HETATM   18  C   UNL     1     -39.296 -48.219  13.009  1.00  0.00     0.010 A 
HETATM   19  C   UNL     1     -39.305 -46.915  13.501  1.00  0.00     0.025 A 
HETATM   20  C   UNL     1     -38.378 -46.558  14.476  1.00  0.00     0.003 A 
HETATM   21  C   UNL     1     -37.467 -47.504  14.930  1.00  0.00     0.017 A 
HETATM   22  C   UNL     1     -37.523 -48.776  14.386  1.00  0.00     0.088 A 
HETATM   23  N   UNL     1     -38.414 -49.152  13.440  1.00  0.00    -0.369 N 
ATOM     24  HN  UNL     1     -38.422 -50.100  13.066  1.00  0.00     0.165 HD
ENDBRANCH  17  18
ENDBRANCH  16  17
ENDBRANCH   3  16
TORSDOF 5
ENDMDL
MODEL 3
REMARK VINA RESULT:      -6.3      1.867      2.414
REMARK  5 active torsions:
REMARK  status: ('A' for Active; 'I' for Inactive)
REMARK       I    between atoms: C_2  and  N_3 
REMARK    1  A    between atoms: C_2  and  C_13 
REMARK    2  A    between atoms: N_3  and  C_4 
REMARK    3  A    between atoms: C_4  and  C_5 
REMARK    4  A    between atoms: C_5  and  C_6 
REMARK    5  A    between atoms: N_15  and  C_16 
ROOT
HETATM    1  O   UNL     1     -41.451 -53.065  12.736  1.00  0.00    -0.273 OA
HETATM    2  C   UNL     1     -42.398 -52.328  12.484  1.00  0.00     0.223 C 
HETATM    3  N   UNL     1     -42.233 -50.993  12.165  1.00  0.00    -0.360 N 
HETATM    4  H   UNL     1     -43.035 -50.378  12.241  1.00  0.00     0.162 HD
ENDROOT
BRANCH   2   5
HETATM    5  C   UNL     1     -43.838 -52.793  12.522  1.00  0.00     0.104 C 
HETATM    6  C   UNL     1     -44.610 -52.127  13.653  1.00  0.00     0.141 C 
HETATM    7  N   UNL     1     -45.575 -53.117  14.077  1.00  0.00    -0.347 N 
HETATM    8  C   UNL     1     -45.190 -54.392  13.681  1.00  0.00     0.221 C 
HETATM    9  O   UNL     1     -45.714 -55.446  14.007  1.00  0.00    -0.273 OA
HETATM   10  C   UNL     1     -43.966 -54.283  12.808  1.00  0.00     0.118 C 
BRANCH   7  11
HETATM   11  C   UNL     1     -46.488 -52.913  15.199  1.00  0.00     0.087 C 
HETATM   12  C   UNL     1     -47.142 -51.527  15.276  1.00  0.00     0.025 C 
HETATM   13  C   UNL     1     -47.202 -51.159  16.760  1.00  0.00     0.002 C 
HETATM   14  C   UNL     1     -46.773 -52.404  17.522  1.00  0.00     0.002 C 
HETATM   15  C   UNL     1     -45.825 -53.112  16.566  1.00  0.00     0.025 C 
ENDBRANCH   7  11
ENDBRANCH   2   5
BRANCH   3  16
HETATM   16  C   UNL     1     -40.900 -50.407  12.214  1.00  0.00     0.128 C 
BRANCH  16  17
HETATM   17  C   UNL     1     -40.527 -49.668  10.934  1.00  0.00     0.076 C 
BRANCH  17  18
HETATM   18  C   UNL     1     -41.365 -48.427  10.769  1.00  0.00     0.010 A 
HETATM   19  C   UNL     1     -41.483 -47.507  11.809  1.00  0.00     0.025 A 
HETATM   20  C   UNL     1     -42.296 -46.391  11.630  1.00  0.00     0.003 A 
HETATM   21  C   UNL     1     -42.970 -46.224  10.426  1.00  0.00     0.017 A 
HETATM   22  C   UNL     1     -42.800 -47.186   9.445  1.00  0.00     0.088 A 
HETATM   23  N   UNL     1     -42.016 -48.279   9.591  1.00  0.00    -0.369 N 
ATOM     24  HN  UNL     1     -41.918 -48.964   8.842  1.00  0.00     0.165 HD
ENDBRANCH  17  18
ENDBRANCH  16  17
ENDBRANCH   3  16
TORSDOF 5
ENDMDL
MODEL 4
REMARK VINA RESULT:      -6.0      1.960      2.323
REMARK  5 active torsions:
REMARK  status: ('A' for Active; 'I' for Inactive)
REMARK       I    between atoms: C_2  and  N_3 
REMARK    1  A    between atoms: C_2  and  C_13 
REMARK    2  A    between atoms: N_3  and  C_4 
REMARK    3  A    between atoms: C_4  and  C_5 
REMARK    4  A    between atoms: C_5  and  C_6 
REMARK    5  A    between atoms: N_15  and  C_16 
ROOT
HETATM    1  O   UNL     1     -39.231 -52.052  13.000  1.00  0.00    -0.273 OA
HETATM    2  C   UNL     1     -40.227 -51.960  12.289  1.00  0.00     0.223 C 
HETATM    3  N   UNL     1     -40.426 -50.895  11.430  1.00  0.00    -0.360 N 
HETATM    4  H   UNL     1     -41.364 -50.725  11.085  1.00  0.00     0.162 HD
ENDROOT
BRANCH   2   5
HETATM    5  C   UNL     1     -41.345 -52.979  12.299  1.00  0.00     0.104 C 
HETATM    6  C   UNL     1     -42.706 -52.313  12.451  1.00  0.00     0.141 C 
HETATM    7  N   UNL     1     -43.503 -53.262  13.196  1.00  0.00    -0.347 N 
HETATM    8  C   UNL     1     -42.696 -54.163  13.880  1.00  0.00     0.221 C 
HETATM    9  O   UNL     1     -43.061 -54.988  14.704  1.00  0.00    -0.273 OA
HETATM   10  C   UNL     1     -41.261 -53.932  13.485  1.00  0.00     0.118 C 
BRANCH   7  11
HETATM   11  C   UNL     1     -44.873 -52.992  13.622  1.00  0.00     0.087 C 
HETATM   12  C   UNL     1     -45.863 -52.655  12.499  1.00  0.00     0.025 C 
HETATM   13  C   UNL     1     -46.786 -51.566  13.048  1.00  0.00     0.002 C 
HETATM   14  C   UNL     1     -46.452 -51.435  14.526  1.00  0.00     0.002 C 
HETATM   15  C   UNL     1     -44.985 -51.825  14.608  1.00  0.00     0.025 C 
ENDBRANCH   7  11
ENDBRANCH   2   5
BRANCH   3  16
HETATM   16  C   UNL     1     -39.472 -49.794  11.423  1.00  0.00     0.128 C 
BRANCH  16  17
HETATM   17  C   UNL     1     -40.100 -48.459  11.806  1.00  0.00     0.076 C 
BRANCH  17  18
HETATM   18  C   UNL     1     -40.940 -48.600  13.049  1.00  0.00     0.010 A 
HETATM   19  C   UNL     1     -42.329 -48.521  12.980  1.00  0.00     0.025 A 
HETATM   20  C   UNL     1     -43.067 -48.619  14.156  1.00  0.00     0.003 A 
HETATM   21  C   UNL     1     -42.404 -48.790  15.365  1.00  0.00     0.017 A 
HETATM   22  C   UNL     1     -41.021 -48.855  15.347  1.00  0.00     0.088 A 
HETATM   23  N   UNL     1     -40.279 -48.765  14.220  1.00  0.00    -0.369 N 
ATOM     24  HN  UNL     1     -39.261 -48.818  14.250  1.00  0.00     0.165 HD
ENDBRANCH  17  18
ENDBRANCH  16  17
ENDBRANCH   3  16
TORSDOF 5
ENDMDL
MODEL 5
REMARK VINA RESULT:      -6.0      2.297      3.231
REMARK  5 active torsions:
REMARK  status: ('A' for Active; 'I' for Inactive)
REMARK       I    between atoms: C_2  and  N_3 
REMARK    1  A    between atoms: C_2  and  C_13 
REMARK    2  A    between atoms: N_3  and  C_4 
REMARK    3  A    between atoms: C_4  and  C_5 
REMARK    4  A    between atoms: C_5  and  C_6 
REMARK    5  A    between atoms: N_15  and  C_16 
ROOT
HETATM    1  O   UNL     1     -40.643 -49.608  13.268  1.00  0.00    -0.273 OA
HETATM    2  C   UNL     1     -41.315 -50.250  12.467  1.00  0.00     0.223 C 
HETATM    3  N   UNL     1     -41.520 -49.827  11.167  1.00  0.00    -0.360 N 
HETATM    4  H   UNL     1     -42.289 -50.233  10.645  1.00  0.00     0.162 HD
ENDROOT
BRANCH   2   5
HETATM    5  C   UNL     1     -42.005 -51.549  12.824  1.00  0.00     0.104 C 
HETATM    6  C   UNL     1     -43.415 -51.306  13.345  1.00  0.00     0.141 C 
HETATM    7  N   UNL     1     -43.640 -52.358  14.311  1.00  0.00    -0.347 N 
HETATM    8  C   UNL     1     -42.437 -52.893  14.756  1.00  0.00     0.221 C 
HETATM    9  O   UNL     1     -42.288 -53.689  15.670  1.00  0.00    -0.273 OA
HETATM   10  C   UNL     1     -41.310 -52.290  13.958  1.00  0.00     0.118 C 
BRANCH   7  11
HETATM   11  C   UNL     1     -44.860 -52.462  15.108  1.00  0.00     0.087 C 
HETATM   12  C   UNL     1     -45.854 -53.541  14.660  1.00  0.00     0.025 C 
HETATM   13  C   UNL     1     -47.251 -52.948  14.849  1.00  0.00     0.002 C 
HETATM   14  C   UNL     1     -47.055 -51.631  15.583  1.00  0.00     0.002 C 
HETATM   15  C   UNL     1     -45.676 -51.165  15.142  1.00  0.00     0.025 C 
ENDBRANCH   7  11
ENDBRANCH   2   5
BRANCH   3  16
HETATM   16  C   UNL     1     -41.001 -48.532  10.746  1.00  0.00     0.128 C 
BRANCH  16  17
HETATM   17  C   UNL     1     -42.029 -47.412  10.864  1.00  0.00     0.076 C 
BRANCH  17  18
HETATM   18  C   UNL     1     -43.129 -47.587   9.850  1.00  0.00     0.010 A 
HETATM   19  C   UNL     1     -44.466 -47.495  10.230  1.00  0.00     0.025 A 
HETATM   20  C   UNL     1     -45.453 -47.699   9.270  1.00  0.00     0.003 A 
HETATM   21  C   UNL     1     -45.084 -47.990   7.963  1.00  0.00     0.017 A 
HETATM   22  C   UNL     1     -43.733 -48.066   7.669  1.00  0.00     0.088 A 
HETATM   23  N   UNL     1     -42.753 -47.872   8.580  1.00  0.00    -0.369 N 
ATOM     24  HN  UNL     1     -41.768 -47.937   8.322  1.00  0.00     0.165 HD
ENDBRANCH  17  18
ENDBRANCH  16  17
ENDBRANCH   3  16
TORSDOF 5
ENDMDL
MODEL 6
REMARK VINA RESULT:      -5.9      2.050      6.855
REMARK  5 active torsions:
REMARK  status: ('A' for Active; 'I' for Inactive)
REMARK       I    between atoms: C_2  and  N_3 
REMARK    1  A    between atoms: C_2  and  C_13 
REMARK    2  A    between atoms: N_3  and  C_4 
REMARK    3  A    between atoms: C_4  and  C_5 
REMARK    4  A    between atoms: C_5  and  C_6 
REMARK    5  A    between atoms: N_15  and  C_16 
ROOT
HETATM    1  O   UNL     1     -42.160 -52.631  15.208  1.00  0.00    -0.273 OA
HETATM    2  C   UNL     1     -41.884 -53.176  14.144  1.00  0.00     0.223 C 
HETATM    3  N   UNL     1     -42.517 -54.328  13.715  1.00  0.00    -0.360 N 
HETATM    4  H   UNL     1     -42.073 -54.880  12.991  1.00  0.00     0.162 HD
ENDROOT
BRANCH   2   5
HETATM    5  C   UNL     1     -40.809 -52.664  13.210  1.00  0.00     0.104 C 
HETATM    6  C   UNL     1     -39.841 -51.734  13.930  1.00  0.00     0.141 C 
HETATM    7  N   UNL     1     -39.433 -50.775  12.928  1.00  0.00    -0.347 N 
HETATM    8  C   UNL     1     -40.344 -50.729  11.880  1.00  0.00     0.221 C 
HETATM    9  O   UNL     1     -40.357 -49.925  10.961  1.00  0.00    -0.273 OA
HETATM   10  C   UNL     1     -41.372 -51.813  12.078  1.00  0.00     0.118 C 
BRANCH   7  11
HETATM   11  C   UNL     1     -38.547 -49.650  13.214  1.00  0.00     0.087 C 
HETATM   12  C   UNL     1     -37.394 -49.944  14.184  1.00  0.00     0.025 C 
HETATM   13  C   UNL     1     -37.234 -48.698  15.057  1.00  0.00     0.002 C 
HETATM   14  C   UNL     1     -38.147 -47.641  14.456  1.00  0.00     0.002 C 
HETATM   15  C   UNL     1     -39.272 -48.443  13.820  1.00  0.00     0.025 C 
ENDBRANCH   7  11
ENDBRANCH   2   5
BRANCH   3  16
HETATM   16  C   UNL     1     -43.487 -54.976  14.589  1.00  0.00     0.128 C 
BRANCH  16  17
HETATM   17  C   UNL     1     -44.880 -55.058  13.975  1.00  0.00     0.076 C 
BRANCH  17  18
HETATM   18  C   UNL     1     -45.614 -53.753  14.137  1.00  0.00     0.010 A 
HETATM   19  C   UNL     1     -45.741 -52.873  13.065  1.00  0.00     0.025 A 
HETATM   20  C   UNL     1     -46.395 -51.660  13.264  1.00  0.00     0.003 A 
HETATM   21  C   UNL     1     -46.899 -51.356  14.523  1.00  0.00     0.017 A 
HETATM   22  C   UNL     1     -46.726 -52.284  15.535  1.00  0.00     0.088 A 
HETATM   23  N   UNL     1     -46.098 -53.470  15.370  1.00  0.00    -0.369 N 
ATOM     24  HN  UNL     1     -45.992 -54.126  16.143  1.00  0.00     0.165 HD
ENDBRANCH  17  18
ENDBRANCH  16  17
ENDBRANCH   3  16
TORSDOF 5
ENDMDL
MODEL 7
REMARK VINA RESULT:      -5.7      2.486      6.733
REMARK  5 active torsions:
REMARK  status: ('A' for Active; 'I' for Inactive)
REMARK       I    between atoms: C_2  and  N_3 
REMARK    1  A    between atoms: C_2  and  C_13 
REMARK    2  A    between atoms: N_3  and  C_4 
REMARK    3  A    between atoms: C_4  and  C_5 
REMARK    4  A    between atoms: C_5  and  C_6 
REMARK    5  A    between atoms: N_15  and  C_16 
ROOT
HETATM    1  O   UNL     1     -44.220 -50.996  14.998  1.00  0.00    -0.273 OA
HETATM    2  C   UNL     1     -43.866 -50.802  13.840  1.00  0.00     0.223 C 
HETATM    3  N   UNL     1     -44.305 -51.586  12.789  1.00  0.00    -0.360 N 
HETATM    4  H   UNL     1     -43.782 -51.565  11.922  1.00  0.00     0.162 HD
ENDROOT
BRANCH   2   5
HETATM    5  C   UNL     1     -42.898 -49.707  13.446  1.00  0.00     0.104 C 
HETATM    6  C   UNL     1     -41.560 -50.281  12.997  1.00  0.00     0.141 C 
HETATM    7  N   UNL     1     -40.580 -49.298  13.402  1.00  0.00    -0.347 N 
HETATM    8  C   UNL     1     -41.083 -48.472  14.400  1.00  0.00     0.221 C 
HETATM    9  O   UNL     1     -40.457 -47.645  15.045  1.00  0.00    -0.273 OA
HETATM   10  C   UNL     1     -42.540 -48.793  14.610  1.00  0.00     0.118 C 
BRANCH   7  11
HETATM   11  C   UNL     1     -39.142 -49.483  13.221  1.00  0.00     0.087 C 
HETATM   12  C   UNL     1     -38.582 -49.035  11.864  1.00  0.00     0.025 C 
HETATM   13  C   UNL     1     -37.515 -50.059  11.476  1.00  0.00     0.002 C 
HETATM   14  C   UNL     1     -37.333 -50.959  12.689  1.00  0.00     0.002 C 
HETATM   15  C   UNL     1     -38.693 -50.940  13.369  1.00  0.00     0.025 C 
ENDBRANCH   7  11
ENDBRANCH   2   5
BRANCH   3  16
HETATM   16  C   UNL     1     -45.148 -52.742  13.066  1.00  0.00     0.128 C 
BRANCH  16  17
HETATM   17  C   UNL     1     -44.478 -54.066  12.715  1.00  0.00     0.076 C 
BRANCH  17  18
HETATM   18  C   UNL     1     -43.103 -54.147  13.325  1.00  0.00     0.010 A 
HETATM   19  C   UNL     1     -42.945 -54.352  14.694  1.00  0.00     0.025 A 
HETATM   20  C   UNL     1     -41.658 -54.385  15.224  1.00  0.00     0.003 A 
HETATM   21  C   UNL     1     -40.568 -54.210  14.381  1.00  0.00     0.017 A 
HETATM   22  C   UNL     1     -40.812 -54.008  13.033  1.00  0.00     0.088 A 
HETATM   23  N   UNL     1     -42.051 -53.974  12.490  1.00  0.00    -0.369 N 
ATOM     24  HN  UNL     1     -42.187 -53.822  11.491  1.00  0.00     0.165 HD
ENDBRANCH  17  18
ENDBRANCH  16  17
ENDBRANCH   3  16
TORSDOF 5
ENDMDL
MODEL 8
REMARK VINA RESULT:      -5.5      2.741      3.817
REMARK  5 active torsions:
REMARK  status: ('A' for Active; 'I' for Inactive)
REMARK       I    between atoms: C_2  and  N_3 
REMARK    1  A    between atoms: C_2  and  C_13 
REMARK    2  A    between atoms: N_3  and  C_4 
REMARK    3  A    between atoms: C_4  and  C_5 
REMARK    4  A    between atoms: C_5  and  C_6 
REMARK    5  A    between atoms: N_15  and  C_16 
ROOT
HETATM    1  O   UNL     1     -39.162 -52.996  13.216  1.00  0.00    -0.273 OA
HETATM    2  C   UNL     1     -40.279 -52.707  13.632  1.00  0.00     0.223 C 
HETATM    3  N   UNL     1     -40.539 -51.519  14.290  1.00  0.00    -0.360 N 
HETATM    4  H   UNL     1     -41.383 -51.452  14.845  1.00  0.00     0.162 HD
ENDROOT
BRANCH   2   5
HETATM    5  C   UNL     1     -41.474 -53.624  13.493  1.00  0.00     0.104 C 
HETATM    6  C   UNL     1     -42.749 -52.841  13.211  1.00  0.00     0.141 C 
HETATM    7  N   UNL     1     -43.801 -53.600  13.850  1.00  0.00    -0.347 N 
HETATM    8  C   UNL     1     -43.286 -54.444  14.826  1.00  0.00     0.221 C 
HETATM    9  O   UNL     1     -43.926 -55.101  15.632  1.00  0.00    -0.273 OA
HETATM   10  C   UNL     1     -41.781 -54.386  14.776  1.00  0.00     0.118 C 
BRANCH   7  11
HETATM   11  C   UNL     1     -45.195 -53.163  13.880  1.00  0.00     0.087 C 
HETATM   12  C   UNL     1     -45.782 -52.725  12.532  1.00  0.00     0.025 C 
HETATM   13  C   UNL     1     -46.687 -51.527  12.823  1.00  0.00     0.002 C 
HETATM   14  C   UNL     1     -46.769 -51.417  14.338  1.00  0.00     0.002 C 
HETATM   15  C   UNL     1     -45.440 -51.978  14.820  1.00  0.00     0.025 C 
ENDBRANCH   7  11
ENDBRANCH   2   5
BRANCH   3  16
HETATM   16  C   UNL     1     -39.438 -50.610  14.584  1.00  0.00     0.128 C 
BRANCH  16  17
HETATM   17  C   UNL     1     -39.126 -50.515  16.073  1.00  0.00     0.076 C 
BRANCH  17  18
HETATM   18  C   UNL     1     -37.857 -49.738  16.305  1.00  0.00     0.010 A 
HETATM   19  C   UNL     1     -36.679 -50.392  16.661  1.00  0.00     0.025 A 
HETATM   20  C   UNL     1     -35.536 -49.635  16.902  1.00  0.00     0.003 A 
HETATM   21  C   UNL     1     -35.598 -48.251  16.787  1.00  0.00     0.017 A 
HETATM   22  C   UNL     1     -36.808 -47.680  16.433  1.00  0.00     0.088 A 
HETATM   23  N   UNL     1     -37.933 -48.391  16.190  1.00  0.00    -0.369 N 
ATOM     24  HN  UNL     1     -38.805 -47.930  15.931  1.00  0.00     0.165 HD
ENDBRANCH  17  18
ENDBRANCH  16  17
ENDBRANCH   3  16
TORSDOF 5
ENDMDL
MODEL 9
REMARK VINA RESULT:      -5.1      2.412      3.861
REMARK  5 active torsions:
REMARK  status: ('A' for Active; 'I' for Inactive)
REMARK       I    between atoms: C_2  and  N_3 
REMARK    1  A    between atoms: C_2  and  C_13 
REMARK    2  A    between atoms: N_3  and  C_4 
REMARK    3  A    between atoms: C_4  and  C_5 
REMARK    4  A    between atoms: C_5  and  C_6 
REMARK    5  A    between atoms: N_15  and  C_16 
ROOT
HETATM    1  O   UNL     1     -44.890 -54.203  12.514  1.00  0.00    -0.273 OA
HETATM    2  C   UNL     1     -44.470 -53.748  13.573  1.00  0.00     0.223 C 
HETATM    3  N   UNL     1     -43.337 -52.958  13.642  1.00  0.00    -0.360 N 
HETATM    4  H   UNL     1     -42.884 -52.845  14.541  1.00  0.00     0.162 HD
ENDROOT
BRANCH   2   5
HETATM    5  C   UNL     1     -45.127 -54.024  14.908  1.00  0.00     0.104 C 
HETATM    6  C   UNL     1     -45.868 -52.800  15.428  1.00  0.00     0.141 C 
HETATM    7  N   UNL     1     -45.750 -52.879  16.867  1.00  0.00    -0.347 N 
HETATM    8  C   UNL     1     -44.689 -53.696  17.238  1.00  0.00     0.221 C 
HETATM    9  O   UNL     1     -44.247 -53.848  18.366  1.00  0.00    -0.273 OA
HETATM   10  C   UNL     1     -44.118 -54.344  16.003  1.00  0.00     0.118 C 
BRANCH   7  11
HETATM   11  C   UNL     1     -46.271 -51.853  17.768  1.00  0.00     0.087 C 
HETATM   12  C   UNL     1     -47.783 -51.605  17.687  1.00  0.00     0.025 C 
HETATM   13  C   UNL     1     -47.983 -50.097  17.845  1.00  0.00     0.002 C 
HETATM   14  C   UNL     1     -46.623 -49.526  18.213  1.00  0.00     0.002 C 
HETATM   15  C   UNL     1     -45.634 -50.476  17.554  1.00  0.00     0.025 C 
ENDBRANCH   7  11
ENDBRANCH   2   5
BRANCH   3  16
HETATM   16  C   UNL     1     -42.556 -52.723  12.434  1.00  0.00     0.128 C 
BRANCH  16  17
HETATM   17  C   UNL     1     -41.059 -52.917  12.646  1.00  0.00     0.076 C 
BRANCH  17  18
HETATM   18  C   UNL     1     -40.305 -51.652  12.330  1.00  0.00     0.010 A 
HETATM   19  C   UNL     1     -39.160 -51.310  13.046  1.00  0.00     0.025 A 
HETATM   20  C   UNL     1     -38.513 -50.115  12.749  1.00  0.00     0.003 A 
HETATM   21  C   UNL     1     -39.024 -49.292  11.753  1.00  0.00     0.017 A 
HETATM   22  C   UNL     1     -40.168 -49.703  11.091  1.00  0.00     0.088 A 
HETATM   23  N   UNL     1     -40.817 -50.860  11.358  1.00  0.00    -0.369 N 
ATOM     24  HN  UNL     1     -41.658 -51.126  10.846  1.00  0.00     0.165 HD
ENDBRANCH  17  18
ENDBRANCH  16  17
ENDBRANCH   3  16
TORSDOF 5
ENDMDL
