MODEL 1
REMARK VINA RESULT:      -6.8      0.000      0.000
REMARK  8 active torsions:
REMARK  status: ('A' for Active; 'I' for Inactive)
REMARK    1  A    between atoms: O_2  and  C_3 
REMARK    2  A    between atoms: C_6  and  C_7 
REMARK    3  A    between atoms: C_7  and  O_8 
REMARK    4  A    between atoms: O_8  and  C_9 
REMARK    5  A    between atoms: C_9  and  C_10 
REMARK    6  A    between atoms: C_10  and  O_11 
REMARK    7  A    between atoms: C_10  and  C_12 
REMARK    8  A    between atoms: C_12  and  N_13 
ROOT
HETATM    1  C   UNL     1     -41.166 -49.412  11.256  1.00  0.00     0.160 C 
ENDROOT
BRANCH   1   2
HETATM    2  C   UNL     1     -40.726 -47.947  11.393  1.00  0.00     0.201 C 
BRANCH   2   3
HETATM    3  O   UNL     1     -41.287 -47.213  10.297  1.00  0.00    -0.384 OA
BRANCH   3   4
HETATM    4  C   UNL     1     -42.525 -46.595  10.652  1.00  0.00     0.206 C 
BRANCH   4   5
HETATM    5  C   UNL     1     -43.614 -47.127   9.760  1.00  0.00    -0.034 A 
HETATM    6  C   UNL     1     -43.310 -47.575   8.468  1.00  0.00     0.012 A 
HETATM    7  C   UNL     1     -44.294 -48.143   7.655  1.00  0.00     0.037 A 
HETATM    8  C   UNL     1     -45.598 -48.281   8.132  1.00  0.00     0.068 A 
HETATM    9  C   UNL     1     -45.924 -47.793   9.395  1.00  0.00     0.037 A 
HETATM   10  C   UNL     1     -44.938 -47.228  10.212  1.00  0.00     0.012 A 
BRANCH   8  11
HETATM   11  O   UNL     1     -46.621 -48.850   7.424  1.00  0.00    -0.356 OA
HETATM   12  C   UNL     1     -46.199 -49.650   6.321  1.00  0.00     0.210 C 
ENDBRANCH   8  11
ENDBRANCH   4   5
ENDBRANCH   3   4
ENDBRANCH   2   3
ENDBRANCH   1   2
BRANCH   1  13
HETATM   13  O   UNL     1     -40.423 -49.984  10.169  1.00  0.00    -0.392 OA
HETATM   14  H   UNL     1     -40.271 -49.259   9.531  1.00  0.00     0.210 HD
ENDBRANCH   1  13
BRANCH   1  15
HETATM   15  C   UNL     1     -40.909 -50.200  12.548  1.00  0.00     0.164 C 
BRANCH  15  16
HETATM   16  N   UNL     1     -41.562 -51.498  12.552  1.00  0.00    -0.339 N 
HETATM   17  C   UNL     1     -40.940 -52.671  12.212  1.00  0.00     0.184 A 
HETATM   18  N   UNL     1     -41.743 -53.702  12.330  1.00  0.00    -0.350 N 
HETATM   19  C   UNL     1     -42.939 -53.180  12.750  1.00  0.00     0.063 A 
ATOM     20  HN  UNL     1     -41.524 -54.681  12.149  1.00  0.00     0.166 HD
HETATM   21  C   UNL     1     -44.143 -53.846  13.017  1.00  0.00     0.077 A 
HETATM   22  C   UNL     1     -42.856 -51.793  12.908  1.00  0.00     0.065 A 
HETATM   23  C   UNL     1     -45.233 -53.088  13.440  1.00  0.00     0.157 A 
HETATM   24  F   UNL     1     -46.393 -53.706  13.700  1.00  0.00    -0.203 F 
HETATM   25  C   UNL     1     -45.132 -51.708  13.598  1.00  0.00     0.157 A 
HETATM   26  F   UNL     1     -46.201 -51.010  14.007  1.00  0.00    -0.203 F 
HETATM   27  C   UNL     1     -43.944 -51.022  13.336  1.00  0.00     0.077 A 
ENDBRANCH  15  16
ENDBRANCH   1  15
TORSDOF 8
ENDMDL
MODEL 2
REMARK VINA RESULT:      -6.7      3.253      7.021
REMARK  8 active torsions:
REMARK  status: ('A' for Active; 'I' for Inactive)
REMARK    1  A    between atoms: O_2  and  C_3 
REMARK    2  A    between atoms: C_6  and  C_7 
REMARK    3  A    between atoms: C_7  and  O_8 
REMARK    4  A    between atoms: O_8  and  C_9 
REMARK    5  A    between atoms: C_9  and  C_10 
REMARK    6  A    between atoms: C_10  and  O_11 
REMARK    7  A    between atoms: C_10  and  C_12 
REMARK    8  A    between atoms: C_12  and  N_13 
ROOT
HETATM    1  C   UNL     1     -40.675 -49.666  11.524  1.00  0.00     0.160 C 
ENDROOT
BRANCH   1   2
HETATM    2  C   UNL     1     -40.420 -50.862  12.453  1.00  0.00     0.201 C 
BRANCH   2   3
HETATM    3  O   UNL     1     -41.004 -52.023  11.849  1.00  0.00    -0.384 OA
BRANCH   3   4
HETATM    4  C   UNL     1     -40.749 -53.202  12.615  1.00  0.00     0.206 C 
BRANCH   4   5
HETATM    5  C   UNL     1     -42.051 -53.729  13.157  1.00  0.00    -0.034 A 
HETATM    6  C   UNL     1     -42.060 -54.554  14.289  1.00  0.00     0.012 A 
HETATM    7  C   UNL     1     -43.264 -54.988  14.850  1.00  0.00     0.037 A 
HETATM    8  C   UNL     1     -44.478 -54.591  14.289  1.00  0.00     0.068 A 
HETATM    9  C   UNL     1     -44.481 -53.813  13.133  1.00  0.00     0.037 A 
HETATM   10  C   UNL     1     -43.276 -53.374  12.573  1.00  0.00     0.012 A 
BRANCH   8  11
HETATM   11  O   UNL     1     -45.706 -54.939  14.783  1.00  0.00    -0.356 OA
HETATM   12  C   UNL     1     -46.687 -53.908  14.699  1.00  0.00     0.210 C 
ENDBRANCH   8  11
ENDBRANCH   4   5
ENDBRANCH   3   4
ENDBRANCH   2   3
ENDBRANCH   1   2
BRANCH   1  13
HETATM   13  O   UNL     1     -40.467 -50.115  10.177  1.00  0.00    -0.392 OA
HETATM   14  H   UNL     1     -40.003 -49.389   9.716  1.00  0.00     0.210 HD
ENDBRANCH   1  13
BRANCH   1  15
HETATM   15  C   UNL     1     -42.100 -49.119  11.688  1.00  0.00     0.164 C 
BRANCH  15  16
HETATM   16  N   UNL     1     -42.322 -47.898  10.932  1.00  0.00    -0.339 N 
HETATM   17  C   UNL     1     -41.353 -46.961  10.686  1.00  0.00     0.184 A 
HETATM   18  N   UNL     1     -41.806 -45.971   9.954  1.00  0.00    -0.350 N 
HETATM   19  C   UNL     1     -43.125 -46.266   9.726  1.00  0.00     0.063 A 
ATOM     20  HN  UNL     1     -41.288 -45.156   9.626  1.00  0.00     0.166 HD
HETATM   21  C   UNL     1     -44.078 -45.531   9.008  1.00  0.00     0.077 A 
HETATM   22  C   UNL     1     -43.480 -47.480  10.321  1.00  0.00     0.065 A 
HETATM   23  C   UNL     1     -45.369 -46.047   8.911  1.00  0.00     0.157 A 
HETATM   24  F   UNL     1     -46.296 -45.359   8.231  1.00  0.00    -0.203 F 
HETATM   25  C   UNL     1     -45.705 -47.260   9.506  1.00  0.00     0.157 A 
HETATM   26  F   UNL     1     -46.957 -47.728   9.392  1.00  0.00    -0.203 F 
HETATM   27  C   UNL     1     -44.773 -48.010  10.228  1.00  0.00     0.077 A 
ENDBRANCH  15  16
ENDBRANCH   1  15
TORSDOF 8
ENDMDL
MODEL 3
REMARK VINA RESULT:      -6.5      3.319      7.121
REMARK  8 active torsions:
REMARK  status: ('A' for Active; 'I' for Inactive)
REMARK    1  A    between atoms: O_2  and  C_3 
REMARK    2  A    between atoms: C_6  and  C_7 
REMARK    3  A    between atoms: C_7  and  O_8 
REMARK    4  A    between atoms: O_8  and  C_9 
REMARK    5  A    between atoms: C_9  and  C_10 
REMARK    6  A    between atoms: C_10  and  O_11 
REMARK    7  A    between atoms: C_10  and  C_12 
REMARK    8  A    between atoms: C_12  and  N_13 
ROOT
HETATM    1  C   UNL     1     -40.154 -50.788  12.135  1.00  0.00     0.160 C 
ENDROOT
BRANCH   1   2
HETATM    2  C   UNL     1     -39.792 -51.878  13.154  1.00  0.00     0.201 C 
BRANCH   2   3
HETATM    3  O   UNL     1     -40.082 -53.151  12.563  1.00  0.00    -0.384 OA
BRANCH   3   4
HETATM    4  C   UNL     1     -40.212 -54.175  13.550  1.00  0.00     0.206 C 
BRANCH   4   5
HETATM    5  C   UNL     1     -41.650 -54.259  13.987  1.00  0.00    -0.034 A 
HETATM    6  C   UNL     1     -42.679 -53.956  13.086  1.00  0.00     0.012 A 
HETATM    7  C   UNL     1     -44.019 -54.102  13.452  1.00  0.00     0.037 A 
HETATM    8  C   UNL     1     -44.348 -54.567  14.725  1.00  0.00     0.068 A 
HETATM    9  C   UNL     1     -43.335 -54.822  15.647  1.00  0.00     0.037 A 
HETATM   10  C   UNL     1     -41.992 -54.681  15.281  1.00  0.00     0.012 A 
BRANCH   8  11
HETATM   11  O   UNL     1     -45.628 -54.772  15.164  1.00  0.00    -0.356 OA
HETATM   12  C   UNL     1     -46.566 -53.797  14.714  1.00  0.00     0.210 C 
ENDBRANCH   8  11
ENDBRANCH   4   5
ENDBRANCH   3   4
ENDBRANCH   2   3
ENDBRANCH   1   2
BRANCH   1  13
HETATM   13  O   UNL     1     -41.055 -51.373  11.182  1.00  0.00    -0.392 OA
HETATM   14  H   UNL     1     -41.882 -51.561  11.668  1.00  0.00     0.210 HD
ENDBRANCH   1  13
BRANCH   1  15
HETATM   15  C   UNL     1     -40.810 -49.578  12.814  1.00  0.00     0.164 C 
BRANCH  15  16
HETATM   16  N   UNL     1     -40.803 -48.392  11.974  1.00  0.00    -0.339 N 
HETATM   17  C   UNL     1     -39.691 -47.627  11.736  1.00  0.00     0.184 A 
HETATM   18  N   UNL     1     -39.948 -46.634  10.918  1.00  0.00    -0.350 N 
HETATM   19  C   UNL     1     -41.281 -46.746  10.623  1.00  0.00     0.063 A 
ATOM     20  HN  UNL     1     -39.295 -45.929  10.576  1.00  0.00     0.166 HD
HETATM   21  C   UNL     1     -42.071 -45.929   9.803  1.00  0.00     0.077 A 
HETATM   22  C   UNL     1     -41.849 -47.851  11.266  1.00  0.00     0.065 A 
HETATM   23  C   UNL     1     -43.419 -46.254   9.654  1.00  0.00     0.157 A 
HETATM   24  F   UNL     1     -44.191 -45.485   8.875  1.00  0.00    -0.203 F 
HETATM   25  C   UNL     1     -43.967 -47.361  10.297  1.00  0.00     0.157 A 
HETATM   26  F   UNL     1     -45.267 -47.645  10.131  1.00  0.00    -0.203 F 
HETATM   27  C   UNL     1     -43.200 -48.189  11.121  1.00  0.00     0.077 A 
ENDBRANCH  15  16
ENDBRANCH   1  15
TORSDOF 8
ENDMDL
MODEL 4
REMARK VINA RESULT:      -6.4      4.506      7.530
REMARK  8 active torsions:
REMARK  status: ('A' for Active; 'I' for Inactive)
REMARK    1  A    between atoms: O_2  and  C_3 
REMARK    2  A    between atoms: C_6  and  C_7 
REMARK    3  A    between atoms: C_7  and  O_8 
REMARK    4  A    between atoms: O_8  and  C_9 
REMARK    5  A    between atoms: C_9  and  C_10 
REMARK    6  A    between atoms: C_10  and  O_11 
REMARK    7  A    between atoms: C_10  and  C_12 
REMARK    8  A    between atoms: C_12  and  N_13 
ROOT
HETATM    1  C   UNL     1     -39.963 -49.363  11.500  1.00  0.00     0.160 C 
ENDROOT
BRANCH   1   2
HETATM    2  C   UNL     1     -39.090 -50.337  12.304  1.00  0.00     0.201 C 
BRANCH   2   3
HETATM    3  O   UNL     1     -39.632 -51.655  12.141  1.00  0.00    -0.384 OA
BRANCH   3   4
HETATM    4  C   UNL     1     -40.044 -52.214  13.389  1.00  0.00     0.206 C 
BRANCH   4   5
HETATM    5  C   UNL     1     -41.394 -52.859  13.218  1.00  0.00    -0.034 A 
HETATM    6  C   UNL     1     -41.770 -53.932  14.037  1.00  0.00     0.012 A 
HETATM    7  C   UNL     1     -43.047 -54.492  13.943  1.00  0.00     0.037 A 
HETATM    8  C   UNL     1     -43.971 -53.975  13.034  1.00  0.00     0.068 A 
HETATM    9  C   UNL     1     -43.590 -52.942  12.179  1.00  0.00     0.037 A 
HETATM   10  C   UNL     1     -42.314 -52.378  12.275  1.00  0.00     0.012 A 
BRANCH   8  11
HETATM   11  O   UNL     1     -45.251 -54.434  12.890  1.00  0.00    -0.356 OA
HETATM   12  C   UNL     1     -45.680 -55.312  13.929  1.00  0.00     0.210 C 
ENDBRANCH   8  11
ENDBRANCH   4   5
ENDBRANCH   3   4
ENDBRANCH   2   3
ENDBRANCH   1   2
BRANCH   1  13
HETATM   13  O   UNL     1     -40.463 -50.075  10.358  1.00  0.00    -0.392 OA
HETATM   14  H   UNL     1     -41.430 -49.934  10.350  1.00  0.00     0.210 HD
ENDBRANCH   1  13
BRANCH   1  15
HETATM   15  C   UNL     1     -41.128 -48.824  12.342  1.00  0.00     0.164 C 
BRANCH  15  16
HETATM   16  N   UNL     1     -41.634 -47.554  11.849  1.00  0.00    -0.339 N 
HETATM   17  C   UNL     1     -42.851 -47.398  11.238  1.00  0.00     0.184 A 
HETATM   18  N   UNL     1     -43.080 -46.146  10.919  1.00  0.00    -0.350 N 
HETATM   19  C   UNL     1     -41.965 -45.462  11.325  1.00  0.00     0.063 A 
ATOM     20  HN  UNL     1     -43.911 -45.765  10.466  1.00  0.00     0.166 HD
HETATM   21  C   UNL     1     -41.684 -44.093  11.209  1.00  0.00     0.077 A 
HETATM   22  C   UNL     1     -41.037 -46.319  11.924  1.00  0.00     0.065 A 
HETATM   23  C   UNL     1     -40.468 -43.628  11.708  1.00  0.00     0.157 A 
HETATM   24  F   UNL     1     -40.180 -42.323  11.606  1.00  0.00    -0.203 F 
HETATM   25  C   UNL     1     -39.557 -44.495  12.306  1.00  0.00     0.157 A 
HETATM   26  F   UNL     1     -38.396 -44.013  12.775  1.00  0.00    -0.203 F 
HETATM   27  C   UNL     1     -39.814 -45.862  12.431  1.00  0.00     0.077 A 
ENDBRANCH  15  16
ENDBRANCH   1  15
TORSDOF 8
ENDMDL
MODEL 5
REMARK VINA RESULT:      -6.3      2.266      3.506
REMARK  8 active torsions:
REMARK  status: ('A' for Active; 'I' for Inactive)
REMARK    1  A    between atoms: O_2  and  C_3 
REMARK    2  A    between atoms: C_6  and  C_7 
REMARK    3  A    between atoms: C_7  and  O_8 
REMARK    4  A    between atoms: O_8  and  C_9 
REMARK    5  A    between atoms: C_9  and  C_10 
REMARK    6  A    between atoms: C_10  and  O_11 
REMARK    7  A    between atoms: C_10  and  C_12 
REMARK    8  A    between atoms: C_12  and  N_13 
ROOT
HETATM    1  C   UNL     1     -41.014 -51.593  12.181  1.00  0.00     0.160 C 
ENDROOT
BRANCH   1   2
HETATM    2  C   UNL     1     -39.587 -51.029  12.214  1.00  0.00     0.201 C 
BRANCH   2   3
HETATM    3  O   UNL     1     -39.525 -49.925  11.302  1.00  0.00    -0.384 OA
BRANCH   3   4
HETATM    4  C   UNL     1     -39.567 -48.671  11.985  1.00  0.00     0.206 C 
BRANCH   4   5
HETATM    5  C   UNL     1     -40.559 -47.770  11.300  1.00  0.00    -0.034 A 
HETATM    6  C   UNL     1     -40.322 -46.392  11.222  1.00  0.00     0.012 A 
HETATM    7  C   UNL     1     -41.193 -45.552  10.523  1.00  0.00     0.037 A 
HETATM    8  C   UNL     1     -42.311 -46.085   9.882  1.00  0.00     0.068 A 
HETATM    9  C   UNL     1     -42.586 -47.447   9.996  1.00  0.00     0.037 A 
HETATM   10  C   UNL     1     -41.712 -48.290  10.691  1.00  0.00     0.012 A 
BRANCH   8  11
HETATM   11  O   UNL     1     -43.204 -45.351   9.150  1.00  0.00    -0.356 OA
HETATM   12  C   UNL     1     -44.421 -46.032   8.852  1.00  0.00     0.210 C 
ENDBRANCH   8  11
ENDBRANCH   4   5
ENDBRANCH   3   4
ENDBRANCH   2   3
ENDBRANCH   1   2
BRANCH   1  13
HETATM   13  O   UNL     1     -41.081 -52.528  11.093  1.00  0.00    -0.392 OA
HETATM   14  H   UNL     1     -41.475 -53.345  11.459  1.00  0.00     0.210 HD
ENDBRANCH   1  13
BRANCH   1  15
HETATM   15  C   UNL     1     -41.376 -52.287  13.501  1.00  0.00     0.164 C 
BRANCH  15  16
HETATM   16  N   UNL     1     -42.693 -51.912  13.988  1.00  0.00    -0.339 N 
HETATM   17  C   UNL     1     -43.009 -50.668  14.466  1.00  0.00     0.184 A 
HETATM   18  N   UNL     1     -44.272 -50.583  14.811  1.00  0.00    -0.350 N 
HETATM   19  C   UNL     1     -44.797 -51.824  14.562  1.00  0.00     0.063 A 
ATOM     20  HN  UNL     1     -44.759 -49.768  15.185  1.00  0.00     0.166 HD
HETATM   21  C   UNL     1     -46.106 -52.282  14.767  1.00  0.00     0.077 A 
HETATM   22  C   UNL     1     -43.829 -52.684  14.034  1.00  0.00     0.065 A 
HETATM   23  C   UNL     1     -46.401 -53.601  14.428  1.00  0.00     0.157 A 
HETATM   24  F   UNL     1     -47.646 -54.058  14.617  1.00  0.00    -0.203 F 
HETATM   25  C   UNL     1     -45.427 -54.443  13.898  1.00  0.00     0.157 A 
HETATM   26  F   UNL     1     -45.746 -55.707  13.582  1.00  0.00    -0.203 F 
HETATM   27  C   UNL     1     -44.115 -54.011  13.686  1.00  0.00     0.077 A 
ENDBRANCH  15  16
ENDBRANCH   1  15
TORSDOF 8
ENDMDL
MODEL 6
REMARK VINA RESULT:      -6.3      2.383      3.535
REMARK  8 active torsions:
REMARK  status: ('A' for Active; 'I' for Inactive)
REMARK    1  A    between atoms: O_2  and  C_3 
REMARK    2  A    between atoms: C_6  and  C_7 
REMARK    3  A    between atoms: C_7  and  O_8 
REMARK    4  A    between atoms: O_8  and  C_9 
REMARK    5  A    between atoms: C_9  and  C_10 
REMARK    6  A    between atoms: C_10  and  O_11 
REMARK    7  A    between atoms: C_10  and  C_12 
REMARK    8  A    between atoms: C_12  and  N_13 
ROOT
HETATM    1  C   UNL     1     -41.580 -51.839  12.359  1.00  0.00     0.160 C 
ENDROOT
BRANCH   1   2
HETATM    2  C   UNL     1     -40.318 -51.151  12.898  1.00  0.00     0.201 C 
BRANCH   2   3
HETATM    3  O   UNL     1     -40.560 -49.739  12.924  1.00  0.00    -0.384 OA
BRANCH   3   4
HETATM    4  C   UNL     1     -39.840 -49.060  11.895  1.00  0.00     0.206 C 
BRANCH   4   5
HETATM    5  C   UNL     1     -40.748 -48.053  11.240  1.00  0.00    -0.034 A 
HETATM    6  C   UNL     1     -40.385 -46.700  11.199  1.00  0.00     0.012 A 
HETATM    7  C   UNL     1     -41.179 -45.765  10.529  1.00  0.00     0.037 A 
HETATM    8  C   UNL     1     -42.343 -46.176   9.879  1.00  0.00     0.068 A 
HETATM    9  C   UNL     1     -42.740 -47.510   9.957  1.00  0.00     0.037 A 
HETATM   10  C   UNL     1     -41.945 -48.448  10.624  1.00  0.00     0.012 A 
BRANCH   8  11
HETATM   11  O   UNL     1     -43.167 -45.343   9.173  1.00  0.00    -0.356 OA
HETATM   12  C   UNL     1     -44.457 -45.886   8.900  1.00  0.00     0.210 C 
ENDBRANCH   8  11
ENDBRANCH   4   5
ENDBRANCH   3   4
ENDBRANCH   2   3
ENDBRANCH   1   2
BRANCH   1  13
HETATM   13  O   UNL     1     -41.255 -52.388  11.073  1.00  0.00    -0.392 OA
HETATM   14  H   UNL     1     -41.275 -53.360  11.178  1.00  0.00     0.210 HD
ENDBRANCH   1  13
BRANCH   1  15
HETATM   15  C   UNL     1     -42.065 -52.948  13.303  1.00  0.00     0.164 C 
BRANCH  15  16
HETATM   16  N   UNL     1     -43.514 -53.013  13.394  1.00  0.00    -0.339 N 
HETATM   17  C   UNL     1     -44.294 -53.842  12.631  1.00  0.00     0.184 A 
HETATM   18  N   UNL     1     -45.566 -53.730  12.932  1.00  0.00    -0.350 N 
HETATM   19  C   UNL     1     -45.619 -52.781  13.919  1.00  0.00     0.063 A 
ATOM     20  HN  UNL     1     -46.347 -54.240  12.520  1.00  0.00     0.166 HD
HETATM   21  C   UNL     1     -46.741 -52.271  14.587  1.00  0.00     0.077 A 
HETATM   22  C   UNL     1     -44.341 -52.314  14.240  1.00  0.00     0.065 A 
HETATM   23  C   UNL     1     -46.537 -51.302  15.568  1.00  0.00     0.157 A 
HETATM   24  F   UNL     1     -47.596 -50.801  16.218  1.00  0.00    -0.203 F 
HETATM   25  C   UNL     1     -45.257 -50.852  15.879  1.00  0.00     0.157 A 
HETATM   26  F   UNL     1     -45.097 -49.919  16.829  1.00  0.00    -0.203 F 
HETATM   27  C   UNL     1     -44.124 -51.343  15.225  1.00  0.00     0.077 A 
ENDBRANCH  15  16
ENDBRANCH   1  15
TORSDOF 8
ENDMDL
MODEL 7
REMARK VINA RESULT:      -6.2      2.985      4.526
REMARK  8 active torsions:
REMARK  status: ('A' for Active; 'I' for Inactive)
REMARK    1  A    between atoms: O_2  and  C_3 
REMARK    2  A    between atoms: C_6  and  C_7 
REMARK    3  A    between atoms: C_7  and  O_8 
REMARK    4  A    between atoms: O_8  and  C_9 
REMARK    5  A    between atoms: C_9  and  C_10 
REMARK    6  A    between atoms: C_10  and  O_11 
REMARK    7  A    between atoms: C_10  and  C_12 
REMARK    8  A    between atoms: C_12  and  N_13 
ROOT
HETATM    1  C   UNL     1     -38.136 -51.055  13.106  1.00  0.00     0.160 C 
ENDROOT
BRANCH   1   2
HETATM    2  C   UNL     1     -37.630 -50.042  14.143  1.00  0.00     0.201 C 
BRANCH   2   3
HETATM    3  O   UNL     1     -37.565 -48.757  13.511  1.00  0.00    -0.384 OA
BRANCH   3   4
HETATM    4  C   UNL     1     -38.404 -47.803  14.165  1.00  0.00     0.206 C 
BRANCH   4   5
HETATM    5  C   UNL     1     -39.261 -47.115  13.137  1.00  0.00    -0.034 A 
HETATM    6  C   UNL     1     -39.422 -45.724  13.171  1.00  0.00     0.012 A 
HETATM    7  C   UNL     1     -40.152 -45.062  12.180  1.00  0.00     0.037 A 
HETATM    8  C   UNL     1     -40.721 -45.785  11.132  1.00  0.00     0.068 A 
HETATM    9  C   UNL     1     -40.611 -47.174  11.116  1.00  0.00     0.037 A 
HETATM   10  C   UNL     1     -39.878 -47.838  12.104  1.00  0.00     0.012 A 
BRANCH   8  11
HETATM   11  O   UNL     1     -41.425 -45.224  10.102  1.00  0.00    -0.356 OA
HETATM   12  C   UNL     1     -42.678 -45.853   9.836  1.00  0.00     0.210 C 
ENDBRANCH   8  11
ENDBRANCH   4   5
ENDBRANCH   3   4
ENDBRANCH   2   3
ENDBRANCH   1   2
BRANCH   1  13
HETATM   13  O   UNL     1     -36.985 -51.690  12.529  1.00  0.00    -0.392 OA
HETATM   14  H   UNL     1     -37.230 -52.627  12.392  1.00  0.00     0.210 HD
ENDBRANCH   1  13
BRANCH   1  15
HETATM   15  C   UNL     1     -39.057 -52.103  13.745  1.00  0.00     0.164 C 
BRANCH  15  16
HETATM   16  N   UNL     1     -40.374 -52.141  13.131  1.00  0.00    -0.339 N 
HETATM   17  C   UNL     1     -40.770 -51.313  12.114  1.00  0.00     0.184 A 
HETATM   18  N   UNL     1     -41.993 -51.576  11.719  1.00  0.00    -0.350 N 
HETATM   19  C   UNL     1     -42.415 -52.606  12.518  1.00  0.00     0.063 A 
ATOM     20  HN  UNL     1     -42.517 -51.113  10.976  1.00  0.00     0.166 HD
HETATM   21  C   UNL     1     -43.655 -53.261  12.525  1.00  0.00     0.077 A 
HETATM   22  C   UNL     1     -41.414 -52.992  13.414  1.00  0.00     0.065 A 
HETATM   23  C   UNL     1     -43.846 -54.295  13.440  1.00  0.00     0.157 A 
HETATM   24  F   UNL     1     -45.024 -54.933  13.463  1.00  0.00    -0.203 F 
HETATM   25  C   UNL     1     -42.836 -54.671  14.322  1.00  0.00     0.157 A 
HETATM   26  F   UNL     1     -43.055 -55.670  15.189  1.00  0.00    -0.203 F 
HETATM   27  C   UNL     1     -41.594 -54.032  14.335  1.00  0.00     0.077 A 
ENDBRANCH  15  16
ENDBRANCH   1  15
TORSDOF 8
ENDMDL
MODEL 8
REMARK VINA RESULT:      -6.2      4.178      6.347
REMARK  8 active torsions:
REMARK  status: ('A' for Active; 'I' for Inactive)
REMARK    1  A    between atoms: O_2  and  C_3 
REMARK    2  A    between atoms: C_6  and  C_7 
REMARK    3  A    between atoms: C_7  and  O_8 
REMARK    4  A    between atoms: O_8  and  C_9 
REMARK    5  A    between atoms: C_9  and  C_10 
REMARK    6  A    between atoms: C_10  and  O_11 
REMARK    7  A    between atoms: C_10  and  C_12 
REMARK    8  A    between atoms: C_12  and  N_13 
ROOT
HETATM    1  C   UNL     1     -45.595 -53.692  15.609  1.00  0.00     0.160 C 
ENDROOT
BRANCH   1   2
HETATM    2  C   UNL     1     -46.686 -52.655  15.307  1.00  0.00     0.201 C 
BRANCH   2   3
HETATM    3  O   UNL     1     -46.045 -51.462  14.836  1.00  0.00    -0.384 OA
BRANCH   3   4
HETATM    4  C   UNL     1     -45.017 -51.027  15.728  1.00  0.00     0.206 C 
BRANCH   4   5
HETATM    5  C   UNL     1     -43.789 -50.678  14.931  1.00  0.00    -0.034 A 
HETATM    6  C   UNL     1     -43.914 -50.150  13.639  1.00  0.00     0.012 A 
HETATM    7  C   UNL     1     -42.788 -49.750  12.915  1.00  0.00     0.037 A 
HETATM    8  C   UNL     1     -41.519 -49.861  13.482  1.00  0.00     0.068 A 
HETATM    9  C   UNL     1     -41.377 -50.433  14.746  1.00  0.00     0.037 A 
HETATM   10  C   UNL     1     -42.504 -50.830  15.473  1.00  0.00     0.012 A 
BRANCH   8  11
HETATM   11  O   UNL     1     -40.361 -49.469  12.866  1.00  0.00    -0.356 OA
HETATM   12  C   UNL     1     -40.253 -49.880  11.505  1.00  0.00     0.210 C 
ENDBRANCH   8  11
ENDBRANCH   4   5
ENDBRANCH   3   4
ENDBRANCH   2   3
ENDBRANCH   1   2
BRANCH   1  13
HETATM   13  O   UNL     1     -46.051 -54.487  16.714  1.00  0.00    -0.392 OA
HETATM   14  H   UNL     1     -45.252 -54.883  17.115  1.00  0.00     0.210 HD
ENDBRANCH   1  13
BRANCH   1  15
HETATM   15  C   UNL     1     -45.313 -54.584  14.393  1.00  0.00     0.164 C 
BRANCH  15  16
HETATM   16  N   UNL     1     -44.188 -54.115  13.602  1.00  0.00    -0.339 N 
HETATM   17  C   UNL     1     -44.310 -53.504  12.382  1.00  0.00     0.184 A 
HETATM   18  N   UNL     1     -43.144 -53.149  11.895  1.00  0.00    -0.350 N 
HETATM   19  C   UNL     1     -42.226 -53.558  12.826  1.00  0.00     0.063 A 
ATOM     20  HN  UNL     1     -42.961 -52.672  11.012  1.00  0.00     0.166 HD
HETATM   21  C   UNL     1     -40.830 -53.437  12.795  1.00  0.00     0.077 A 
HETATM   22  C   UNL     1     -42.852 -54.163  13.920  1.00  0.00     0.065 A 
HETATM   23  C   UNL     1     -40.103 -53.932  13.876  1.00  0.00     0.157 A 
HETATM   24  F   UNL     1     -38.767 -53.827  13.865  1.00  0.00    -0.203 F 
HETATM   25  C   UNL     1     -40.743 -54.527  14.960  1.00  0.00     0.157 A 
HETATM   26  F   UNL     1     -40.013 -54.992  15.985  1.00  0.00    -0.203 F 
HETATM   27  C   UNL     1     -42.133 -54.661  15.014  1.00  0.00     0.077 A 
ENDBRANCH  15  16
ENDBRANCH   1  15
TORSDOF 8
ENDMDL
MODEL 9
REMARK VINA RESULT:      -6.2      4.581      7.289
REMARK  8 active torsions:
REMARK  status: ('A' for Active; 'I' for Inactive)
REMARK    1  A    between atoms: O_2  and  C_3 
REMARK    2  A    between atoms: C_6  and  C_7 
REMARK    3  A    between atoms: C_7  and  O_8 
REMARK    4  A    between atoms: O_8  and  C_9 
REMARK    5  A    between atoms: C_9  and  C_10 
REMARK    6  A    between atoms: C_10  and  O_11 
REMARK    7  A    between atoms: C_10  and  C_12 
REMARK    8  A    between atoms: C_12  and  N_13 
ROOT
HETATM    1  C   UNL     1     -39.156 -50.744  13.069  1.00  0.00     0.160 C 
ENDROOT
BRANCH   1   2
HETATM    2  C   UNL     1     -39.085 -51.953  14.013  1.00  0.00     0.201 C 
BRANCH   2   3
HETATM    3  O   UNL     1     -39.472 -53.117  13.270  1.00  0.00    -0.384 OA
BRANCH   3   4
HETATM    4  C   UNL     1     -40.140 -54.072  14.095  1.00  0.00     0.206 C 
BRANCH   4   5
HETATM    5  C   UNL     1     -41.607 -54.076  13.755  1.00  0.00    -0.034 A 
HETATM    6  C   UNL     1     -42.528 -54.684  14.618  1.00  0.00     0.012 A 
HETATM    7  C   UNL     1     -43.900 -54.629  14.356  1.00  0.00     0.037 A 
HETATM    8  C   UNL     1     -44.369 -53.953  13.230  1.00  0.00     0.068 A 
HETATM    9  C   UNL     1     -43.459 -53.388  12.338  1.00  0.00     0.037 A 
HETATM   10  C   UNL     1     -42.086 -53.438  12.601  1.00  0.00     0.012 A 
BRANCH   8  11
HETATM   11  O   UNL     1     -45.691 -53.819  12.906  1.00  0.00    -0.356 OA
HETATM   12  C   UNL     1     -46.117 -52.471  12.720  1.00  0.00     0.210 C 
ENDBRANCH   8  11
ENDBRANCH   4   5
ENDBRANCH   3   4
ENDBRANCH   2   3
ENDBRANCH   1   2
BRANCH   1  13
HETATM   13  O   UNL     1     -38.779 -51.197  11.760  1.00  0.00    -0.392 OA
HETATM   14  H   UNL     1     -38.318 -52.049  11.889  1.00  0.00     0.210 HD
ENDBRANCH   1  13
BRANCH   1  15
HETATM   15  C   UNL     1     -40.565 -50.137  13.037  1.00  0.00     0.164 C 
BRANCH  15  16
HETATM   16  N   UNL     1     -40.663 -48.996  12.141  1.00  0.00    -0.339 N 
HETATM   17  C   UNL     1     -41.226 -49.046  10.894  1.00  0.00     0.184 A 
HETATM   18  N   UNL     1     -41.217 -47.872  10.306  1.00  0.00    -0.350 N 
HETATM   19  C   UNL     1     -40.612 -47.028  11.200  1.00  0.00     0.063 A 
ATOM     20  HN  UNL     1     -41.583 -47.639   9.383  1.00  0.00     0.166 HD
HETATM   21  C   UNL     1     -40.336 -45.660  11.066  1.00  0.00     0.077 A 
HETATM   22  C   UNL     1     -40.258 -47.703  12.371  1.00  0.00     0.065 A 
HETATM   23  C   UNL     1     -39.708 -45.011  12.128  1.00  0.00     0.157 A 
HETATM   24  F   UNL     1     -39.434 -43.703  12.020  1.00  0.00    -0.203 F 
HETATM   25  C   UNL     1     -39.366 -45.697  13.290  1.00  0.00     0.157 A 
HETATM   26  F   UNL     1     -38.764 -45.040  14.293  1.00  0.00    -0.203 F 
HETATM   27  C   UNL     1     -39.630 -47.060  13.446  1.00  0.00     0.077 A 
ENDBRANCH  15  16
ENDBRANCH   1  15
TORSDOF 8
ENDMDL
