MODEL 1
REMARK VINA RESULT:      -6.3      0.000      0.000
REMARK  5 active torsions:
REMARK  status: ('A' for Active; 'I' for Inactive)
REMARK    1  A    between atoms: C_9  and  C_10 
REMARK    2  A    between atoms: C_10  and  C_11 
REMARK    3  A    between atoms: C_11  and  N_12 
REMARK       I    between atoms: N_12  and  C_13 
REMARK    4  A    between atoms: C_13  and  C_15 
REMARK    5  A    between atoms: C_15  and  N_16 
ROOT
HETATM    1  N   UNL     1     -42.379 -52.498  11.812  1.00  0.00    -0.359 N 
HETATM    2  C   UNL     1     -42.986 -53.460  12.613  1.00  0.00     0.235 C 
HETATM    3  O   UNL     1     -42.356 -54.008  13.519  1.00  0.00    -0.272 OA
HETATM    4  H   UNL     1     -42.834 -52.224  10.950  1.00  0.00     0.162 HD
ENDROOT
BRANCH   1   5
HETATM    5  C   UNL     1     -40.962 -52.212  12.013  1.00  0.00     0.127 C 
BRANCH   5   6
HETATM    6  C   UNL     1     -40.660 -51.043  12.957  1.00  0.00     0.062 C 
BRANCH   6   7
HETATM    7  C   UNL     1     -40.471 -49.749  12.215  1.00  0.00    -0.009 A 
HETATM    8  C   UNL     1     -39.267 -49.198  11.688  1.00  0.00     0.030 A 
HETATM    9  C   UNL     1     -37.890 -49.752  11.722  1.00  0.00     0.070 C 
HETATM   10  N   UNL     1     -39.477 -48.019  11.095  1.00  0.00    -0.303 N 
HETATM   11  N   UNL     1     -40.792 -47.796  11.239  1.00  0.00    -0.300 N 
ATOM     12  HN  UNL     1     -38.790 -47.421  10.635  1.00  0.00     0.186 HD
HETATM   13  C   UNL     1     -41.349 -46.571  10.716  1.00  0.00     0.177 C 
HETATM   14  C   UNL     1     -41.443 -48.807  11.897  1.00  0.00     0.032 A 
HETATM   15  C   UNL     1     -42.904 -48.802  12.176  1.00  0.00     0.070 C 
ENDBRANCH   6   7
ENDBRANCH   5   6
ENDBRANCH   1   5
BRANCH   2  16
HETATM   16  C   UNL     1     -44.482 -53.727  12.345  1.00  0.00     0.228 C 
BRANCH  16  17
HETATM   17  N   UNL     1     -45.366 -53.243  13.416  1.00  0.00    -0.343 N 
HETATM   18  C   UNL     1     -46.131 -52.017  13.203  1.00  0.00     0.126 C 
HETATM   19  C   UNL     1     -46.400 -51.297  14.515  1.00  0.00     0.020 C 
HETATM   20  C   UNL     1     -47.148 -52.230  15.453  1.00  0.00     0.011 C 
HETATM   21  C   UNL     1     -46.397 -53.540  15.634  1.00  0.00     0.103 C 
HETATM   22  C   UNL     1     -45.833 -54.150  14.360  1.00  0.00     0.220 C 
HETATM   23  O   UNL     1     -45.668 -55.365  14.263  1.00  0.00    -0.273 OA
ENDBRANCH  16  17
ENDBRANCH   2  16
TORSDOF 5
ENDMDL
MODEL 2
REMARK VINA RESULT:      -6.1      1.539      1.856
REMARK  5 active torsions:
REMARK  status: ('A' for Active; 'I' for Inactive)
REMARK    1  A    between atoms: C_9  and  C_10 
REMARK    2  A    between atoms: C_10  and  C_11 
REMARK    3  A    between atoms: C_11  and  N_12 
REMARK       I    between atoms: N_12  and  C_13 
REMARK    4  A    between atoms: C_13  and  C_15 
REMARK    5  A    between atoms: C_15  and  N_16 
ROOT
HETATM    1  N   UNL     1     -41.837 -53.652  13.354  1.00  0.00    -0.359 N 
HETATM    2  C   UNL     1     -42.334 -54.334  14.459  1.00  0.00     0.235 C 
HETATM    3  O   UNL     1     -41.624 -54.528  15.447  1.00  0.00    -0.272 OA
HETATM    4  H   UNL     1     -42.351 -53.693  12.483  1.00  0.00     0.162 HD
ENDROOT
BRANCH   1   5
HETATM    5  C   UNL     1     -40.436 -53.242  13.357  1.00  0.00     0.127 C 
BRANCH   5   6
HETATM    6  C   UNL     1     -40.170 -51.826  13.880  1.00  0.00     0.062 C 
BRANCH   6   7
HETATM    7  C   UNL     1     -40.256 -50.794  12.790  1.00  0.00    -0.009 A 
HETATM    8  C   UNL     1     -39.203 -50.265  11.987  1.00  0.00     0.030 A 
HETATM    9  C   UNL     1     -37.755 -50.595  12.005  1.00  0.00     0.070 C 
HETATM   10  N   UNL     1     -39.649 -49.351  11.119  1.00  0.00    -0.303 N 
HETATM   11  N   UNL     1     -40.967 -49.275  11.356  1.00  0.00    -0.300 N 
ATOM     12  HN  UNL     1     -39.108 -48.829  10.431  1.00  0.00     0.186 HD
HETATM   13  C   UNL     1     -41.757 -48.344  10.586  1.00  0.00     0.177 C 
HETATM   14  C   UNL     1     -41.390 -50.126  12.344  1.00  0.00     0.032 A 
HETATM   15  C   UNL     1     -42.806 -50.236  12.787  1.00  0.00     0.070 C 
ENDBRANCH   6   7
ENDBRANCH   5   6
ENDBRANCH   1   5
BRANCH   2  16
HETATM   16  C   UNL     1     -43.819 -54.751  14.393  1.00  0.00     0.228 C 
BRANCH  16  17
HETATM   17  N   UNL     1     -44.747 -53.612  14.327  1.00  0.00    -0.343 N 
HETATM   18  C   UNL     1     -44.814 -52.685  15.454  1.00  0.00     0.126 C 
HETATM   19  C   UNL     1     -46.192 -52.054  15.569  1.00  0.00     0.020 C 
HETATM   20  C   UNL     1     -46.521 -51.332  14.273  1.00  0.00     0.011 C 
HETATM   21  C   UNL     1     -46.390 -52.265  13.080  1.00  0.00     0.103 C 
HETATM   22  C   UNL     1     -45.157 -53.155  13.080  1.00  0.00     0.220 C 
HETATM   23  O   UNL     1     -44.670 -53.557  12.023  1.00  0.00    -0.273 OA
ENDBRANCH  16  17
ENDBRANCH   2  16
TORSDOF 5
ENDMDL
MODEL 3
REMARK VINA RESULT:      -5.9      1.590      2.516
REMARK  5 active torsions:
REMARK  status: ('A' for Active; 'I' for Inactive)
REMARK    1  A    between atoms: C_9  and  C_10 
REMARK    2  A    between atoms: C_10  and  C_11 
REMARK    3  A    between atoms: C_11  and  N_12 
REMARK       I    between atoms: N_12  and  C_13 
REMARK    4  A    between atoms: C_13  and  C_15 
REMARK    5  A    between atoms: C_15  and  N_16 
ROOT
HETATM    1  N   UNL     1     -42.386 -50.861  11.929  1.00  0.00    -0.359 N 
HETATM    2  C   UNL     1     -42.530 -51.885  12.859  1.00  0.00     0.235 C 
HETATM    3  O   UNL     1     -41.845 -51.903  13.883  1.00  0.00    -0.272 OA
HETATM    4  H   UNL     1     -42.790 -50.978  11.009  1.00  0.00     0.162 HD
ENDROOT
BRANCH   1   5
HETATM    5  C   UNL     1     -41.351 -49.856  12.152  1.00  0.00     0.127 C 
BRANCH   5   6
HETATM    6  C   UNL     1     -41.861 -48.483  12.605  1.00  0.00     0.062 C 
BRANCH   6   7
HETATM    7  C   UNL     1     -41.460 -47.387  11.656  1.00  0.00    -0.009 A 
HETATM    8  C   UNL     1     -42.014 -47.075  10.380  1.00  0.00     0.030 A 
HETATM    9  C   UNL     1     -43.130 -47.734   9.656  1.00  0.00     0.070 C 
HETATM   10  N   UNL     1     -41.397 -46.034   9.811  1.00  0.00    -0.303 N 
HETATM   11  N   UNL     1     -40.450 -45.679  10.692  1.00  0.00    -0.300 N 
ATOM     12  HN  UNL     1     -41.601 -45.606   8.908  1.00  0.00     0.186 HD
HETATM   13  C   UNL     1     -39.576 -44.578  10.364  1.00  0.00     0.177 C 
HETATM   14  C   UNL     1     -40.447 -46.451  11.825  1.00  0.00     0.032 A 
HETATM   15  C   UNL     1     -39.499 -46.254  12.954  1.00  0.00     0.070 C 
ENDBRANCH   6   7
ENDBRANCH   5   6
ENDBRANCH   1   5
BRANCH   2  16
HETATM   16  C   UNL     1     -43.632 -52.925  12.565  1.00  0.00     0.228 C 
BRANCH  16  17
HETATM   17  N   UNL     1     -44.812 -52.791  13.433  1.00  0.00    -0.343 N 
HETATM   18  C   UNL     1     -45.465 -51.490  13.546  1.00  0.00     0.126 C 
HETATM   19  C   UNL     1     -46.139 -51.325  14.899  1.00  0.00     0.020 C 
HETATM   20  C   UNL     1     -47.152 -52.442  15.091  1.00  0.00     0.011 C 
HETATM   21  C   UNL     1     -46.503 -53.805  14.910  1.00  0.00     0.103 C 
HETATM   22  C   UNL     1     -45.561 -53.926  13.722  1.00  0.00     0.220 C 
HETATM   23  O   UNL     1     -45.377 -55.011  13.172  1.00  0.00    -0.273 OA
ENDBRANCH  16  17
ENDBRANCH   2  16
TORSDOF 5
ENDMDL
MODEL 4
REMARK VINA RESULT:      -5.8      2.029      3.543
REMARK  5 active torsions:
REMARK  status: ('A' for Active; 'I' for Inactive)
REMARK    1  A    between atoms: C_9  and  C_10 
REMARK    2  A    between atoms: C_10  and  C_11 
REMARK    3  A    between atoms: C_11  and  N_12 
REMARK       I    between atoms: N_12  and  C_13 
REMARK    4  A    between atoms: C_13  and  C_15 
REMARK    5  A    between atoms: C_15  and  N_16 
ROOT
HETATM    1  N   UNL     1     -41.848 -53.885  15.638  1.00  0.00    -0.359 N 
HETATM    2  C   UNL     1     -42.934 -54.718  15.887  1.00  0.00     0.235 C 
HETATM    3  O   UNL     1     -42.935 -55.883  15.487  1.00  0.00    -0.272 OA
HETATM    4  H   UNL     1     -41.955 -52.888  15.779  1.00  0.00     0.162 HD
ENDROOT
BRANCH   1   5
HETATM    5  C   UNL     1     -40.748 -54.395  14.826  1.00  0.00     0.127 C 
BRANCH   5   6
HETATM    6  C   UNL     1     -40.950 -54.289  13.310  1.00  0.00     0.062 C 
BRANCH   6   7
HETATM    7  C   UNL     1     -41.438 -52.929  12.897  1.00  0.00    -0.009 A 
HETATM    8  C   UNL     1     -42.743 -52.549  12.465  1.00  0.00     0.030 A 
HETATM    9  C   UNL     1     -43.961 -53.386  12.317  1.00  0.00     0.070 C 
HETATM   10  N   UNL     1     -42.810 -51.248  12.167  1.00  0.00    -0.303 N 
HETATM   11  N   UNL     1     -41.571 -50.785  12.390  1.00  0.00    -0.300 N 
ATOM     12  HN  UNL     1     -43.623 -50.724  11.843  1.00  0.00     0.186 HD
HETATM   13  C   UNL     1     -41.296 -49.391  12.138  1.00  0.00     0.177 C 
HETATM   14  C   UNL     1     -40.706 -51.749  12.839  1.00  0.00     0.032 A 
HETATM   15  C   UNL     1     -39.278 -51.488  13.165  1.00  0.00     0.070 C 
ENDBRANCH   6   7
ENDBRANCH   5   6
ENDBRANCH   1   5
BRANCH   2  16
HETATM   16  C   UNL     1     -44.071 -54.120  16.741  1.00  0.00     0.228 C 
BRANCH  16  17
HETATM   17  N   UNL     1     -44.955 -53.214  15.992  1.00  0.00    -0.343 N 
HETATM   18  C   UNL     1     -44.470 -51.884  15.636  1.00  0.00     0.126 C 
HETATM   19  C   UNL     1     -45.613 -50.887  15.533  1.00  0.00     0.020 C 
HETATM   20  C   UNL     1     -46.613 -51.379  14.498  1.00  0.00     0.011 C 
HETATM   21  C   UNL     1     -47.078 -52.790  14.817  1.00  0.00     0.103 C 
HETATM   22  C   UNL     1     -45.984 -53.760  15.233  1.00  0.00     0.220 C 
HETATM   23  O   UNL     1     -46.104 -54.969  15.034  1.00  0.00    -0.273 OA
ENDBRANCH  16  17
ENDBRANCH   2  16
TORSDOF 5
ENDMDL
MODEL 5
REMARK VINA RESULT:      -5.7      1.985      2.919
REMARK  5 active torsions:
REMARK  status: ('A' for Active; 'I' for Inactive)
REMARK    1  A    between atoms: C_9  and  C_10 
REMARK    2  A    between atoms: C_10  and  C_11 
REMARK    3  A    between atoms: C_11  and  N_12 
REMARK       I    between atoms: N_12  and  C_13 
REMARK    4  A    between atoms: C_13  and  C_15 
REMARK    5  A    between atoms: C_15  and  N_16 
ROOT
HETATM    1  N   UNL     1     -41.742 -53.475  15.229  1.00  0.00    -0.359 N 
HETATM    2  C   UNL     1     -42.338 -54.168  14.181  1.00  0.00     0.235 C 
HETATM    3  O   UNL     1     -41.706 -54.410  13.151  1.00  0.00    -0.272 OA
HETATM    4  H   UNL     1     -42.330 -53.099  15.963  1.00  0.00     0.162 HD
ENDROOT
BRANCH   1   5
HETATM    5  C   UNL     1     -40.383 -52.972  15.052  1.00  0.00     0.127 C 
BRANCH   5   6
HETATM    6  C   UNL     1     -40.257 -51.447  14.963  1.00  0.00     0.062 C 
BRANCH   6   7
HETATM    7  C   UNL     1     -39.737 -50.997  13.626  1.00  0.00    -0.009 A 
HETATM    8  C   UNL     1     -40.453 -50.849  12.402  1.00  0.00     0.030 A 
HETATM    9  C   UNL     1     -41.892 -51.087  12.124  1.00  0.00     0.070 C 
HETATM   10  N   UNL     1     -39.661 -50.436  11.408  1.00  0.00    -0.303 N 
HETATM   11  N   UNL     1     -38.446 -50.326  11.967  1.00  0.00    -0.300 N 
ATOM     12  HN  UNL     1     -39.921 -50.247  10.441  1.00  0.00     0.186 HD
HETATM   13  C   UNL     1     -37.337 -49.913  11.140  1.00  0.00     0.177 C 
HETATM   14  C   UNL     1     -38.434 -50.642  13.301  1.00  0.00     0.032 A 
HETATM   15  C   UNL     1     -37.212 -50.592  14.148  1.00  0.00     0.070 C 
ENDBRANCH   6   7
ENDBRANCH   5   6
ENDBRANCH   1   5
BRANCH   2  16
HETATM   16  C   UNL     1     -43.778 -54.665  14.422  1.00  0.00     0.228 C 
BRANCH  16  17
HETATM   17  N   UNL     1     -44.787 -53.597  14.355  1.00  0.00    -0.343 N 
HETATM   18  C   UNL     1     -45.008 -52.910  13.085  1.00  0.00     0.126 C 
HETATM   19  C   UNL     1     -45.486 -51.483  13.304  1.00  0.00     0.020 C 
HETATM   20  C   UNL     1     -46.767 -51.505  14.122  1.00  0.00     0.011 C 
HETATM   21  C   UNL     1     -46.574 -52.276  15.418  1.00  0.00     0.103 C 
HETATM   22  C   UNL     1     -45.815 -53.587  15.291  1.00  0.00     0.220 C 
HETATM   23  O   UNL     1     -46.011 -54.508  16.083  1.00  0.00    -0.273 OA
ENDBRANCH  16  17
ENDBRANCH   2  16
TORSDOF 5
ENDMDL
MODEL 6
REMARK VINA RESULT:      -5.7      2.000      2.724
REMARK  5 active torsions:
REMARK  status: ('A' for Active; 'I' for Inactive)
REMARK    1  A    between atoms: C_9  and  C_10 
REMARK    2  A    between atoms: C_10  and  C_11 
REMARK    3  A    between atoms: C_11  and  N_12 
REMARK       I    between atoms: N_12  and  C_13 
REMARK    4  A    between atoms: C_13  and  C_15 
REMARK    5  A    between atoms: C_15  and  N_16 
ROOT
HETATM    1  N   UNL     1     -42.635 -52.696  11.863  1.00  0.00    -0.359 N 
HETATM    2  C   UNL     1     -42.920 -53.700  12.782  1.00  0.00     0.235 C 
HETATM    3  O   UNL     1     -42.044 -54.127  13.535  1.00  0.00    -0.272 OA
HETATM    4  H   UNL     1     -43.296 -52.515  11.117  1.00  0.00     0.162 HD
ENDROOT
BRANCH   1   5
HETATM    5  C   UNL     1     -41.260 -52.218  11.754  1.00  0.00     0.127 C 
BRANCH   5   6
HETATM    6  C   UNL     1     -41.022 -50.793  12.265  1.00  0.00     0.062 C 
BRANCH   6   7
HETATM    7  C   UNL     1     -39.841 -50.713  13.192  1.00  0.00    -0.009 A 
HETATM    8  C   UNL     1     -38.496 -50.355  12.884  1.00  0.00     0.030 A 
HETATM    9  C   UNL     1     -37.907 -49.959  11.579  1.00  0.00     0.070 C 
HETATM   10  N   UNL     1     -37.708 -50.403  13.962  1.00  0.00    -0.303 N 
HETATM   11  N   UNL     1     -38.518 -50.794  14.957  1.00  0.00    -0.300 N 
ATOM     12  HN  UNL     1     -36.712 -50.188  14.017  1.00  0.00     0.186 HD
HETATM   13  C   UNL     1     -37.962 -50.968  16.277  1.00  0.00     0.177 C 
HETATM   14  C   UNL     1     -39.815 -50.987  14.554  1.00  0.00     0.032 A 
HETATM   15  C   UNL     1     -40.906 -51.415  15.469  1.00  0.00     0.070 C 
ENDBRANCH   6   7
ENDBRANCH   5   6
ENDBRANCH   1   5
BRANCH   2  16
HETATM   16  C   UNL     1     -44.388 -54.173  12.845  1.00  0.00     0.228 C 
BRANCH  16  17
HETATM   17  N   UNL     1     -45.231 -53.356  13.731  1.00  0.00    -0.343 N 
HETATM   18  C   UNL     1     -46.295 -52.543  13.146  1.00  0.00     0.126 C 
HETATM   19  C   UNL     1     -46.575 -51.310  13.990  1.00  0.00     0.020 C 
HETATM   20  C   UNL     1     -46.954 -51.742  15.397  1.00  0.00     0.011 C 
HETATM   21  C   UNL     1     -45.888 -52.645  15.996  1.00  0.00     0.103 C 
HETATM   22  C   UNL     1     -45.346 -53.720  15.068  1.00  0.00     0.220 C 
HETATM   23  O   UNL     1     -44.899 -54.775  15.517  1.00  0.00    -0.273 OA
ENDBRANCH  16  17
ENDBRANCH   2  16
TORSDOF 5
ENDMDL
MODEL 7
REMARK VINA RESULT:      -5.7      2.651      4.159
REMARK  5 active torsions:
REMARK  status: ('A' for Active; 'I' for Inactive)
REMARK    1  A    between atoms: C_9  and  C_10 
REMARK    2  A    between atoms: C_10  and  C_11 
REMARK    3  A    between atoms: C_11  and  N_12 
REMARK       I    between atoms: N_12  and  C_13 
REMARK    4  A    between atoms: C_13  and  C_15 
REMARK    5  A    between atoms: C_15  and  N_16 
ROOT
HETATM    1  N   UNL     1     -42.004 -50.572  11.754  1.00  0.00    -0.359 N 
HETATM    2  C   UNL     1     -40.958 -51.321  12.282  1.00  0.00     0.235 C 
HETATM    3  O   UNL     1     -40.039 -50.771  12.891  1.00  0.00    -0.272 OA
HETATM    4  H   UNL     1     -42.623 -51.005  11.080  1.00  0.00     0.162 HD
ENDROOT
BRANCH   1   5
HETATM    5  C   UNL     1     -41.949 -49.118  11.868  1.00  0.00     0.127 C 
BRANCH   5   6
HETATM    6  C   UNL     1     -41.568 -48.376  10.581  1.00  0.00     0.062 C 
BRANCH   6   7
HETATM    7  C   UNL     1     -42.170 -46.999  10.521  1.00  0.00    -0.009 A 
HETATM    8  C   UNL     1     -43.328 -46.570   9.809  1.00  0.00     0.030 A 
HETATM    9  C   UNL     1     -44.247 -47.361   8.951  1.00  0.00     0.070 C 
HETATM   10  N   UNL     1     -43.562 -45.265   9.979  1.00  0.00    -0.303 N 
HETATM   11  N   UNL     1     -42.571 -44.845  10.779  1.00  0.00    -0.300 N 
ATOM     12  HN  UNL     1     -44.325 -44.713   9.588  1.00  0.00     0.186 HD
HETATM   13  C   UNL     1     -42.520 -43.449  11.144  1.00  0.00     0.177 C 
HETATM   14  C   UNL     1     -41.709 -45.846  11.145  1.00  0.00     0.032 A 
HETATM   15  C   UNL     1     -40.533 -45.638  12.032  1.00  0.00     0.070 C 
ENDBRANCH   6   7
ENDBRANCH   5   6
ENDBRANCH   1   5
BRANCH   2  16
HETATM   16  C   UNL     1     -41.065 -52.852  12.122  1.00  0.00     0.228 C 
BRANCH  16  17
HETATM   17  N   UNL     1     -41.803 -53.507  13.212  1.00  0.00    -0.343 N 
HETATM   18  C   UNL     1     -41.224 -53.518  14.553  1.00  0.00     0.126 C 
HETATM   19  C   UNL     1     -41.676 -54.737  15.341  1.00  0.00     0.020 C 
HETATM   20  C   UNL     1     -43.193 -54.746  15.421  1.00  0.00     0.011 C 
HETATM   21  C   UNL     1     -43.814 -54.667  14.036  1.00  0.00     0.103 C 
HETATM   22  C   UNL     1     -43.180 -53.656  13.093  1.00  0.00     0.220 C 
HETATM   23  O   UNL     1     -43.837 -53.137  12.191  1.00  0.00    -0.273 OA
ENDBRANCH  16  17
ENDBRANCH   2  16
TORSDOF 5
ENDMDL
MODEL 8
REMARK VINA RESULT:      -5.5      2.247      6.846
REMARK  5 active torsions:
REMARK  status: ('A' for Active; 'I' for Inactive)
REMARK    1  A    between atoms: C_9  and  C_10 
REMARK    2  A    between atoms: C_10  and  C_11 
REMARK    3  A    between atoms: C_11  and  N_12 
REMARK       I    between atoms: N_12  and  C_13 
REMARK    4  A    between atoms: C_13  and  C_15 
REMARK    5  A    between atoms: C_15  and  N_16 
ROOT
HETATM    1  N   UNL     1     -42.131 -51.675  11.977  1.00  0.00    -0.359 N 
HETATM    2  C   UNL     1     -40.803 -51.262  11.953  1.00  0.00     0.235 C 
HETATM    3  O   UNL     1     -39.907 -52.012  12.345  1.00  0.00    -0.272 OA
HETATM    4  H   UNL     1     -42.860 -50.981  11.861  1.00  0.00     0.162 HD
ENDROOT
BRANCH   1   5
HETATM    5  C   UNL     1     -42.448 -52.980  12.548  1.00  0.00     0.127 C 
BRANCH   5   6
HETATM    6  C   UNL     1     -43.895 -53.445  12.351  1.00  0.00     0.062 C 
BRANCH   6   7
HETATM    7  C   UNL     1     -44.701 -53.343  13.616  1.00  0.00    -0.009 A 
HETATM    8  C   UNL     1     -45.841 -52.528  13.876  1.00  0.00     0.030 A 
HETATM    9  C   UNL     1     -46.538 -51.577  12.973  1.00  0.00     0.070 C 
HETATM   10  N   UNL     1     -46.296 -52.690  15.122  1.00  0.00    -0.303 N 
HETATM   11  N   UNL     1     -45.463 -53.587  15.672  1.00  0.00    -0.300 N 
ATOM     12  HN  UNL     1     -47.097 -52.234  15.558  1.00  0.00     0.186 HD
HETATM   13  C   UNL     1     -45.670 -53.972  17.048  1.00  0.00     0.177 C 
HETATM   14  C   UNL     1     -44.490 -54.022  14.810  1.00  0.00     0.032 A 
HETATM   15  C   UNL     1     -43.451 -55.021  15.177  1.00  0.00     0.070 C 
ENDBRANCH   6   7
ENDBRANCH   5   6
ENDBRANCH   1   5
BRANCH   2  16
HETATM   16  C   UNL     1     -40.531 -49.869  11.348  1.00  0.00     0.228 C 
BRANCH  16  17
HETATM   17  N   UNL     1     -41.392 -48.811  11.898  1.00  0.00    -0.343 N 
HETATM   18  C   UNL     1     -41.075 -48.249  13.209  1.00  0.00     0.126 C 
HETATM   19  C   UNL     1     -42.326 -47.753  13.915  1.00  0.00     0.020 C 
HETATM   20  C   UNL     1     -43.012 -46.711  13.046  1.00  0.00     0.011 C 
HETATM   21  C   UNL     1     -43.289 -47.258  11.654  1.00  0.00     0.103 C 
HETATM   22  C   UNL     1     -42.149 -48.042  11.022  1.00  0.00     0.220 C 
HETATM   23  O   UNL     1     -42.026 -48.099   9.799  1.00  0.00    -0.273 OA
ENDBRANCH  16  17
ENDBRANCH   2  16
TORSDOF 5
ENDMDL
MODEL 9
REMARK VINA RESULT:      -5.5      3.243      6.948
REMARK  5 active torsions:
REMARK  status: ('A' for Active; 'I' for Inactive)
REMARK    1  A    between atoms: C_9  and  C_10 
REMARK    2  A    between atoms: C_10  and  C_11 
REMARK    3  A    between atoms: C_11  and  N_12 
REMARK       I    between atoms: N_12  and  C_13 
REMARK    4  A    between atoms: C_13  and  C_15 
REMARK    5  A    between atoms: C_15  and  N_16 
ROOT
HETATM    1  N   UNL     1     -44.136 -51.789  12.715  1.00  0.00    -0.359 N 
HETATM    2  C   UNL     1     -42.866 -51.277  12.955  1.00  0.00     0.235 C 
HETATM    3  O   UNL     1     -42.722 -50.238  13.602  1.00  0.00    -0.272 OA
HETATM    4  H   UNL     1     -44.248 -52.508  12.010  1.00  0.00     0.162 HD
ENDROOT
BRANCH   1   5
HETATM    5  C   UNL     1     -45.295 -51.030  13.174  1.00  0.00     0.127 C 
BRANCH   5   6
HETATM    6  C   UNL     1     -46.521 -51.870  13.548  1.00  0.00     0.062 C 
BRANCH   6   7
HETATM    7  C   UNL     1     -46.310 -52.649  14.817  1.00  0.00    -0.009 A 
HETATM    8  C   UNL     1     -45.868 -53.996  14.965  1.00  0.00     0.030 A 
HETATM    9  C   UNL     1     -45.493 -54.980  13.918  1.00  0.00     0.070 C 
HETATM   10  N   UNL     1     -45.805 -54.361  16.250  1.00  0.00    -0.303 N 
HETATM   11  N   UNL     1     -46.208 -53.277  16.930  1.00  0.00    -0.300 N 
ATOM     12  HN  UNL     1     -45.515 -55.262  16.628  1.00  0.00     0.186 HD
HETATM   13  C   UNL     1     -46.276 -53.348  18.370  1.00  0.00     0.177 C 
HETATM   14  C   UNL     1     -46.515 -52.214  16.121  1.00  0.00     0.032 A 
HETATM   15  C   UNL     1     -46.979 -50.896  16.632  1.00  0.00     0.070 C 
ENDBRANCH   6   7
ENDBRANCH   5   6
ENDBRANCH   1   5
BRANCH   2  16
HETATM   16  C   UNL     1     -41.681 -52.118  12.437  1.00  0.00     0.228 C 
BRANCH  16  17
HETATM   17  N   UNL     1     -41.095 -53.000  13.458  1.00  0.00    -0.343 N 
HETATM   18  C   UNL     1     -41.767 -54.257  13.779  1.00  0.00     0.126 C 
HETATM   19  C   UNL     1     -41.502 -54.674  15.217  1.00  0.00     0.020 C 
HETATM   20  C   UNL     1     -40.003 -54.807  15.430  1.00  0.00     0.011 C 
HETATM   21  C   UNL     1     -39.280 -53.529  15.037  1.00  0.00     0.103 C 
HETATM   22  C   UNL     1     -39.736 -52.896  13.731  1.00  0.00     0.220 C 
HETATM   23  O   UNL     1     -38.966 -52.210  13.061  1.00  0.00    -0.273 OA
ENDBRANCH  16  17
ENDBRANCH   2  16
TORSDOF 5
ENDMDL
