MODEL 1
REMARK VINA RESULT:      -5.6      0.000      0.000
REMARK  3 active torsions:
REMARK  status: ('A' for Active; 'I' for Inactive)
REMARK       I    between atoms: C_2  and  N_3 
REMARK       I    between atoms: C_2  and  N_7 
REMARK    1  A    between atoms: N_3  and  C_4 
REMARK    2  A    between atoms: N_7  and  C_8 
REMARK    3  A    between atoms: C_12  and  C_16 
ROOT
HETATM    1  C   UNL     1     -41.661 -48.305  11.721  1.00  0.00     0.067 A 
HETATM    2  C   UNL     1     -41.317 -49.438  12.431  1.00  0.00     0.120 A 
HETATM    3  N   UNL     1     -40.040 -49.838  12.642  1.00  0.00    -0.353 N 
ATOM      4  HN  UNL     1     -39.833 -50.682  13.176  1.00  0.00     0.166 HD
HETATM    5  C   UNL     1     -39.054 -49.082  12.122  1.00  0.00     0.085 A 
HETATM    6  N   UNL     1     -39.288 -47.935  11.451  1.00  0.00    -0.353 N 
ATOM      7  HN  UNL     1     -38.523 -47.360  11.096  1.00  0.00     0.166 HD
HETATM    8  C   UNL     1     -40.578 -47.580  11.271  1.00  0.00     0.120 A 
ENDROOT
BRANCH   1   9
HETATM    9  N   UNL     1     -42.972 -47.870  11.432  1.00  0.00    -0.306 N 
HETATM   10  C   UNL     1     -43.520 -47.734  10.174  1.00  0.00     0.321 C 
HETATM   11  O   UNL     1     -42.947 -47.962   9.117  1.00  0.00    -0.247 OA
HETATM   12  N   UNL     1     -44.826 -47.275  10.233  1.00  0.00    -0.338 N 
HETATM   13  H   UNL     1     -45.341 -47.449  11.084  1.00  0.00     0.164 HD
HETATM   14  H   UNL     1     -43.518 -47.511  12.201  1.00  0.00     0.171 HD
BRANCH  12  15
HETATM   15  C   UNL     1     -45.596 -47.112   9.035  1.00  0.00     0.086 A 
HETATM   16  C   UNL     1     -47.099 -47.148   9.080  1.00  0.00     0.027 A 
HETATM   17  C   UNL     1     -46.343 -48.269   8.430  1.00  0.00     0.027 A 
ENDBRANCH  12  15
ENDBRANCH   1   9
BRANCH   5  18
HETATM   18  C   UNL     1     -37.627 -49.554  12.264  1.00  0.00     0.053 A 
HETATM   19  C   UNL     1     -37.051 -50.511  11.241  1.00  0.00     0.013 A 
HETATM   20  C   UNL     1     -37.335 -50.994  12.631  1.00  0.00     0.013 A 
ENDBRANCH   5  18
TORSDOF 3
ENDMDL
MODEL 2
REMARK VINA RESULT:      -5.5      2.803      3.798
REMARK  3 active torsions:
REMARK  status: ('A' for Active; 'I' for Inactive)
REMARK       I    between atoms: C_2  and  N_3 
REMARK       I    between atoms: C_2  and  N_7 
REMARK    1  A    between atoms: N_3  and  C_4 
REMARK    2  A    between atoms: N_7  and  C_8 
REMARK    3  A    between atoms: C_12  and  C_16 
ROOT
HETATM    1  C   UNL     1     -40.302 -50.778  11.729  1.00  0.00     0.067 A 
HETATM    2  C   UNL     1     -39.151 -50.654  12.482  1.00  0.00     0.120 A 
HETATM    3  N   UNL     1     -38.797 -51.510  13.469  1.00  0.00    -0.353 N 
ATOM      4  HN  UNL     1     -37.935 -51.380  13.998  1.00  0.00     0.166 HD
HETATM    5  C   UNL     1     -39.626 -52.541  13.730  1.00  0.00     0.085 A 
HETATM    6  N   UNL     1     -40.750 -52.773  13.021  1.00  0.00    -0.353 N 
ATOM      7  HN  UNL     1     -41.344 -53.579  13.214  1.00  0.00     0.166 HD
HETATM    8  C   UNL     1     -41.055 -51.890  12.046  1.00  0.00     0.120 A 
ENDROOT
BRANCH   1   9
HETATM    9  N   UNL     1     -40.741 -49.891  10.724  1.00  0.00    -0.306 N 
HETATM   10  C   UNL     1     -41.647 -48.865  10.889  1.00  0.00     0.321 C 
HETATM   11  O   UNL     1     -42.216 -48.577  11.934  1.00  0.00    -0.247 OA
HETATM   12  N   UNL     1     -41.872 -48.185   9.703  1.00  0.00    -0.338 N 
HETATM   13  H   UNL     1     -41.145 -48.222   9.003  1.00  0.00     0.164 HD
HETATM   14  H   UNL     1     -40.462 -50.096   9.776  1.00  0.00     0.171 HD
BRANCH  12  15
HETATM   15  C   UNL     1     -42.745 -47.050   9.668  1.00  0.00     0.086 A 
HETATM   16  C   UNL     1     -44.227 -47.228   9.487  1.00  0.00     0.027 A 
HETATM   17  C   UNL     1     -43.407 -46.621   8.387  1.00  0.00     0.027 A 
ENDBRANCH  12  15
ENDBRANCH   1   9
BRANCH   5  18
HETATM   18  C   UNL     1     -39.301 -53.457  14.885  1.00  0.00     0.053 A 
HETATM   19  C   UNL     1     -38.952 -54.906  14.614  1.00  0.00     0.013 A 
HETATM   20  C   UNL     1     -40.257 -54.566  15.268  1.00  0.00     0.013 A 
ENDBRANCH   5  18
TORSDOF 3
ENDMDL
MODEL 3
REMARK VINA RESULT:      -5.4      2.123      7.196
REMARK  3 active torsions:
REMARK  status: ('A' for Active; 'I' for Inactive)
REMARK       I    between atoms: C_2  and  N_3 
REMARK       I    between atoms: C_2  and  N_7 
REMARK    1  A    between atoms: N_3  and  C_4 
REMARK    2  A    between atoms: N_7  and  C_8 
REMARK    3  A    between atoms: C_12  and  C_16 
ROOT
HETATM    1  C   UNL     1     -42.268 -47.002  11.760  1.00  0.00     0.067 A 
HETATM    2  C   UNL     1     -42.580 -45.993  10.872  1.00  0.00     0.120 A 
HETATM    3  N   UNL     1     -43.566 -46.079   9.947  1.00  0.00    -0.353 N 
ATOM      4  HN  UNL     1     -43.764 -45.306   9.312  1.00  0.00     0.166 HD
HETATM    5  C   UNL     1     -44.277 -47.223   9.896  1.00  0.00     0.085 A 
HETATM    6  N   UNL     1     -44.076 -48.248  10.750  1.00  0.00    -0.353 N 
ATOM      7  HN  UNL     1     -44.649 -49.091  10.714  1.00  0.00     0.166 HD
HETATM    8  C   UNL     1     -43.082 -48.109  11.653  1.00  0.00     0.120 A 
ENDROOT
BRANCH   1   9
HETATM    9  N   UNL     1     -41.223 -46.983  12.709  1.00  0.00    -0.306 N 
HETATM   10  C   UNL     1     -40.006 -47.620  12.586  1.00  0.00     0.321 C 
HETATM   11  O   UNL     1     -39.653 -48.307  11.637  1.00  0.00    -0.247 OA
HETATM   12  N   UNL     1     -39.206 -47.411  13.697  1.00  0.00    -0.338 N 
HETATM   13  H   UNL     1     -39.384 -46.585  14.249  1.00  0.00     0.164 HD
HETATM   14  H   UNL     1     -41.425 -46.569  13.607  1.00  0.00     0.171 HD
BRANCH  12  15
HETATM   15  C   UNL     1     -37.878 -47.947  13.750  1.00  0.00     0.086 A 
HETATM   16  C   UNL     1     -37.593 -49.218  14.501  1.00  0.00     0.027 A 
HETATM   17  C   UNL     1     -37.076 -47.909  15.022  1.00  0.00     0.027 A 
ENDBRANCH  12  15
ENDBRANCH   1   9
BRANCH   5  18
HETATM   18  C   UNL     1     -45.319 -47.380   8.816  1.00  0.00     0.053 A 
HETATM   19  C   UNL     1     -46.740 -46.924   9.076  1.00  0.00     0.013 A 
HETATM   20  C   UNL     1     -46.437 -48.388   8.977  1.00  0.00     0.013 A 
ENDBRANCH   5  18
TORSDOF 3
ENDMDL
MODEL 4
REMARK VINA RESULT:      -5.4      3.168      5.322
REMARK  3 active torsions:
REMARK  status: ('A' for Active; 'I' for Inactive)
REMARK       I    between atoms: C_2  and  N_3 
REMARK       I    between atoms: C_2  and  N_7 
REMARK    1  A    between atoms: N_3  and  C_4 
REMARK    2  A    between atoms: N_7  and  C_8 
REMARK    3  A    between atoms: C_12  and  C_16 
ROOT
HETATM    1  C   UNL     1     -41.145 -49.047  11.099  1.00  0.00     0.067 A 
HETATM    2  C   UNL     1     -41.806 -48.046  10.417  1.00  0.00     0.120 A 
HETATM    3  N   UNL     1     -41.341 -46.780  10.294  1.00  0.00    -0.353 N 
ATOM      4  HN  UNL     1     -41.863 -46.073   9.776  1.00  0.00     0.166 HD
HETATM    5  C   UNL     1     -40.163 -46.487  10.880  1.00  0.00     0.085 A 
HETATM    6  N   UNL     1     -39.422 -47.407  11.531  1.00  0.00    -0.353 N 
ATOM      7  HN  UNL     1     -38.516 -47.170  11.937  1.00  0.00     0.166 HD
HETATM    8  C   UNL     1     -39.930 -48.654  11.622  1.00  0.00     0.120 A 
ENDROOT
BRANCH   1   9
HETATM    9  N   UNL     1     -41.605 -50.366  11.298  1.00  0.00    -0.306 N 
HETATM   10  C   UNL     1     -42.347 -50.811  12.371  1.00  0.00     0.321 C 
HETATM   11  O   UNL     1     -42.710 -50.129  13.320  1.00  0.00    -0.247 OA
HETATM   12  N   UNL     1     -42.631 -52.163  12.271  1.00  0.00    -0.338 N 
HETATM   13  H   UNL     1     -42.630 -52.570  11.346  1.00  0.00     0.164 HD
HETATM   14  H   UNL     1     -41.263 -51.072  10.664  1.00  0.00     0.171 HD
BRANCH  12  15
HETATM   15  C   UNL     1     -43.436 -52.815  13.261  1.00  0.00     0.086 A 
HETATM   16  C   UNL     1     -43.024 -54.145  13.830  1.00  0.00     0.027 A 
HETATM   17  C   UNL     1     -44.221 -54.055  12.929  1.00  0.00     0.027 A 
ENDBRANCH  12  15
ENDBRANCH   1   9
BRANCH   5  18
HETATM   18  C   UNL     1     -39.667 -45.062  10.836  1.00  0.00     0.053 A 
HETATM   19  C   UNL     1     -39.681 -44.227  12.099  1.00  0.00     0.013 A 
HETATM   20  C   UNL     1     -40.640 -43.913  10.992  1.00  0.00     0.013 A 
ENDBRANCH   5  18
TORSDOF 3
ENDMDL
MODEL 5
REMARK VINA RESULT:      -5.2      2.927      6.983
REMARK  3 active torsions:
REMARK  status: ('A' for Active; 'I' for Inactive)
REMARK       I    between atoms: C_2  and  N_3 
REMARK       I    between atoms: C_2  and  N_7 
REMARK    1  A    between atoms: N_3  and  C_4 
REMARK    2  A    between atoms: N_7  and  C_8 
REMARK    3  A    between atoms: C_12  and  C_16 
ROOT
HETATM    1  C   UNL     1     -41.289 -49.855  12.044  1.00  0.00     0.067 A 
HETATM    2  C   UNL     1     -42.544 -49.409  12.404  1.00  0.00     0.120 A 
HETATM    3  N   UNL     1     -43.273 -48.531  11.673  1.00  0.00    -0.353 N 
ATOM      4  HN  UNL     1     -44.199 -48.231  11.978  1.00  0.00     0.166 HD
HETATM    5  C   UNL     1     -42.730 -48.068  10.530  1.00  0.00     0.085 A 
HETATM    6  N   UNL     1     -41.530 -48.478  10.071  1.00  0.00    -0.353 N 
ATOM      7  HN  UNL     1     -41.154 -48.140   9.185  1.00  0.00     0.166 HD
HETATM    8  C   UNL     1     -40.846 -49.356  10.837  1.00  0.00     0.120 A 
ENDROOT
BRANCH   1   9
HETATM    9  N   UNL     1     -40.470 -50.730  12.789  1.00  0.00    -0.306 N 
HETATM   10  C   UNL     1     -40.645 -52.091  12.917  1.00  0.00     0.321 C 
HETATM   11  O   UNL     1     -41.546 -52.746  12.410  1.00  0.00    -0.247 OA
HETATM   12  N   UNL     1     -39.673 -52.658  13.726  1.00  0.00    -0.338 N 
HETATM   13  H   UNL     1     -38.795 -52.166  13.809  1.00  0.00     0.164 HD
HETATM   14  H   UNL     1     -39.765 -50.309  13.377  1.00  0.00     0.171 HD
BRANCH  12  15
HETATM   15  C   UNL     1     -39.644 -54.073  13.949  1.00  0.00     0.086 A 
HETATM   16  C   UNL     1     -40.375 -54.680  15.115  1.00  0.00     0.027 A 
HETATM   17  C   UNL     1     -38.874 -54.661  15.099  1.00  0.00     0.027 A 
ENDBRANCH  12  15
ENDBRANCH   1   9
BRANCH   5  18
HETATM   18  C   UNL     1     -43.481 -47.020   9.744  1.00  0.00     0.053 A 
HETATM   19  C   UNL     1     -44.730 -47.411   8.981  1.00  0.00     0.013 A 
HETATM   20  C   UNL     1     -43.481 -47.058   8.231  1.00  0.00     0.013 A 
ENDBRANCH   5  18
TORSDOF 3
ENDMDL
MODEL 6
REMARK VINA RESULT:      -5.1      4.049      7.358
REMARK  3 active torsions:
REMARK  status: ('A' for Active; 'I' for Inactive)
REMARK       I    between atoms: C_2  and  N_3 
REMARK       I    between atoms: C_2  and  N_7 
REMARK    1  A    between atoms: N_3  and  C_4 
REMARK    2  A    between atoms: N_7  and  C_8 
REMARK    3  A    between atoms: C_12  and  C_16 
ROOT
HETATM    1  C   UNL     1     -40.884 -45.265  10.701  1.00  0.00     0.067 A 
HETATM    2  C   UNL     1     -42.244 -45.069  10.832  1.00  0.00     0.120 A 
HETATM    3  N   UNL     1     -42.819 -43.855  11.006  1.00  0.00    -0.353 N 
ATOM      4  HN  UNL     1     -43.831 -43.758  11.095  1.00  0.00     0.166 HD
HETATM    5  C   UNL     1     -42.008 -42.780  11.057  1.00  0.00     0.085 A 
HETATM    6  N   UNL     1     -40.671 -42.865  10.895  1.00  0.00    -0.353 N 
ATOM      7  HN  UNL     1     -40.081 -42.033  10.903  1.00  0.00     0.166 HD
HETATM    8  C   UNL     1     -40.150 -44.098  10.722  1.00  0.00     0.120 A 
ENDROOT
BRANCH   1   9
HETATM    9  N   UNL     1     -40.230 -46.508  10.566  1.00  0.00    -0.306 N 
HETATM   10  C   UNL     1     -39.908 -47.369  11.593  1.00  0.00     0.321 C 
HETATM   11  O   UNL     1     -40.133 -47.178  12.781  1.00  0.00    -0.247 OA
HETATM   12  N   UNL     1     -39.261 -48.502  11.127  1.00  0.00    -0.338 N 
HETATM   13  H   UNL     1     -39.424 -48.767  10.166  1.00  0.00     0.164 HD
HETATM   14  H   UNL     1     -39.858 -46.735   9.655  1.00  0.00     0.171 HD
BRANCH  12  15
HETATM   15  C   UNL     1     -38.883 -49.549  12.029  1.00  0.00     0.086 A 
HETATM   16  C   UNL     1     -37.686 -49.393  12.926  1.00  0.00     0.027 A 
HETATM   17  C   UNL     1     -37.646 -50.371  11.789  1.00  0.00     0.027 A 
ENDBRANCH  12  15
ENDBRANCH   1   9
BRANCH   5  18
HETATM   18  C   UNL     1     -42.615 -41.428  11.341  1.00  0.00     0.053 A 
HETATM   19  C   UNL     1     -42.783 -40.971  12.775  1.00  0.00     0.013 A 
HETATM   20  C   UNL     1     -43.991 -41.327  11.964  1.00  0.00     0.013 A 
ENDBRANCH   5  18
TORSDOF 3
ENDMDL
MODEL 7
REMARK VINA RESULT:      -4.9      3.686      5.022
REMARK  3 active torsions:
REMARK  status: ('A' for Active; 'I' for Inactive)
REMARK       I    between atoms: C_2  and  N_3 
REMARK       I    between atoms: C_2  and  N_7 
REMARK    1  A    between atoms: N_3  and  C_4 
REMARK    2  A    between atoms: N_7  and  C_8 
REMARK    3  A    between atoms: C_12  and  C_16 
ROOT
HETATM    1  C   UNL     1     -39.967 -50.421  11.949  1.00  0.00     0.067 A 
HETATM    2  C   UNL     1     -41.054 -51.244  11.739  1.00  0.00     0.120 A 
HETATM    3  N   UNL     1     -41.233 -52.434  12.362  1.00  0.00    -0.353 N 
ATOM      4  HN  UNL     1     -42.055 -53.008  12.177  1.00  0.00     0.166 HD
HETATM    5  C   UNL     1     -40.286 -52.831  13.234  1.00  0.00     0.085 A 
HETATM    6  N   UNL     1     -39.210 -52.077  13.540  1.00  0.00    -0.353 N 
ATOM      7  HN  UNL     1     -38.524 -52.383  14.229  1.00  0.00     0.166 HD
HETATM    8  C   UNL     1     -39.081 -50.899  12.892  1.00  0.00     0.120 A 
ENDROOT
BRANCH   1   9
HETATM    9  N   UNL     1     -39.707 -49.199  11.293  1.00  0.00    -0.306 N 
HETATM   10  C   UNL     1     -40.341 -47.999  11.538  1.00  0.00     0.321 C 
HETATM   11  O   UNL     1     -41.232 -47.816  12.357  1.00  0.00    -0.247 OA
HETATM   12  N   UNL     1     -39.861 -46.991  10.718  1.00  0.00    -0.338 N 
HETATM   13  H   UNL     1     -38.928 -47.099  10.347  1.00  0.00     0.164 HD
HETATM   14  H   UNL     1     -39.092 -49.227  10.494  1.00  0.00     0.171 HD
BRANCH  12  15
HETATM   15  C   UNL     1     -40.353 -45.651  10.845  1.00  0.00     0.086 A 
HETATM   16  C   UNL     1     -39.708 -44.523  10.088  1.00  0.00     0.027 A 
HETATM   17  C   UNL     1     -39.563 -44.602  11.580  1.00  0.00     0.027 A 
ENDBRANCH  12  15
ENDBRANCH   1   9
BRANCH   5  18
HETATM   18  C   UNL     1     -40.416 -54.193  13.873  1.00  0.00     0.053 A 
HETATM   19  C   UNL     1     -41.055 -54.319  15.240  1.00  0.00     0.013 A 
HETATM   20  C   UNL     1     -39.582 -54.547  15.086  1.00  0.00     0.013 A 
ENDBRANCH   5  18
TORSDOF 3
ENDMDL
MODEL 8
REMARK VINA RESULT:      -4.9      4.986      6.492
REMARK  3 active torsions:
REMARK  status: ('A' for Active; 'I' for Inactive)
REMARK       I    between atoms: C_2  and  N_3 
REMARK       I    between atoms: C_2  and  N_7 
REMARK    1  A    between atoms: N_3  and  C_4 
REMARK    2  A    between atoms: N_7  and  C_8 
REMARK    3  A    between atoms: C_12  and  C_16 
ROOT
HETATM    1  C   UNL     1     -42.179 -43.937  11.383  1.00  0.00     0.067 A 
HETATM    2  C   UNL     1     -40.850 -43.684  11.112  1.00  0.00     0.120 A 
HETATM    3  N   UNL     1     -40.233 -42.510  11.387  1.00  0.00    -0.353 N 
ATOM      4  HN  UNL     1     -39.246 -42.369  11.171  1.00  0.00     0.166 HD
HETATM    5  C   UNL     1     -40.968 -41.535  11.956  1.00  0.00     0.085 A 
HETATM    6  N   UNL     1     -42.263 -41.701  12.299  1.00  0.00    -0.353 N 
ATOM      7  HN  UNL     1     -42.790 -40.960  12.760  1.00  0.00     0.166 HD
HETATM    8  C   UNL     1     -42.829 -42.891  12.004  1.00  0.00     0.120 A 
ENDROOT
BRANCH   1   9
HETATM    9  N   UNL     1     -42.882 -45.121  11.074  1.00  0.00    -0.306 N 
HETATM   10  C   UNL     1     -43.694 -45.318   9.976  1.00  0.00     0.321 C 
HETATM   11  O   UNL     1     -43.934 -44.489   9.109  1.00  0.00    -0.247 OA
HETATM   12  N   UNL     1     -44.245 -46.589   9.970  1.00  0.00    -0.338 N 
HETATM   13  H   UNL     1     -43.751 -47.311  10.475  1.00  0.00     0.164 HD
HETATM   14  H   UNL     1     -42.891 -45.846  11.775  1.00  0.00     0.171 HD
BRANCH  12  15
HETATM   15  C   UNL     1     -45.081 -47.015   8.888  1.00  0.00     0.086 A 
HETATM   16  C   UNL     1     -46.570 -46.802   8.939  1.00  0.00     0.027 A 
HETATM   17  C   UNL     1     -46.008 -48.190   9.040  1.00  0.00     0.027 A 
ENDBRANCH  12  15
ENDBRANCH   1   9
BRANCH   5  18
HETATM   18  C   UNL     1     -40.329 -40.188  12.189  1.00  0.00     0.053 A 
HETATM   19  C   UNL     1     -40.799 -39.328  13.344  1.00  0.00     0.013 A 
HETATM   20  C   UNL     1     -41.115 -38.919  11.938  1.00  0.00     0.013 A 
ENDBRANCH   5  18
TORSDOF 3
ENDMDL
MODEL 9
REMARK VINA RESULT:      -4.9      3.578      5.509
REMARK  3 active torsions:
REMARK  status: ('A' for Active; 'I' for Inactive)
REMARK       I    between atoms: C_2  and  N_3 
REMARK       I    between atoms: C_2  and  N_7 
REMARK    1  A    between atoms: N_3  and  C_4 
REMARK    2  A    between atoms: N_7  and  C_8 
REMARK    3  A    between atoms: C_12  and  C_16 
ROOT
HETATM    1  C   UNL     1     -41.320 -50.611  12.347  1.00  0.00     0.067 A 
HETATM    2  C   UNL     1     -41.241 -51.791  11.636  1.00  0.00     0.120 A 
HETATM    3  N   UNL     1     -41.873 -52.934  11.995  1.00  0.00    -0.353 N 
ATOM      4  HN  UNL     1     -41.788 -53.783  11.436  1.00  0.00     0.166 HD
HETATM    5  C   UNL     1     -42.618 -52.910  13.117  1.00  0.00     0.085 A 
HETATM    6  N   UNL     1     -42.793 -51.794  13.856  1.00  0.00    -0.353 N 
ATOM      7  HN  UNL     1     -43.390 -51.792  14.683  1.00  0.00     0.166 HD
HETATM    8  C   UNL     1     -42.142 -50.682  13.452  1.00  0.00     0.120 A 
ENDROOT
BRANCH   1   9
HETATM    9  N   UNL     1     -40.646 -49.409  12.045  1.00  0.00    -0.306 N 
HETATM   10  C   UNL     1     -41.162 -48.350  11.328  1.00  0.00     0.321 C 
HETATM   11  O   UNL     1     -42.281 -48.298  10.837  1.00  0.00    -0.247 OA
HETATM   12  N   UNL     1     -40.240 -47.323  11.199  1.00  0.00    -0.338 N 
HETATM   13  H   UNL     1     -39.512 -47.264  11.896  1.00  0.00     0.164 HD
HETATM   14  H   UNL     1     -39.662 -49.365  12.267  1.00  0.00     0.171 HD
BRANCH  12  15
HETATM   15  C   UNL     1     -40.594 -46.106  10.530  1.00  0.00     0.086 A 
HETATM   16  C   UNL     1     -39.534 -45.120  10.123  1.00  0.00     0.027 A 
HETATM   17  C   UNL     1     -40.489 -44.778  11.229  1.00  0.00     0.027 A 
ENDBRANCH  12  15
ENDBRANCH   1   9
BRANCH   5  18
HETATM   18  C   UNL     1     -43.259 -54.193  13.589  1.00  0.00     0.053 A 
HETATM   19  C   UNL     1     -44.724 -54.447  13.302  1.00  0.00     0.013 A 
HETATM   20  C   UNL     1     -44.281 -54.168  14.706  1.00  0.00     0.013 A 
ENDBRANCH   5  18
TORSDOF 3
ENDMDL
