MODEL 1
REMARK VINA RESULT:      -6.4      0.000      0.000
REMARK  5 active torsions:
REMARK  status: ('A' for Active; 'I' for Inactive)
REMARK    1  A    between atoms: C_4  and  C_5 
REMARK    2  A    between atoms: C_5  and  C_6 
REMARK       I    between atoms: C_6  and  N_8 
REMARK    3  A    between atoms: N_8  and  C_9 
REMARK    4  A    between atoms: C_10  and  C_11 
REMARK    5  A    between atoms: C_11  and  O_12 
ROOT
HETATM    1  C   UNL     1     -43.275 -53.699  12.989  1.00  0.00     0.223 C 
HETATM    2  O   UNL     1     -43.951 -54.219  12.105  1.00  0.00    -0.273 OA
HETATM    3  N   UNL     1     -43.824 -52.887  13.971  1.00  0.00    -0.355 N 
HETATM    4  H   UNL     1     -43.251 -52.765  14.798  1.00  0.00     0.162 HD
ENDROOT
BRANCH   3   5
HETATM    5  C   UNL     1     -45.264 -52.853  14.179  1.00  0.00     0.095 C 
HETATM    6  C   UNL     1     -46.005 -51.517  13.871  1.00  0.00     0.036 C 
HETATM    7  C   UNL     1     -46.953 -51.375  15.105  1.00  0.00    -0.006 C 
HETATM    8  C   UNL     1     -46.143 -50.823  16.283  1.00  0.00     0.005 C 
HETATM    9  C   UNL     1     -47.165 -52.821  15.564  1.00  0.00     0.012 C 
HETATM   10  C   UNL     1     -45.178 -51.976  16.586  1.00  0.00     0.007 C 
HETATM   11  C   UNL     1     -45.666 -53.109  15.652  1.00  0.00     0.009 C 
BRANCH   6  12
HETATM   12  C   UNL     1     -46.802 -51.557  12.563  1.00  0.00     0.171 C 
BRANCH  12  13
HETATM   13  O   UNL     1     -46.367 -52.640  11.746  1.00  0.00    -0.400 OA
HETATM   14  H   UNL     1     -46.346 -53.439  12.295  1.00  0.00     0.209 HD
ENDBRANCH  12  13
ENDBRANCH   6  12
ENDBRANCH   3   5
BRANCH   1  15
HETATM   15  C   UNL     1     -41.773 -53.906  13.070  1.00  0.00     0.161 C 
BRANCH  15  16
HETATM   16  C   UNL     1     -41.022 -52.708  12.582  1.00  0.00     0.036 A 
HETATM   17  C   UNL     1     -39.930 -52.046  13.197  1.00  0.00     0.053 A 
HETATM   18  C   UNL     1     -39.555 -51.058  12.315  1.00  0.00     0.024 A 
HETATM   19  C   UNL     1     -38.469 -50.054  12.362  1.00  0.00     0.070 C 
HETATM   20  N   UNL     1     -40.426 -51.158  11.266  1.00  0.00    -0.305 N 
HETATM   21  N   UNL     1     -41.325 -52.148  11.402  1.00  0.00    -0.304 N 
HETATM   22  H   UNL     1     -40.457 -50.592  10.425  1.00  0.00     0.186 HD
ATOM     23  HN  UNL     1     -42.068 -52.413  10.756  1.00  0.00     0.186 HD
ENDBRANCH  15  16
ENDBRANCH   1  15
TORSDOF 5
ENDMDL
MODEL 2
REMARK VINA RESULT:      -6.3      3.753      5.331
REMARK  5 active torsions:
REMARK  status: ('A' for Active; 'I' for Inactive)
REMARK    1  A    between atoms: C_4  and  C_5 
REMARK    2  A    between atoms: C_5  and  C_6 
REMARK       I    between atoms: C_6  and  N_8 
REMARK    3  A    between atoms: N_8  and  C_9 
REMARK    4  A    between atoms: C_10  and  C_11 
REMARK    5  A    between atoms: C_11  and  O_12 
ROOT
HETATM    1  C   UNL     1     -41.416 -49.364  11.476  1.00  0.00     0.223 C 
HETATM    2  O   UNL     1     -40.355 -49.966  11.619  1.00  0.00    -0.273 OA
HETATM    3  N   UNL     1     -42.620 -49.843  11.969  1.00  0.00    -0.355 N 
HETATM    4  H   UNL     1     -43.354 -49.150  12.063  1.00  0.00     0.162 HD
ENDROOT
BRANCH   3   5
HETATM    5  C   UNL     1     -42.640 -50.930  12.937  1.00  0.00     0.095 C 
HETATM    6  C   UNL     1     -42.671 -52.387  12.385  1.00  0.00     0.036 C 
HETATM    7  C   UNL     1     -43.753 -53.059  13.289  1.00  0.00    -0.006 C 
HETATM    8  C   UNL     1     -45.140 -52.674  12.762  1.00  0.00     0.005 C 
HETATM    9  C   UNL     1     -43.706 -52.234  14.579  1.00  0.00     0.012 C 
HETATM   10  C   UNL     1     -45.190 -51.167  13.041  1.00  0.00     0.007 C 
HETATM   11  C   UNL     1     -43.894 -50.907  13.845  1.00  0.00     0.009 C 
BRANCH   6  12
HETATM   12  C   UNL     1     -41.324 -53.107  12.506  1.00  0.00     0.171 C 
BRANCH  12  13
HETATM   13  O   UNL     1     -40.636 -53.093  11.258  1.00  0.00    -0.400 OA
HETATM   14  H   UNL     1     -41.061 -52.431  10.690  1.00  0.00     0.209 HD
ENDBRANCH  12  13
ENDBRANCH   6  12
ENDBRANCH   3   5
BRANCH   1  15
HETATM   15  C   UNL     1     -41.489 -48.039  10.736  1.00  0.00     0.161 C 
BRANCH  15  16
HETATM   16  C   UNL     1     -42.761 -47.908   9.960  1.00  0.00     0.036 A 
HETATM   17  C   UNL     1     -44.014 -47.417  10.405  1.00  0.00     0.053 A 
HETATM   18  C   UNL     1     -44.828 -47.430   9.297  1.00  0.00     0.024 A 
HETATM   19  C   UNL     1     -46.235 -47.012   9.100  1.00  0.00     0.070 C 
HETATM   20  N   UNL     1     -44.058 -47.933   8.285  1.00  0.00    -0.305 N 
HETATM   21  N   UNL     1     -42.802 -48.231   8.660  1.00  0.00    -0.304 N 
HETATM   22  H   UNL     1     -44.321 -48.088   7.318  1.00  0.00     0.186 HD
ATOM     23  HN  UNL     1     -42.051 -48.615   8.086  1.00  0.00     0.186 HD
ENDBRANCH  15  16
ENDBRANCH   1  15
TORSDOF 5
ENDMDL
MODEL 3
REMARK VINA RESULT:      -6.0      1.580      2.158
REMARK  5 active torsions:
REMARK  status: ('A' for Active; 'I' for Inactive)
REMARK    1  A    between atoms: C_4  and  C_5 
REMARK    2  A    between atoms: C_5  and  C_6 
REMARK       I    between atoms: C_6  and  N_8 
REMARK    3  A    between atoms: N_8  and  C_9 
REMARK    4  A    between atoms: C_10  and  C_11 
REMARK    5  A    between atoms: C_11  and  O_12 
ROOT
HETATM    1  C   UNL     1     -42.141 -53.900  14.166  1.00  0.00     0.223 C 
HETATM    2  O   UNL     1     -41.979 -54.120  15.363  1.00  0.00    -0.273 OA
HETATM    3  N   UNL     1     -43.377 -53.583  13.623  1.00  0.00    -0.355 N 
HETATM    4  H   UNL     1     -43.347 -53.136  12.714  1.00  0.00     0.162 HD
ENDROOT
BRANCH   3   5
HETATM    5  C   UNL     1     -44.485 -53.200  14.487  1.00  0.00     0.095 C 
HETATM    6  C   UNL     1     -45.924 -53.575  14.022  1.00  0.00     0.036 C 
HETATM    7  C   UNL     1     -46.716 -52.259  14.307  1.00  0.00    -0.006 C 
HETATM    8  C   UNL     1     -46.448 -51.269  13.169  1.00  0.00     0.005 C 
HETATM    9  C   UNL     1     -45.922 -51.602  15.442  1.00  0.00     0.012 C 
HETATM   10  C   UNL     1     -44.959 -50.950  13.355  1.00  0.00     0.007 C 
HETATM   11  C   UNL     1     -44.600 -51.668  14.677  1.00  0.00     0.009 C 
BRANCH   6  12
HETATM   12  C   UNL     1     -46.520 -54.758  14.793  1.00  0.00     0.171 C 
BRANCH  12  13
HETATM   13  O   UNL     1     -46.421 -55.954  14.027  1.00  0.00    -0.400 OA
HETATM   14  H   UNL     1     -47.245 -56.454  14.145  1.00  0.00     0.209 HD
ENDBRANCH  12  13
ENDBRANCH   6  12
ENDBRANCH   3   5
BRANCH   1  15
HETATM   15  C   UNL     1     -40.987 -53.966  13.180  1.00  0.00     0.161 C 
BRANCH  15  16
HETATM   16  C   UNL     1     -40.753 -52.647  12.514  1.00  0.00     0.036 A 
HETATM   17  C   UNL     1     -40.027 -51.533  13.003  1.00  0.00     0.053 A 
HETATM   18  C   UNL     1     -40.043 -50.607  11.986  1.00  0.00     0.024 A 
HETATM   19  C   UNL     1     -39.440 -49.261  11.866  1.00  0.00     0.070 C 
HETATM   20  N   UNL     1     -40.774 -51.181  10.984  1.00  0.00    -0.305 N 
HETATM   21  N   UNL     1     -41.217 -52.417  11.277  1.00  0.00    -0.304 N 
HETATM   22  H   UNL     1     -40.999 -50.794  10.074  1.00  0.00     0.186 HD
ATOM     23  HN  UNL     1     -41.777 -53.037  10.692  1.00  0.00     0.186 HD
ENDBRANCH  15  16
ENDBRANCH   1  15
TORSDOF 5
ENDMDL
MODEL 4
REMARK VINA RESULT:      -6.0      3.513      4.685
REMARK  5 active torsions:
REMARK  status: ('A' for Active; 'I' for Inactive)
REMARK    1  A    between atoms: C_4  and  C_5 
REMARK    2  A    between atoms: C_5  and  C_6 
REMARK       I    between atoms: C_6  and  N_8 
REMARK    3  A    between atoms: N_8  and  C_9 
REMARK    4  A    between atoms: C_10  and  C_11 
REMARK    5  A    between atoms: C_11  and  O_12 
ROOT
HETATM    1  C   UNL     1     -42.147 -50.206  13.203  1.00  0.00     0.223 C 
HETATM    2  O   UNL     1     -40.957 -50.454  13.024  1.00  0.00    -0.273 OA
HETATM    3  N   UNL     1     -43.054 -51.162  13.634  1.00  0.00    -0.355 N 
HETATM    4  H   UNL     1     -43.912 -50.795  14.029  1.00  0.00     0.162 HD
ENDROOT
BRANCH   3   5
HETATM    5  C   UNL     1     -42.587 -52.426  14.183  1.00  0.00     0.095 C 
HETATM    6  C   UNL     1     -42.456 -53.633  13.205  1.00  0.00     0.036 C 
HETATM    7  C   UNL     1     -43.093 -54.796  14.030  1.00  0.00    -0.006 C 
HETATM    8  C   UNL     1     -44.618 -54.692  13.928  1.00  0.00     0.005 C 
HETATM    9  C   UNL     1     -42.880 -54.364  15.485  1.00  0.00     0.012 C 
HETATM   10  C   UNL     1     -44.909 -53.389  14.684  1.00  0.00     0.007 C 
HETATM   11  C   UNL     1     -43.531 -52.998  15.269  1.00  0.00     0.009 C 
BRANCH   6  12
HETATM   12  C   UNL     1     -41.005 -53.951  12.829  1.00  0.00     0.171 C 
BRANCH  12  13
HETATM   13  O   UNL     1     -40.650 -53.302  11.612  1.00  0.00    -0.400 OA
HETATM   14  H   UNL     1     -41.406 -53.369  11.006  1.00  0.00     0.209 HD
ENDBRANCH  12  13
ENDBRANCH   6  12
ENDBRANCH   3   5
BRANCH   1  15
HETATM   15  C   UNL     1     -42.718 -48.821  12.956  1.00  0.00     0.161 C 
BRANCH  15  16
HETATM   16  C   UNL     1     -42.690 -48.461  11.505  1.00  0.00     0.036 A 
HETATM   17  C   UNL     1     -43.562 -47.595  10.797  1.00  0.00     0.053 A 
HETATM   18  C   UNL     1     -43.066 -47.541   9.515  1.00  0.00     0.024 A 
HETATM   19  C   UNL     1     -43.507 -46.793   8.317  1.00  0.00     0.070 C 
HETATM   20  N   UNL     1     -41.977 -48.367   9.512  1.00  0.00    -0.305 N 
HETATM   21  N   UNL     1     -41.726 -48.937  10.703  1.00  0.00    -0.304 N 
HETATM   22  H   UNL     1     -41.356 -48.578   8.738  1.00  0.00     0.186 HD
ATOM     23  HN  UNL     1     -40.975 -49.584  10.943  1.00  0.00     0.186 HD
ENDBRANCH  15  16
ENDBRANCH   1  15
TORSDOF 5
ENDMDL
MODEL 5
REMARK VINA RESULT:      -6.0      2.300      2.943
REMARK  5 active torsions:
REMARK  status: ('A' for Active; 'I' for Inactive)
REMARK    1  A    between atoms: C_4  and  C_5 
REMARK    2  A    between atoms: C_5  and  C_6 
REMARK       I    between atoms: C_6  and  N_8 
REMARK    3  A    between atoms: N_8  and  C_9 
REMARK    4  A    between atoms: C_10  and  C_11 
REMARK    5  A    between atoms: C_11  and  O_12 
ROOT
HETATM    1  C   UNL     1     -41.624 -52.495  13.350  1.00  0.00     0.223 C 
HETATM    2  O   UNL     1     -41.303 -52.534  14.536  1.00  0.00    -0.273 OA
HETATM    3  N   UNL     1     -42.883 -52.867  12.904  1.00  0.00    -0.355 N 
HETATM    4  H   UNL     1     -43.134 -52.519  11.986  1.00  0.00     0.162 HD
ENDROOT
BRANCH   3   5
HETATM    5  C   UNL     1     -43.980 -53.033  13.846  1.00  0.00     0.095 C 
HETATM    6  C   UNL     1     -45.260 -53.766  13.341  1.00  0.00     0.036 C 
HETATM    7  C   UNL     1     -46.401 -52.857  13.899  1.00  0.00    -0.006 C 
HETATM    8  C   UNL     1     -46.556 -51.642  12.977  1.00  0.00     0.005 C 
HETATM    9  C   UNL     1     -45.767 -52.196  15.127  1.00  0.00     0.012 C 
HETATM   10  C   UNL     1     -45.235 -50.894  13.196  1.00  0.00     0.007 C 
HETATM   11  C   UNL     1     -44.560 -51.685  14.341  1.00  0.00     0.009 C 
BRANCH   6  12
HETATM   12  C   UNL     1     -45.384 -55.198  13.870  1.00  0.00     0.171 C 
BRANCH  12  13
HETATM   13  O   UNL     1     -46.696 -55.432  14.375  1.00  0.00    -0.400 OA
HETATM   14  H   UNL     1     -47.276 -55.628  13.622  1.00  0.00     0.209 HD
ENDBRANCH  12  13
ENDBRANCH   6  12
ENDBRANCH   3   5
BRANCH   1  15
HETATM   15  C   UNL     1     -40.653 -52.039  12.276  1.00  0.00     0.161 C 
BRANCH  15  16
HETATM   16  C   UNL     1     -41.039 -50.709  11.709  1.00  0.00     0.036 A 
HETATM   17  C   UNL     1     -41.897 -49.732  12.272  1.00  0.00     0.053 A 
HETATM   18  C   UNL     1     -41.861 -48.667  11.402  1.00  0.00     0.024 A 
HETATM   19  C   UNL     1     -42.513 -47.338  11.440  1.00  0.00     0.070 C 
HETATM   20  N   UNL     1     -41.033 -49.055  10.386  1.00  0.00    -0.305 N 
HETATM   21  N   UNL     1     -40.522 -50.288  10.546  1.00  0.00    -0.304 N 
HETATM   22  H   UNL     1     -40.766 -48.528   9.561  1.00  0.00     0.186 HD
ATOM     23  HN  UNL     1     -39.886 -50.789   9.926  1.00  0.00     0.186 HD
ENDBRANCH  15  16
ENDBRANCH   1  15
TORSDOF 5
ENDMDL
MODEL 6
REMARK VINA RESULT:      -5.9      1.874      2.165
REMARK  5 active torsions:
REMARK  status: ('A' for Active; 'I' for Inactive)
REMARK    1  A    between atoms: C_4  and  C_5 
REMARK    2  A    between atoms: C_5  and  C_6 
REMARK       I    between atoms: C_6  and  N_8 
REMARK    3  A    between atoms: N_8  and  C_9 
REMARK    4  A    between atoms: C_10  and  C_11 
REMARK    5  A    between atoms: C_11  and  O_12 
ROOT
HETATM    1  C   UNL     1     -43.009 -50.534  13.263  1.00  0.00     0.223 C 
HETATM    2  O   UNL     1     -42.745 -51.546  12.618  1.00  0.00    -0.273 OA
HETATM    3  N   UNL     1     -44.131 -50.435  14.074  1.00  0.00    -0.355 N 
HETATM    4  H   UNL     1     -44.093 -49.703  14.773  1.00  0.00     0.162 HD
ENDROOT
BRANCH   3   5
HETATM    5  C   UNL     1     -44.886 -51.626  14.435  1.00  0.00     0.095 C 
HETATM    6  C   UNL     1     -46.378 -51.695  13.989  1.00  0.00     0.036 C 
HETATM    7  C   UNL     1     -47.083 -52.222  15.280  1.00  0.00    -0.006 C 
HETATM    8  C   UNL     1     -47.274 -51.050  16.248  1.00  0.00     0.005 C 
HETATM    9  C   UNL     1     -45.978 -53.002  16.000  1.00  0.00     0.012 C 
HETATM   10  C   UNL     1     -45.831 -50.703  16.631  1.00  0.00     0.007 C 
HETATM   11  C   UNL     1     -45.002 -51.826  15.966  1.00  0.00     0.009 C 
BRANCH   6  12
HETATM   12  C   UNL     1     -46.612 -52.639  12.805  1.00  0.00     0.171 C 
BRANCH  12  13
HETATM   13  O   UNL     1     -45.466 -52.674  11.960  1.00  0.00    -0.400 OA
HETATM   14  H   UNL     1     -45.683 -53.214  11.183  1.00  0.00     0.209 HD
ENDBRANCH  12  13
ENDBRANCH   6  12
ENDBRANCH   3   5
BRANCH   1  15
HETATM   15  C   UNL     1     -42.121 -49.304  13.216  1.00  0.00     0.161 C 
BRANCH  15  16
HETATM   16  C   UNL     1     -40.948 -49.503  12.309  1.00  0.00     0.036 A 
HETATM   17  C   UNL     1     -39.570 -49.482  12.640  1.00  0.00     0.053 A 
HETATM   18  C   UNL     1     -38.908 -49.794  11.475  1.00  0.00     0.024 A 
HETATM   19  C   UNL     1     -37.469 -49.960  11.172  1.00  0.00     0.070 C 
HETATM   20  N   UNL     1     -39.885 -49.955  10.533  1.00  0.00    -0.305 N 
HETATM   21  N   UNL     1     -41.130 -49.784  11.011  1.00  0.00    -0.304 N 
HETATM   22  H   UNL     1     -39.775 -50.192   9.553  1.00  0.00     0.186 HD
ATOM     23  HN  UNL     1     -42.012 -49.853  10.503  1.00  0.00     0.186 HD
ENDBRANCH  15  16
ENDBRANCH   1  15
TORSDOF 5
ENDMDL
MODEL 7
REMARK VINA RESULT:      -5.8      3.821      5.072
REMARK  5 active torsions:
REMARK  status: ('A' for Active; 'I' for Inactive)
REMARK    1  A    between atoms: C_4  and  C_5 
REMARK    2  A    between atoms: C_5  and  C_6 
REMARK       I    between atoms: C_6  and  N_8 
REMARK    3  A    between atoms: N_8  and  C_9 
REMARK    4  A    between atoms: C_10  and  C_11 
REMARK    5  A    between atoms: C_11  and  O_12 
ROOT
HETATM    1  C   UNL     1     -42.487 -49.202  12.188  1.00  0.00     0.223 C 
HETATM    2  O   UNL     1     -41.278 -49.283  12.389  1.00  0.00    -0.273 OA
HETATM    3  N   UNL     1     -43.363 -50.241  12.468  1.00  0.00    -0.355 N 
HETATM    4  H   UNL     1     -44.337 -49.972  12.551  1.00  0.00     0.162 HD
ENDROOT
BRANCH   3   5
HETATM    5  C   UNL     1     -42.937 -51.363  13.292  1.00  0.00     0.095 C 
HETATM    6  C   UNL     1     -42.484 -52.663  12.560  1.00  0.00     0.036 C 
HETATM    7  C   UNL     1     -43.201 -53.774  13.391  1.00  0.00    -0.006 C 
HETATM    8  C   UNL     1     -44.663 -53.856  12.942  1.00  0.00     0.005 C 
HETATM    9  C   UNL     1     -43.369 -53.137  14.775  1.00  0.00     0.012 C 
HETATM   10  C   UNL     1     -45.226 -52.509  13.411  1.00  0.00     0.007 C 
HETATM   11  C   UNL     1     -44.059 -51.892  14.217  1.00  0.00     0.009 C 
BRANCH   6  12
HETATM   12  C   UNL     1     -40.965 -52.861  12.565  1.00  0.00     0.171 C 
BRANCH  12  13
HETATM   13  O   UNL     1     -40.513 -53.287  11.283  1.00  0.00    -0.400 OA
HETATM   14  H   UNL     1     -41.072 -52.862  10.612  1.00  0.00     0.209 HD
ENDBRANCH  12  13
ENDBRANCH   6  12
ENDBRANCH   3   5
BRANCH   1  15
HETATM   15  C   UNL     1     -43.117 -47.949  11.606  1.00  0.00     0.161 C 
BRANCH  15  16
HETATM   16  C   UNL     1     -42.082 -46.953  11.187  1.00  0.00     0.036 A 
HETATM   17  C   UNL     1     -41.934 -45.610  11.613  1.00  0.00     0.053 A 
HETATM   18  C   UNL     1     -40.792 -45.153  10.997  1.00  0.00     0.024 A 
HETATM   19  C   UNL     1     -40.090 -43.851  11.059  1.00  0.00     0.070 C 
HETATM   20  N   UNL     1     -40.344 -46.199  10.240  1.00  0.00    -0.305 N 
HETATM   21  N   UNL     1     -41.107 -47.302  10.336  1.00  0.00    -0.304 N 
HETATM   22  H   UNL     1     -39.523 -46.233   9.645  1.00  0.00     0.186 HD
ATOM     23  HN  UNL     1     -40.974 -48.199   9.869  1.00  0.00     0.186 HD
ENDBRANCH  15  16
ENDBRANCH   1  15
TORSDOF 5
ENDMDL
MODEL 8
REMARK VINA RESULT:      -5.7      1.948      2.404
REMARK  5 active torsions:
REMARK  status: ('A' for Active; 'I' for Inactive)
REMARK    1  A    between atoms: C_4  and  C_5 
REMARK    2  A    between atoms: C_5  and  C_6 
REMARK       I    between atoms: C_6  and  N_8 
REMARK    3  A    between atoms: N_8  and  C_9 
REMARK    4  A    between atoms: C_10  and  C_11 
REMARK    5  A    between atoms: C_11  and  O_12 
ROOT
HETATM    1  C   UNL     1     -42.535 -52.248  13.164  1.00  0.00     0.223 C 
HETATM    2  O   UNL     1     -42.891 -52.881  12.173  1.00  0.00    -0.273 OA
HETATM    3  N   UNL     1     -43.423 -51.830  14.143  1.00  0.00    -0.355 N 
HETATM    4  H   UNL     1     -43.001 -51.594  15.034  1.00  0.00     0.162 HD
ENDROOT
BRANCH   3   5
HETATM    5  C   UNL     1     -44.770 -52.379  14.199  1.00  0.00     0.095 C 
HETATM    6  C   UNL     1     -45.952 -51.421  13.860  1.00  0.00     0.036 C 
HETATM    7  C   UNL     1     -46.978 -51.752  14.991  1.00  0.00    -0.006 C 
HETATM    8  C   UNL     1     -46.556 -51.016  16.267  1.00  0.00     0.005 C 
HETATM    9  C   UNL     1     -46.636 -53.195  15.375  1.00  0.00     0.012 C 
HETATM   10  C   UNL     1     -45.241 -51.717  16.630  1.00  0.00     0.007 C 
HETATM   11  C   UNL     1     -45.160 -52.879  15.612  1.00  0.00     0.009 C 
BRANCH   6  12
HETATM   12  C   UNL     1     -46.555 -51.673  12.475  1.00  0.00     0.171 C 
BRANCH  12  13
HETATM   13  O   UNL     1     -45.979 -52.833  11.883  1.00  0.00    -0.400 OA
HETATM   14  H   UNL     1     -45.955 -53.532  12.556  1.00  0.00     0.209 HD
ENDBRANCH  12  13
ENDBRANCH   6  12
ENDBRANCH   3   5
BRANCH   1  15
HETATM   15  C   UNL     1     -41.081 -51.868  13.387  1.00  0.00     0.161 C 
BRANCH  15  16
HETATM   16  C   UNL     1     -40.254 -53.050  13.781  1.00  0.00     0.036 A 
HETATM   17  C   UNL     1     -39.674 -53.335  15.042  1.00  0.00     0.053 A 
HETATM   18  C   UNL     1     -39.084 -54.570  14.905  1.00  0.00     0.024 A 
HETATM   19  C   UNL     1     -38.349 -55.425  15.864  1.00  0.00     0.070 C 
HETATM   20  N   UNL     1     -39.310 -54.939  13.608  1.00  0.00    -0.305 N 
HETATM   21  N   UNL     1     -40.016 -54.037  12.905  1.00  0.00    -0.304 N 
HETATM   22  H   UNL     1     -39.023 -55.793  13.142  1.00  0.00     0.186 HD
ATOM     23  HN  UNL     1     -40.305 -54.090  11.928  1.00  0.00     0.186 HD
ENDBRANCH  15  16
ENDBRANCH   1  15
TORSDOF 5
ENDMDL
MODEL 9
REMARK VINA RESULT:      -5.5      3.018      6.706
REMARK  5 active torsions:
REMARK  status: ('A' for Active; 'I' for Inactive)
REMARK    1  A    between atoms: C_4  and  C_5 
REMARK    2  A    between atoms: C_5  and  C_6 
REMARK       I    between atoms: C_6  and  N_8 
REMARK    3  A    between atoms: N_8  and  C_9 
REMARK    4  A    between atoms: C_10  and  C_11 
REMARK    5  A    between atoms: C_11  and  O_12 
ROOT
HETATM    1  C   UNL     1     -40.168 -52.717  13.301  1.00  0.00     0.223 C 
HETATM    2  O   UNL     1     -40.265 -52.451  12.105  1.00  0.00    -0.273 OA
HETATM    3  N   UNL     1     -39.558 -51.866  14.210  1.00  0.00    -0.355 N 
HETATM    4  H   UNL     1     -39.796 -52.032  15.181  1.00  0.00     0.162 HD
ENDROOT
BRANCH   3   5
HETATM    5  C   UNL     1     -39.270 -50.486  13.849  1.00  0.00     0.095 C 
HETATM    6  C   UNL     1     -37.792 -50.123  13.512  1.00  0.00     0.036 C 
HETATM    7  C   UNL     1     -37.598 -48.782  14.289  1.00  0.00    -0.006 C 
HETATM    8  C   UNL     1     -37.336 -49.103  15.764  1.00  0.00     0.005 C 
HETATM    9  C   UNL     1     -39.016 -48.208  14.375  1.00  0.00     0.012 C 
HETATM   10  C   UNL     1     -38.677 -49.695  16.213  1.00  0.00     0.007 C 
HETATM   11  C   UNL     1     -39.593 -49.485  14.985  1.00  0.00     0.009 C 
BRANCH   6  12
HETATM   12  C   UNL     1     -37.543 -49.935  12.012  1.00  0.00     0.171 C 
BRANCH  12  13
HETATM   13  O   UNL     1     -37.825 -51.139  11.304  1.00  0.00    -0.400 OA
HETATM   14  H   UNL     1     -38.752 -51.107  11.018  1.00  0.00     0.209 HD
ENDBRANCH  12  13
ENDBRANCH   6  12
ENDBRANCH   3   5
BRANCH   1  15
HETATM   15  C   UNL     1     -40.711 -54.014  13.875  1.00  0.00     0.161 C 
BRANCH  15  16
HETATM   16  C   UNL     1     -42.170 -54.178  13.589  1.00  0.00     0.036 A 
HETATM   17  C   UNL     1     -43.190 -54.638  14.460  1.00  0.00     0.053 A 
HETATM   18  C   UNL     1     -44.360 -54.529  13.745  1.00  0.00     0.024 A 
HETATM   19  C   UNL     1     -45.767 -54.819  14.104  1.00  0.00     0.070 C 
HETATM   20  N   UNL     1     -43.994 -54.051  12.518  1.00  0.00    -0.305 N 
HETATM   21  N   UNL     1     -42.674 -53.830  12.396  1.00  0.00    -0.304 N 
HETATM   22  H   UNL     1     -44.591 -53.843  11.725  1.00  0.00     0.186 HD
ATOM     23  HN  UNL     1     -42.170 -53.478  11.582  1.00  0.00     0.186 HD
ENDBRANCH  15  16
ENDBRANCH   1  15
TORSDOF 5
ENDMDL
