MODEL 1
REMARK VINA RESULT:      -6.1      0.000      0.000
REMARK  6 active torsions:
REMARK  status: ('A' for Active; 'I' for Inactive)
REMARK       I    between atoms: N_1  and  C_2 
REMARK    1  A    between atoms: C_2  and  C_4 
REMARK    2  A    between atoms: N_6  and  C_7 
REMARK    3  A    between atoms: C_7  and  C_8 
REMARK       I    between atoms: C_8  and  N_10 
REMARK    4  A    between atoms: N_10  and  C_11 
REMARK    5  A    between atoms: C_11  and  C_12 
REMARK    6  A    between atoms: C_16  and  C_19 
ROOT
HETATM    1  C   UNL     1     -42.687 -47.812   9.796  1.00  0.00     0.117 A 
HETATM    2  C   UNL     1     -43.387 -47.724  10.983  1.00  0.00     0.128 A 
HETATM    3  N   UNL     1     -42.619 -48.357  11.917  1.00  0.00    -0.335 N 
HETATM    4  C   UNL     1     -41.484 -48.813  11.282  1.00  0.00     0.088 A 
HETATM    5  N   UNL     1     -41.517 -48.531   9.994  1.00  0.00    -0.340 N 
ATOM      6  HN  UNL     1     -40.827 -48.789   9.289  1.00  0.00     0.167 HD
ENDROOT
BRANCH   3   7
HETATM    7  C   UNL     1     -42.905 -48.535  13.335  1.00  0.00     0.232 C 
BRANCH   7   8
HETATM    8  C   UNL     1     -43.321 -49.935  13.736  1.00  0.00     0.235 C 
HETATM    9  O   UNL     1     -42.737 -50.551  14.622  1.00  0.00    -0.272 OA
HETATM   10  N   UNL     1     -44.385 -50.459  13.024  1.00  0.00    -0.359 N 
HETATM   11  H   UNL     1     -44.926 -49.847  12.424  1.00  0.00     0.162 HD
BRANCH  10  12
HETATM   12  C   UNL     1     -44.970 -51.747  13.357  1.00  0.00     0.127 C 
BRANCH  12  13
HETATM   13  C   UNL     1     -46.244 -51.493  14.145  1.00  0.00     0.003 C 
HETATM   14  C   UNL     1     -46.146 -51.047  15.631  1.00  0.00     0.006 C 
HETATM   15  C   UNL     1     -47.326 -51.994  15.928  1.00  0.00     0.001 C 
HETATM   16  C   UNL     1     -46.917 -52.791  14.675  1.00  0.00     0.006 C 
ENDBRANCH  12  13
ENDBRANCH  10  12
ENDBRANCH   7   8
ENDBRANCH   3   7
BRANCH   4  17
HETATM   17  C   UNL     1     -40.306 -49.517  11.954  1.00  0.00     0.054 A 
HETATM   18  C   UNL     1     -39.361 -48.667  12.781  1.00  0.00     0.013 A 
HETATM   19  C   UNL     1     -38.901 -49.219  11.477  1.00  0.00     0.013 A 
ENDBRANCH   4  17
BRANCH   1  20
HETATM   20  C   UNL     1     -43.069 -47.221   8.516  1.00  0.00     0.267 C 
HETATM   21  N   UNL     1     -43.096 -48.111   7.483  1.00  0.00    -0.365 N 
HETATM   22  H   UNL     1     -43.251 -47.768   6.546  1.00  0.00     0.159 HD
HETATM   23  H   UNL     1     -42.802 -49.065   7.648  1.00  0.00     0.159 HD
HETATM   24  O   UNL     1     -43.323 -46.032   8.353  1.00  0.00    -0.266 OA
ENDBRANCH   1  20
TORSDOF 6
ENDMDL
MODEL 2
REMARK VINA RESULT:      -6.0      1.683      2.047
REMARK  6 active torsions:
REMARK  status: ('A' for Active; 'I' for Inactive)
REMARK       I    between atoms: N_1  and  C_2 
REMARK    1  A    between atoms: C_2  and  C_4 
REMARK    2  A    between atoms: N_6  and  C_7 
REMARK    3  A    between atoms: C_7  and  C_8 
REMARK       I    between atoms: C_8  and  N_10 
REMARK    4  A    between atoms: N_10  and  C_11 
REMARK    5  A    between atoms: C_11  and  C_12 
REMARK    6  A    between atoms: C_16  and  C_19 
ROOT
HETATM    1  C   UNL     1     -41.647 -48.490  10.808  1.00  0.00     0.117 A 
HETATM    2  C   UNL     1     -42.259 -49.154  11.853  1.00  0.00     0.128 A 
HETATM    3  N   UNL     1     -41.309 -49.984  12.375  1.00  0.00    -0.335 N 
HETATM    4  C   UNL     1     -40.156 -49.809  11.641  1.00  0.00     0.088 A 
HETATM    5  N   UNL     1     -40.343 -48.942  10.665  1.00  0.00    -0.340 N 
ATOM      6  HN  UNL     1     -39.670 -48.661   9.952  1.00  0.00     0.167 HD
ENDROOT
BRANCH   3   7
HETATM    7  C   UNL     1     -41.445 -50.897  13.503  1.00  0.00     0.232 C 
BRANCH   7   8
HETATM    8  C   UNL     1     -42.162 -52.195  13.196  1.00  0.00     0.235 C 
HETATM    9  O   UNL     1     -41.614 -53.283  13.344  1.00  0.00    -0.272 OA
HETATM   10  N   UNL     1     -43.457 -52.056  12.731  1.00  0.00    -0.359 N 
HETATM   11  H   UNL     1     -43.906 -51.149  12.786  1.00  0.00     0.162 HD
BRANCH  10  12
HETATM   12  C   UNL     1     -44.312 -53.206  12.490  1.00  0.00     0.127 C 
BRANCH  12  13
HETATM   13  C   UNL     1     -45.678 -52.906  13.085  1.00  0.00     0.003 C 
HETATM   14  C   UNL     1     -46.383 -51.565  12.738  1.00  0.00     0.006 C 
HETATM   15  C   UNL     1     -46.819 -51.485  14.215  1.00  0.00     0.001 C 
HETATM   16  C   UNL     1     -45.620 -52.391  14.550  1.00  0.00     0.006 C 
ENDBRANCH  12  13
ENDBRANCH  10  12
ENDBRANCH   7   8
ENDBRANCH   3   7
BRANCH   4  17
HETATM   17  C   UNL     1     -38.811 -50.481  11.916  1.00  0.00     0.054 A 
HETATM   18  C   UNL     1     -37.827 -49.742  12.802  1.00  0.00     0.013 A 
HETATM   19  C   UNL     1     -37.552 -49.868  11.344  1.00  0.00     0.013 A 
ENDBRANCH   4  17
BRANCH   1  20
HETATM   20  C   UNL     1     -42.237 -47.442   9.981  1.00  0.00     0.267 C 
HETATM   21  N   UNL     1     -42.749 -47.893   8.799  1.00  0.00    -0.365 N 
HETATM   22  H   UNL     1     -43.084 -47.222   8.124  1.00  0.00     0.159 HD
HETATM   23  H   UNL     1     -42.634 -48.868   8.554  1.00  0.00     0.159 HD
HETATM   24  O   UNL     1     -42.263 -46.253  10.285  1.00  0.00    -0.266 OA
ENDBRANCH   1  20
TORSDOF 6
ENDMDL
MODEL 3
REMARK VINA RESULT:      -5.9      1.838      2.338
REMARK  6 active torsions:
REMARK  status: ('A' for Active; 'I' for Inactive)
REMARK       I    between atoms: N_1  and  C_2 
REMARK    1  A    between atoms: C_2  and  C_4 
REMARK    2  A    between atoms: N_6  and  C_7 
REMARK    3  A    between atoms: C_7  and  C_8 
REMARK       I    between atoms: C_8  and  N_10 
REMARK    4  A    between atoms: N_10  and  C_11 
REMARK    5  A    between atoms: C_11  and  C_12 
REMARK    6  A    between atoms: C_16  and  C_19 
ROOT
HETATM    1  C   UNL     1     -42.797 -46.486   9.787  1.00  0.00     0.117 A 
HETATM    2  C   UNL     1     -42.658 -47.855   9.901  1.00  0.00     0.128 A 
HETATM    3  N   UNL     1     -41.526 -48.054  10.638  1.00  0.00    -0.335 N 
HETATM    4  C   UNL     1     -41.009 -46.815  10.948  1.00  0.00     0.088 A 
HETATM    5  N   UNL     1     -41.735 -45.852  10.414  1.00  0.00    -0.340 N 
ATOM      6  HN  UNL     1     -41.553 -44.849  10.454  1.00  0.00     0.167 HD
ENDROOT
BRANCH   3   7
HETATM    7  C   UNL     1     -40.941 -49.324  11.049  1.00  0.00     0.232 C 
BRANCH   7   8
HETATM    8  C   UNL     1     -41.422 -49.853  12.384  1.00  0.00     0.235 C 
HETATM    9  O   UNL     1     -40.808 -49.632  13.422  1.00  0.00    -0.272 OA
HETATM   10  N   UNL     1     -42.583 -50.603  12.335  1.00  0.00    -0.359 N 
HETATM   11  H   UNL     1     -43.129 -50.612  11.481  1.00  0.00     0.162 HD
BRANCH  10  12
HETATM   12  C   UNL     1     -43.229 -51.093  13.541  1.00  0.00     0.127 C 
BRANCH  12  13
HETATM   13  C   UNL     1     -44.733 -51.018  13.330  1.00  0.00     0.003 C 
HETATM   14  C   UNL     1     -45.682 -51.188  14.548  1.00  0.00     0.006 C 
HETATM   15  C   UNL     1     -46.594 -52.038  13.639  1.00  0.00     0.001 C 
HETATM   16  C   UNL     1     -45.350 -52.335  12.780  1.00  0.00     0.006 C 
ENDBRANCH  12  13
ENDBRANCH  10  12
ENDBRANCH   7   8
ENDBRANCH   3   7
BRANCH   4  17
HETATM   17  C   UNL     1     -39.784 -46.551  11.823  1.00  0.00     0.054 A 
HETATM   18  C   UNL     1     -40.024 -46.247  13.289  1.00  0.00     0.013 A 
HETATM   19  C   UNL     1     -39.563 -45.163  12.380  1.00  0.00     0.013 A 
ENDBRANCH   4  17
BRANCH   1  20
HETATM   20  C   UNL     1     -43.900 -45.776   9.144  1.00  0.00     0.267 C 
HETATM   21  N   UNL     1     -44.836 -46.598   8.587  1.00  0.00    -0.365 N 
HETATM   22  H   UNL     1     -45.578 -46.191   8.036  1.00  0.00     0.159 HD
HETATM   23  H   UNL     1     -44.682 -47.597   8.599  1.00  0.00     0.159 HD
HETATM   24  O   UNL     1     -43.988 -44.554   9.075  1.00  0.00    -0.266 OA
ENDBRANCH   1  20
TORSDOF 6
ENDMDL
MODEL 4
REMARK VINA RESULT:      -5.9      1.817      2.314
REMARK  6 active torsions:
REMARK  status: ('A' for Active; 'I' for Inactive)
REMARK       I    between atoms: N_1  and  C_2 
REMARK    1  A    between atoms: C_2  and  C_4 
REMARK    2  A    between atoms: N_6  and  C_7 
REMARK    3  A    between atoms: C_7  and  C_8 
REMARK       I    between atoms: C_8  and  N_10 
REMARK    4  A    between atoms: N_10  and  C_11 
REMARK    5  A    between atoms: C_11  and  C_12 
REMARK    6  A    between atoms: C_16  and  C_19 
ROOT
HETATM    1  C   UNL     1     -42.467 -47.875  10.258  1.00  0.00     0.117 A 
HETATM    2  C   UNL     1     -43.174 -48.198  11.398  1.00  0.00     0.128 A 
HETATM    3  N   UNL     1     -42.380 -49.059  12.099  1.00  0.00    -0.335 N 
HETATM    4  C   UNL     1     -41.223 -49.239  11.373  1.00  0.00     0.088 A 
HETATM    5  N   UNL     1     -41.265 -48.567  10.239  1.00  0.00    -0.340 N 
ATOM      6  HN  UNL     1     -40.561 -48.557   9.501  1.00  0.00     0.167 HD
ENDROOT
BRANCH   3   7
HETATM    7  C   UNL     1     -42.661 -49.689  13.383  1.00  0.00     0.232 C 
BRANCH   7   8
HETATM    8  C   UNL     1     -43.698 -50.792  13.344  1.00  0.00     0.235 C 
HETATM    9  O   UNL     1     -44.768 -50.691  13.936  1.00  0.00    -0.272 OA
HETATM   10  N   UNL     1     -43.341 -51.909  12.611  1.00  0.00    -0.359 N 
HETATM   11  H   UNL     1     -42.522 -51.867  12.015  1.00  0.00     0.162 HD
BRANCH  10  12
HETATM   12  C   UNL     1     -44.264 -53.009  12.391  1.00  0.00     0.127 C 
BRANCH  12  13
HETATM   13  C   UNL     1     -43.740 -54.219  13.147  1.00  0.00     0.003 C 
HETATM   14  C   UNL     1     -44.022 -54.348  14.669  1.00  0.00     0.006 C 
HETATM   15  C   UNL     1     -42.576 -54.859  14.830  1.00  0.00     0.001 C 
HETATM   16  C   UNL     1     -42.236 -54.112  13.527  1.00  0.00     0.006 C 
ENDBRANCH  12  13
ENDBRANCH  10  12
ENDBRANCH   7   8
ENDBRANCH   3   7
BRANCH   4  17
HETATM   17  C   UNL     1     -40.014 -50.067  11.809  1.00  0.00     0.054 A 
HETATM   18  C   UNL     1     -39.038 -49.425  12.777  1.00  0.00     0.013 A 
HETATM   19  C   UNL     1     -38.632 -49.645  11.361  1.00  0.00     0.013 A 
ENDBRANCH   4  17
BRANCH   1  20
HETATM   20  C   UNL     1     -42.873 -46.927   9.223  1.00  0.00     0.267 C 
HETATM   21  N   UNL     1     -43.203 -47.513   8.036  1.00  0.00    -0.365 N 
HETATM   22  H   UNL     1     -43.397 -46.926   7.238  1.00  0.00     0.159 HD
HETATM   23  H   UNL     1     -43.089 -48.513   7.933  1.00  0.00     0.159 HD
HETATM   24  O   UNL     1     -42.901 -45.710   9.373  1.00  0.00    -0.266 OA
ENDBRANCH   1  20
TORSDOF 6
ENDMDL
MODEL 5
REMARK VINA RESULT:      -5.9      3.478      5.105
REMARK  6 active torsions:
REMARK  status: ('A' for Active; 'I' for Inactive)
REMARK       I    between atoms: N_1  and  C_2 
REMARK    1  A    between atoms: C_2  and  C_4 
REMARK    2  A    between atoms: N_6  and  C_7 
REMARK    3  A    between atoms: C_7  and  C_8 
REMARK       I    between atoms: C_8  and  N_10 
REMARK    4  A    between atoms: N_10  and  C_11 
REMARK    5  A    between atoms: C_11  and  C_12 
REMARK    6  A    between atoms: C_16  and  C_19 
ROOT
HETATM    1  C   UNL     1     -43.042 -47.402   9.603  1.00  0.00     0.117 A 
HETATM    2  C   UNL     1     -43.340 -47.748  10.906  1.00  0.00     0.128 A 
HETATM    3  N   UNL     1     -42.357 -47.192  11.673  1.00  0.00    -0.335 N 
HETATM    4  C   UNL     1     -41.492 -46.533  10.826  1.00  0.00     0.088 A 
HETATM    5  N   UNL     1     -41.861 -46.676   9.568  1.00  0.00    -0.340 N 
ATOM      6  HN  UNL     1     -41.378 -46.326   8.741  1.00  0.00     0.167 HD
ENDROOT
BRANCH   3   7
HETATM    7  C   UNL     1     -42.213 -47.256  13.122  1.00  0.00     0.232 C 
BRANCH   7   8
HETATM    8  C   UNL     1     -41.435 -48.448  13.640  1.00  0.00     0.235 C 
HETATM    9  O   UNL     1     -41.984 -49.517  13.884  1.00  0.00    -0.272 OA
HETATM   10  N   UNL     1     -40.082 -48.231  13.824  1.00  0.00    -0.359 N 
HETATM   11  H   UNL     1     -39.662 -47.387  13.453  1.00  0.00     0.162 HD
BRANCH  10  12
HETATM   12  C   UNL     1     -39.182 -49.302  14.216  1.00  0.00     0.127 C 
BRANCH  12  13
HETATM   13  C   UNL     1     -38.050 -49.358  13.203  1.00  0.00     0.003 C 
HETATM   14  C   UNL     1     -38.380 -49.267  11.687  1.00  0.00     0.006 C 
HETATM   15  C   UNL     1     -37.317 -50.361  11.455  1.00  0.00     0.001 C 
HETATM   16  C   UNL     1     -37.544 -50.799  12.913  1.00  0.00     0.006 C 
ENDBRANCH  12  13
ENDBRANCH  10  12
ENDBRANCH   7   8
ENDBRANCH   3   7
BRANCH   4  17
HETATM   17  C   UNL     1     -40.282 -45.703  11.254  1.00  0.00     0.054 A 
HETATM   18  C   UNL     1     -40.421 -44.193  11.217  1.00  0.00     0.013 A 
HETATM   19  C   UNL     1     -39.554 -44.876  10.218  1.00  0.00     0.013 A 
ENDBRANCH   4  17
BRANCH   1  20
HETATM   20  C   UNL     1     -43.842 -47.706   8.419  1.00  0.00     0.267 C 
HETATM   21  N   UNL     1     -43.103 -47.918   7.292  1.00  0.00    -0.365 N 
HETATM   22  H   UNL     1     -43.579 -48.034   6.410  1.00  0.00     0.159 HD
HETATM   23  H   UNL     1     -42.099 -47.794   7.332  1.00  0.00     0.159 HD
HETATM   24  O   UNL     1     -45.068 -47.749   8.406  1.00  0.00    -0.266 OA
ENDBRANCH   1  20
TORSDOF 6
ENDMDL
MODEL 6
REMARK VINA RESULT:      -5.8      3.955      5.463
REMARK  6 active torsions:
REMARK  status: ('A' for Active; 'I' for Inactive)
REMARK       I    between atoms: N_1  and  C_2 
REMARK    1  A    between atoms: C_2  and  C_4 
REMARK    2  A    between atoms: N_6  and  C_7 
REMARK    3  A    between atoms: C_7  and  C_8 
REMARK       I    between atoms: C_8  and  N_10 
REMARK    4  A    between atoms: N_10  and  C_11 
REMARK    5  A    between atoms: C_11  and  C_12 
REMARK    6  A    between atoms: C_16  and  C_19 
ROOT
HETATM    1  C   UNL     1     -41.350 -52.698  12.763  1.00  0.00     0.117 A 
HETATM    2  C   UNL     1     -42.617 -52.752  12.218  1.00  0.00     0.128 A 
HETATM    3  N   UNL     1     -43.308 -53.657  12.970  1.00  0.00    -0.335 N 
HETATM    4  C   UNL     1     -42.452 -54.129  13.942  1.00  0.00     0.088 A 
HETATM    5  N   UNL     1     -41.253 -53.596  13.816  1.00  0.00    -0.340 N 
ATOM      6  HN  UNL     1     -40.425 -53.801  14.376  1.00  0.00     0.167 HD
ENDROOT
BRANCH   3   7
HETATM    7  C   UNL     1     -44.696 -54.073  12.814  1.00  0.00     0.232 C 
BRANCH   7   8
HETATM    8  C   UNL     1     -45.721 -52.970  12.979  1.00  0.00     0.235 C 
HETATM    9  O   UNL     1     -46.392 -52.569  12.034  1.00  0.00    -0.272 OA
HETATM   10  N   UNL     1     -45.825 -52.451  14.256  1.00  0.00    -0.359 N 
HETATM   11  H   UNL     1     -45.367 -52.930  15.023  1.00  0.00     0.162 HD
BRANCH  10  12
HETATM   12  C   UNL     1     -46.832 -51.461  14.601  1.00  0.00     0.127 C 
BRANCH  12  13
HETATM   13  C   UNL     1     -46.701 -51.157  16.084  1.00  0.00     0.003 C 
HETATM   14  C   UNL     1     -46.223 -52.274  17.053  1.00  0.00     0.006 C 
HETATM   15  C   UNL     1     -47.284 -51.773  18.054  1.00  0.00     0.001 C 
HETATM   16  C   UNL     1     -48.053 -51.198  16.850  1.00  0.00     0.006 C 
ENDBRANCH  12  13
ENDBRANCH  10  12
ENDBRANCH   7   8
ENDBRANCH   3   7
BRANCH   4  17
HETATM   17  C   UNL     1     -42.818 -55.109  15.057  1.00  0.00     0.054 A 
HETATM   18  C   UNL     1     -43.204 -54.525  16.402  1.00  0.00     0.013 A 
HETATM   19  C   UNL     1     -41.904 -55.236  16.255  1.00  0.00     0.013 A 
ENDBRANCH   4  17
BRANCH   1  20
HETATM   20  C   UNL     1     -40.261 -51.817  12.345  1.00  0.00     0.267 C 
HETATM   21  N   UNL     1     -40.578 -51.009  11.293  1.00  0.00    -0.365 N 
HETATM   22  H   UNL     1     -39.854 -50.442  10.877  1.00  0.00     0.159 HD
HETATM   23  H   UNL     1     -41.481 -51.111  10.849  1.00  0.00     0.159 HD
HETATM   24  O   UNL     1     -39.148 -51.803  12.860  1.00  0.00    -0.266 OA
ENDBRANCH   1  20
TORSDOF 6
ENDMDL
MODEL 7
REMARK VINA RESULT:      -5.8      2.370      3.675
REMARK  6 active torsions:
REMARK  status: ('A' for Active; 'I' for Inactive)
REMARK       I    between atoms: N_1  and  C_2 
REMARK    1  A    between atoms: C_2  and  C_4 
REMARK    2  A    between atoms: N_6  and  C_7 
REMARK    3  A    between atoms: C_7  and  C_8 
REMARK       I    between atoms: C_8  and  N_10 
REMARK    4  A    between atoms: N_10  and  C_11 
REMARK    5  A    between atoms: C_11  and  C_12 
REMARK    6  A    between atoms: C_16  and  C_19 
ROOT
HETATM    1  C   UNL     1     -38.909 -49.645  11.539  1.00  0.00     0.117 A 
HETATM    2  C   UNL     1     -40.160 -50.166  11.805  1.00  0.00     0.128 A 
HETATM    3  N   UNL     1     -40.997 -49.092  11.908  1.00  0.00    -0.335 N 
HETATM    4  C   UNL     1     -40.241 -47.957  11.708  1.00  0.00     0.088 A 
HETATM    5  N   UNL     1     -38.971 -48.260  11.522  1.00  0.00    -0.340 N 
ATOM      6  HN  UNL     1     -38.195 -47.610  11.392  1.00  0.00     0.167 HD
ENDROOT
BRANCH   3   7
HETATM    7  C   UNL     1     -42.429 -49.100  12.173  1.00  0.00     0.232 C 
BRANCH   7   8
HETATM    8  C   UNL     1     -42.888 -50.115  13.198  1.00  0.00     0.235 C 
HETATM    9  O   UNL     1     -42.445 -50.120  14.342  1.00  0.00    -0.272 OA
HETATM   10  N   UNL     1     -43.822 -51.029  12.744  1.00  0.00    -0.359 N 
HETATM   11  H   UNL     1     -44.268 -50.873  11.847  1.00  0.00     0.162 HD
BRANCH  10  12
HETATM   12  C   UNL     1     -44.438 -52.000  13.631  1.00  0.00     0.127 C 
BRANCH  12  13
HETATM   13  C   UNL     1     -45.702 -51.378  14.202  1.00  0.00     0.003 C 
HETATM   14  C   UNL     1     -45.756 -51.006  15.710  1.00  0.00     0.006 C 
HETATM   15  C   UNL     1     -47.200 -51.549  15.727  1.00  0.00     0.001 C 
HETATM   16  C   UNL     1     -46.820 -52.413  14.511  1.00  0.00     0.006 C 
ENDBRANCH  12  13
ENDBRANCH  10  12
ENDBRANCH   7   8
ENDBRANCH   3   7
BRANCH   4  17
HETATM   17  C   UNL     1     -40.775 -46.525  11.661  1.00  0.00     0.054 A 
HETATM   18  C   UNL     1     -41.383 -46.048  10.356  1.00  0.00     0.013 A 
HETATM   19  C   UNL     1     -40.069 -45.505  10.796  1.00  0.00     0.013 A 
ENDBRANCH   4  17
BRANCH   1  20
HETATM   20  C   UNL     1     -37.690 -50.406  11.276  1.00  0.00     0.267 C 
HETATM   21  N   UNL     1     -37.102 -50.111  10.080  1.00  0.00    -0.365 N 
HETATM   22  H   UNL     1     -36.313 -50.661   9.774  1.00  0.00     0.159 HD
HETATM   23  H   UNL     1     -37.561 -49.462   9.454  1.00  0.00     0.159 HD
HETATM   24  O   UNL     1     -37.228 -51.255  12.031  1.00  0.00    -0.266 OA
ENDBRANCH   1  20
TORSDOF 6
ENDMDL
MODEL 8
REMARK VINA RESULT:      -5.7      2.864      3.627
REMARK  6 active torsions:
REMARK  status: ('A' for Active; 'I' for Inactive)
REMARK       I    between atoms: N_1  and  C_2 
REMARK    1  A    between atoms: C_2  and  C_4 
REMARK    2  A    between atoms: N_6  and  C_7 
REMARK    3  A    between atoms: C_7  and  C_8 
REMARK       I    between atoms: C_8  and  N_10 
REMARK    4  A    between atoms: N_10  and  C_11 
REMARK    5  A    between atoms: C_11  and  C_12 
REMARK    6  A    between atoms: C_16  and  C_19 
ROOT
HETATM    1  C   UNL     1     -43.253 -47.096   9.838  1.00  0.00     0.117 A 
HETATM    2  C   UNL     1     -43.081 -47.940  10.917  1.00  0.00     0.128 A 
HETATM    3  N   UNL     1     -41.824 -47.692  11.388  1.00  0.00    -0.335 N 
HETATM    4  C   UNL     1     -41.267 -46.716  10.590  1.00  0.00     0.088 A 
HETATM    5  N   UNL     1     -42.093 -46.366   9.624  1.00  0.00    -0.340 N 
ATOM      6  HN  UNL     1     -41.916 -45.698   8.874  1.00  0.00     0.167 HD
ENDROOT
BRANCH   3   7
HETATM    7  C   UNL     1     -41.157 -48.316  12.524  1.00  0.00     0.232 C 
BRANCH   7   8
HETATM    8  C   UNL     1     -40.469 -49.631  12.223  1.00  0.00     0.235 C 
HETATM    9  O   UNL     1     -39.553 -49.707  11.412  1.00  0.00    -0.272 OA
HETATM   10  N   UNL     1     -40.960 -50.723  12.917  1.00  0.00    -0.359 N 
HETATM   11  H   UNL     1     -41.601 -50.571  13.687  1.00  0.00     0.162 HD
BRANCH  10  12
HETATM   12  C   UNL     1     -40.341 -52.034  12.818  1.00  0.00     0.127 C 
BRANCH  12  13
HETATM   13  C   UNL     1     -41.424 -53.037  12.459  1.00  0.00     0.003 C 
HETATM   14  C   UNL     1     -42.916 -52.605  12.525  1.00  0.00     0.006 C 
HETATM   15  C   UNL     1     -43.223 -53.987  13.140  1.00  0.00     0.001 C 
HETATM   16  C   UNL     1     -41.756 -54.032  13.606  1.00  0.00     0.006 C 
ENDBRANCH  12  13
ENDBRANCH  10  12
ENDBRANCH   7   8
ENDBRANCH   3   7
BRANCH   4  17
HETATM   17  C   UNL     1     -39.895 -46.072  10.792  1.00  0.00     0.054 A 
HETATM   18  C   UNL     1     -39.836 -44.790  11.599  1.00  0.00     0.013 A 
HETATM   19  C   UNL     1     -39.601 -44.744  10.129  1.00  0.00     0.013 A 
ENDBRANCH   4  17
BRANCH   1  20
HETATM   20  C   UNL     1     -44.468 -46.941   9.042  1.00  0.00     0.267 C 
HETATM   21  N   UNL     1     -44.965 -45.670   9.034  1.00  0.00    -0.365 N 
HETATM   22  H   UNL     1     -45.855 -45.497   8.592  1.00  0.00     0.159 HD
HETATM   23  H   UNL     1     -44.518 -44.965   9.605  1.00  0.00     0.159 HD
HETATM   24  O   UNL     1     -45.024 -47.857   8.445  1.00  0.00    -0.266 OA
ENDBRANCH   1  20
TORSDOF 6
ENDMDL
MODEL 9
REMARK VINA RESULT:      -5.7      4.317      6.117
REMARK  6 active torsions:
REMARK  status: ('A' for Active; 'I' for Inactive)
REMARK       I    between atoms: N_1  and  C_2 
REMARK    1  A    between atoms: C_2  and  C_4 
REMARK    2  A    between atoms: N_6  and  C_7 
REMARK    3  A    between atoms: C_7  and  C_8 
REMARK       I    between atoms: C_8  and  N_10 
REMARK    4  A    between atoms: N_10  and  C_11 
REMARK    5  A    between atoms: C_11  and  C_12 
REMARK    6  A    between atoms: C_16  and  C_19 
ROOT
HETATM    1  C   UNL     1     -41.779 -53.598  13.153  1.00  0.00     0.117 A 
HETATM    2  C   UNL     1     -43.118 -53.807  12.893  1.00  0.00     0.128 A 
HETATM    3  N   UNL     1     -43.576 -54.601  13.904  1.00  0.00    -0.335 N 
HETATM    4  C   UNL     1     -42.513 -54.857  14.743  1.00  0.00     0.088 A 
HETATM    5  N   UNL     1     -41.408 -54.296  14.293  1.00  0.00    -0.340 N 
ATOM      6  HN  UNL     1     -40.474 -54.361  14.698  1.00  0.00     0.167 HD
ENDROOT
BRANCH   3   7
HETATM    7  C   UNL     1     -44.929 -55.105  14.101  1.00  0.00     0.232 C 
BRANCH   7   8
HETATM    8  C   UNL     1     -45.789 -54.287  15.042  1.00  0.00     0.235 C 
HETATM    9  O   UNL     1     -45.954 -54.617  16.212  1.00  0.00    -0.272 OA
HETATM   10  N   UNL     1     -46.373 -53.166  14.481  1.00  0.00    -0.359 N 
HETATM   11  H   UNL     1     -46.070 -52.859  13.564  1.00  0.00     0.162 HD
BRANCH  10  12
HETATM   12  C   UNL     1     -47.141 -52.224  15.276  1.00  0.00     0.127 C 
BRANCH  12  13
HETATM   13  C   UNL     1     -46.283 -50.989  15.497  1.00  0.00     0.003 C 
HETATM   14  C   UNL     1     -44.840 -50.950  14.920  1.00  0.00     0.006 C 
HETATM   15  C   UNL     1     -44.399 -50.279  16.237  1.00  0.00     0.001 C 
HETATM   16  C   UNL     1     -45.623 -50.933  16.904  1.00  0.00     0.006 C 
ENDBRANCH  12  13
ENDBRANCH  10  12
ENDBRANCH   7   8
ENDBRANCH   3   7
BRANCH   4  17
HETATM   17  C   UNL     1     -42.577 -55.647  16.051  1.00  0.00     0.054 A 
HETATM   18  C   UNL     1     -42.636 -54.856  17.343  1.00  0.00     0.013 A 
HETATM   19  C   UNL     1     -41.396 -55.603  16.995  1.00  0.00     0.013 A 
ENDBRANCH   4  17
BRANCH   1  20
HETATM   20  C   UNL     1     -40.867 -52.751  12.388  1.00  0.00     0.267 C 
HETATM   21  N   UNL     1     -41.304 -52.466  11.127  1.00  0.00    -0.365 N 
HETATM   22  H   UNL     1     -40.690 -51.972  10.497  1.00  0.00     0.159 HD
HETATM   23  H   UNL     1     -42.159 -52.893  10.796  1.00  0.00     0.159 HD
HETATM   24  O   UNL     1     -39.791 -52.339  12.808  1.00  0.00    -0.266 OA
ENDBRANCH   1  20
TORSDOF 6
ENDMDL
