MODEL 1
REMARK VINA RESULT:      -6.3      0.000      0.000
REMARK  2 active torsions:
REMARK  status: ('A' for Active; 'I' for Inactive)
REMARK       I    between atoms: C_2  and  N_3 
REMARK       I    between atoms: C_2  and  N_11 
REMARK    1  A    between atoms: N_3  and  C_4 
REMARK    2  A    between atoms: N_11  and  C_12 
ROOT
HETATM    1  O   UNL     1     -42.021 -48.138  11.825  1.00  0.00    -0.247 OA
HETATM    2  C   UNL     1     -41.646 -48.543  10.731  1.00  0.00     0.321 C 
HETATM    3  N   UNL     1     -40.541 -49.353  10.608  1.00  0.00    -0.337 N 
HETATM    4  N   UNL     1     -42.257 -48.284   9.527  1.00  0.00    -0.308 N 
HETATM    5  H   UNL     1     -40.113 -49.436   9.698  1.00  0.00     0.164 HD
HETATM    6  H   UNL     1     -42.043 -48.916   8.770  1.00  0.00     0.170 HD
ENDROOT
BRANCH   3   7
HETATM    7  C   UNL     1     -39.743 -49.702  11.784  1.00  0.00     0.101 C 
HETATM    8  C   UNL     1     -38.231 -49.741  11.479  1.00  0.00     0.041 C 
HETATM    9  C   UNL     1     -37.535 -50.749  12.387  1.00  0.00     0.142 C 
HETATM   10  S   UNL     1     -38.775 -51.459  13.441  1.00  0.00     0.146 S 
HETATM   11  O   UNL     1     -38.629 -52.898  13.465  1.00  0.00    -0.228 OA
HETATM   12  O   UNL     1     -38.841 -50.672  14.657  1.00  0.00    -0.228 OA
HETATM   13  C   UNL     1     -40.161 -51.020  12.435  1.00  0.00     0.165 C 
ENDBRANCH   3   7
BRANCH   4  14
HETATM   14  C   UNL     1     -43.373 -47.433   9.363  1.00  0.00     0.051 A 
HETATM   15  C   UNL     1     -44.683 -47.897   9.234  1.00  0.00     0.032 A 
HETATM   16  C   UNL     1     -45.726 -46.996   9.024  1.00  0.00     0.019 A 
HETATM   17  C   UNL     1     -45.428 -45.648   8.964  1.00  0.00     0.088 A 
HETATM   18  N   UNL     1     -44.182 -45.152   9.120  1.00  0.00    -0.373 N 
HETATM   19  C   UNL     1     -43.189 -46.053   9.318  1.00  0.00     0.117 A 
ATOM     20  HN  UNL     1     -43.998 -44.149   9.089  1.00  0.00     0.164 HD
ENDBRANCH   4  14
TORSDOF 2
ENDMDL
MODEL 2
REMARK VINA RESULT:      -5.9      4.376      5.343
REMARK  2 active torsions:
REMARK  status: ('A' for Active; 'I' for Inactive)
REMARK       I    between atoms: C_2  and  N_3 
REMARK       I    between atoms: C_2  and  N_11 
REMARK    1  A    between atoms: N_3  and  C_4 
REMARK    2  A    between atoms: N_11  and  C_12 
ROOT
HETATM    1  O   UNL     1     -42.407 -51.320  14.190  1.00  0.00    -0.247 OA
HETATM    2  C   UNL     1     -42.637 -51.443  12.994  1.00  0.00     0.321 C 
HETATM    3  N   UNL     1     -41.692 -51.124  12.047  1.00  0.00    -0.337 N 
HETATM    4  N   UNL     1     -43.804 -51.920  12.445  1.00  0.00    -0.308 N 
HETATM    5  H   UNL     1     -42.002 -50.979  11.097  1.00  0.00     0.164 HD
HETATM    6  H   UNL     1     -43.748 -52.262  11.497  1.00  0.00     0.170 HD
ENDROOT
BRANCH   3   7
HETATM    7  C   UNL     1     -40.401 -50.565  12.448  1.00  0.00     0.101 C 
HETATM    8  C   UNL     1     -39.800 -49.637  11.370  1.00  0.00     0.041 C 
HETATM    9  C   UNL     1     -38.278 -49.668  11.435  1.00  0.00     0.142 C 
HETATM   10  S   UNL     1     -37.824 -50.769  12.752  1.00  0.00     0.146 S 
HETATM   11  O   UNL     1     -36.791 -51.674  12.298  1.00  0.00    -0.228 OA
HETATM   12  O   UNL     1     -37.685 -49.989  13.967  1.00  0.00    -0.228 OA
HETATM   13  C   UNL     1     -39.369 -51.626  12.831  1.00  0.00     0.165 C 
ENDBRANCH   3   7
BRANCH   4  14
HETATM   14  C   UNL     1     -44.955 -52.264  13.189  1.00  0.00     0.051 A 
HETATM   15  C   UNL     1     -45.764 -51.328  13.835  1.00  0.00     0.032 A 
HETATM   16  C   UNL     1     -46.855 -51.751  14.591  1.00  0.00     0.019 A 
HETATM   17  C   UNL     1     -47.117 -53.105  14.668  1.00  0.00     0.088 A 
HETATM   18  N   UNL     1     -46.385 -54.043  14.031  1.00  0.00    -0.373 N 
HETATM   19  C   UNL     1     -45.328 -53.601  13.307  1.00  0.00     0.117 A 
ATOM     20  HN  UNL     1     -46.615 -55.035  14.092  1.00  0.00     0.164 HD
ENDBRANCH   4  14
TORSDOF 2
ENDMDL
MODEL 3
REMARK VINA RESULT:      -5.8      4.252      5.452
REMARK  2 active torsions:
REMARK  status: ('A' for Active; 'I' for Inactive)
REMARK       I    between atoms: C_2  and  N_3 
REMARK       I    between atoms: C_2  and  N_11 
REMARK    1  A    between atoms: N_3  and  C_4 
REMARK    2  A    between atoms: N_11  and  C_12 
ROOT
HETATM    1  O   UNL     1     -42.766 -50.145  13.413  1.00  0.00    -0.247 OA
HETATM    2  C   UNL     1     -42.381 -50.836  12.479  1.00  0.00     0.321 C 
HETATM    3  N   UNL     1     -42.704 -52.171  12.396  1.00  0.00    -0.337 N 
HETATM    4  N   UNL     1     -41.629 -50.400  11.413  1.00  0.00    -0.308 N 
HETATM    5  H   UNL     1     -42.156 -52.754  11.780  1.00  0.00     0.164 HD
HETATM    6  H   UNL     1     -41.652 -50.974  10.583  1.00  0.00     0.170 HD
ENDROOT
BRANCH   3   7
HETATM    7  C   UNL     1     -43.468 -52.816  13.464  1.00  0.00     0.101 C 
HETATM    8  C   UNL     1     -42.620 -53.824  14.269  1.00  0.00     0.041 C 
HETATM    9  C   UNL     1     -43.502 -54.943  14.810  1.00  0.00     0.142 C 
HETATM   10  S   UNL     1     -45.166 -54.608  14.288  1.00  0.00     0.146 S 
HETATM   11  O   UNL     1     -45.757 -55.811  13.742  1.00  0.00    -0.228 OA
HETATM   12  O   UNL     1     -45.818 -53.831  15.324  1.00  0.00    -0.228 OA
HETATM   13  C   UNL     1     -44.739 -53.508  12.971  1.00  0.00     0.165 C 
ENDBRANCH   3   7
BRANCH   4  14
HETATM   14  C   UNL     1     -41.114 -49.092  11.280  1.00  0.00     0.051 A 
HETATM   15  C   UNL     1     -40.034 -48.609  12.022  1.00  0.00     0.032 A 
HETATM   16  C   UNL     1     -39.617 -47.288  11.869  1.00  0.00     0.019 A 
HETATM   17  C   UNL     1     -40.284 -46.488  10.962  1.00  0.00     0.088 A 
HETATM   18  N   UNL     1     -41.309 -46.921  10.197  1.00  0.00    -0.373 N 
HETATM   19  C   UNL     1     -41.695 -48.209  10.372  1.00  0.00     0.117 A 
ATOM     20  HN  UNL     1     -41.769 -46.311   9.522  1.00  0.00     0.164 HD
ENDBRANCH   4  14
TORSDOF 2
ENDMDL
MODEL 4
REMARK VINA RESULT:      -5.5      3.790      6.737
REMARK  2 active torsions:
REMARK  status: ('A' for Active; 'I' for Inactive)
REMARK       I    between atoms: C_2  and  N_3 
REMARK       I    between atoms: C_2  and  N_11 
REMARK    1  A    between atoms: N_3  and  C_4 
REMARK    2  A    between atoms: N_11  and  C_12 
ROOT
HETATM    1  O   UNL     1     -43.028 -49.876  13.184  1.00  0.00    -0.247 OA
HETATM    2  C   UNL     1     -42.419 -50.313  12.216  1.00  0.00     0.321 C 
HETATM    3  N   UNL     1     -41.856 -49.470  11.285  1.00  0.00    -0.337 N 
HETATM    4  N   UNL     1     -42.193 -51.641  11.942  1.00  0.00    -0.308 N 
HETATM    5  H   UNL     1     -41.611 -49.855  10.384  1.00  0.00     0.164 HD
HETATM    6  H   UNL     1     -41.431 -51.845  11.312  1.00  0.00     0.170 HD
ENDROOT
BRANCH   3   7
HETATM    7  C   UNL     1     -42.030 -48.022  11.396  1.00  0.00     0.101 C 
HETATM    8  C   UNL     1     -43.132 -47.486  10.457  1.00  0.00     0.041 C 
HETATM    9  C   UNL     1     -42.819 -46.054  10.040  1.00  0.00     0.142 C 
HETATM   10  S   UNL     1     -41.299 -45.589  10.830  1.00  0.00     0.146 S 
HETATM   11  O   UNL     1     -40.419 -44.964   9.866  1.00  0.00    -0.228 OA
HETATM   12  O   UNL     1     -41.620 -44.963  12.098  1.00  0.00    -0.228 OA
HETATM   13  C   UNL     1     -40.741 -47.234  11.161  1.00  0.00     0.165 C 
ENDBRANCH   3   7
BRANCH   4  14
HETATM   14  C   UNL     1     -42.709 -52.714  12.702  1.00  0.00     0.051 A 
HETATM   15  C   UNL     1     -43.977 -53.261  12.502  1.00  0.00     0.032 A 
HETATM   16  C   UNL     1     -44.434 -54.286  13.328  1.00  0.00     0.019 A 
HETATM   17  C   UNL     1     -43.598 -54.748  14.326  1.00  0.00     0.088 A 
HETATM   18  N   UNL     1     -42.351 -54.275  14.533  1.00  0.00    -0.373 N 
HETATM   19  C   UNL     1     -41.937 -53.275  13.716  1.00  0.00     0.117 A 
ATOM     20  HN  UNL     1     -41.751 -54.651  15.267  1.00  0.00     0.164 HD
ENDBRANCH   4  14
TORSDOF 2
ENDMDL
MODEL 5
REMARK VINA RESULT:      -5.5      4.567      6.689
REMARK  2 active torsions:
REMARK  status: ('A' for Active; 'I' for Inactive)
REMARK       I    between atoms: C_2  and  N_3 
REMARK       I    between atoms: C_2  and  N_11 
REMARK    1  A    between atoms: N_3  and  C_4 
REMARK    2  A    between atoms: N_11  and  C_12 
ROOT
HETATM    1  O   UNL     1     -42.632 -51.605  13.388  1.00  0.00    -0.247 OA
HETATM    2  C   UNL     1     -42.357 -52.154  12.329  1.00  0.00     0.321 C 
HETATM    3  N   UNL     1     -43.150 -53.154  11.814  1.00  0.00    -0.337 N 
HETATM    4  N   UNL     1     -41.285 -51.853  11.522  1.00  0.00    -0.308 N 
HETATM    5  H   UNL     1     -42.755 -53.755  11.105  1.00  0.00     0.164 HD
HETATM    6  H   UNL     1     -41.351 -52.147  10.559  1.00  0.00     0.170 HD
ENDROOT
BRANCH   3   7
HETATM    7  C   UNL     1     -44.316 -53.632  12.558  1.00  0.00     0.101 C 
HETATM    8  C   UNL     1     -45.420 -52.560  12.675  1.00  0.00     0.041 C 
HETATM    9  C   UNL     1     -46.211 -52.756  13.964  1.00  0.00     0.142 C 
HETATM   10  S   UNL     1     -45.526 -54.166  14.798  1.00  0.00     0.146 S 
HETATM   11  O   UNL     1     -45.318 -53.851  16.195  1.00  0.00    -0.228 OA
HETATM   12  O   UNL     1     -46.260 -55.343  14.376  1.00  0.00    -0.228 OA
HETATM   13  C   UNL     1     -43.974 -54.159  13.952  1.00  0.00     0.165 C 
ENDBRANCH   3   7
BRANCH   4  14
HETATM   14  C   UNL     1     -40.284 -50.909  11.842  1.00  0.00     0.051 A 
HETATM   15  C   UNL     1     -39.266 -51.148  12.768  1.00  0.00     0.032 A 
HETATM   16  C   UNL     1     -38.344 -50.147  13.067  1.00  0.00     0.019 A 
HETATM   17  C   UNL     1     -38.457 -48.934  12.416  1.00  0.00     0.088 A 
HETATM   18  N   UNL     1     -39.401 -48.670  11.487  1.00  0.00    -0.373 N 
HETATM   19  C   UNL     1     -40.285 -49.662  11.221  1.00  0.00     0.117 A 
ATOM     20  HN  UNL     1     -39.445 -47.770  11.010  1.00  0.00     0.164 HD
ENDBRANCH   4  14
TORSDOF 2
ENDMDL
MODEL 6
REMARK VINA RESULT:      -5.2      3.925      6.135
REMARK  2 active torsions:
REMARK  status: ('A' for Active; 'I' for Inactive)
REMARK       I    between atoms: C_2  and  N_3 
REMARK       I    between atoms: C_2  and  N_11 
REMARK    1  A    between atoms: N_3  and  C_4 
REMARK    2  A    between atoms: N_11  and  C_12 
ROOT
HETATM    1  O   UNL     1     -42.216 -50.627  13.137  1.00  0.00    -0.247 OA
HETATM    2  C   UNL     1     -41.912 -51.326  12.178  1.00  0.00     0.321 C 
HETATM    3  N   UNL     1     -41.014 -50.892  11.232  1.00  0.00    -0.337 N 
HETATM    4  N   UNL     1     -42.378 -52.596  11.931  1.00  0.00    -0.308 N 
HETATM    5  H   UNL     1     -40.999 -51.364  10.339  1.00  0.00     0.164 HD
HETATM    6  H   UNL     1     -41.824 -53.163  11.307  1.00  0.00     0.170 HD
ENDROOT
BRANCH   3   7
HETATM    7  C   UNL     1     -40.444 -49.547  11.314  1.00  0.00     0.101 C 
HETATM    8  C   UNL     1     -39.516 -49.373  12.535  1.00  0.00     0.041 C 
HETATM    9  C   UNL     1     -39.536 -47.926  13.012  1.00  0.00     0.142 C 
HETATM   10  S   UNL     1     -40.630 -47.027  11.940  1.00  0.00     0.146 S 
HETATM   11  O   UNL     1     -41.529 -46.215  12.730  1.00  0.00    -0.228 OA
HETATM   12  O   UNL     1     -39.844 -46.474  10.854  1.00  0.00    -0.228 OA
HETATM   13  C   UNL     1     -41.496 -48.438  11.319  1.00  0.00     0.165 C 
ENDBRANCH   3   7
BRANCH   4  14
HETATM   14  C   UNL     1     -43.352 -53.257  12.712  1.00  0.00     0.051 A 
HETATM   15  C   UNL     1     -43.042 -54.127  13.759  1.00  0.00     0.032 A 
HETATM   16  C   UNL     1     -44.061 -54.780  14.449  1.00  0.00     0.019 A 
HETATM   17  C   UNL     1     -45.369 -54.531  14.082  1.00  0.00     0.088 A 
HETATM   18  N   UNL     1     -45.718 -53.671  13.102  1.00  0.00    -0.373 N 
HETATM   19  C   UNL     1     -44.705 -53.054  12.445  1.00  0.00     0.117 A 
ATOM     20  HN  UNL     1     -46.695 -53.495  12.867  1.00  0.00     0.164 HD
ENDBRANCH   4  14
TORSDOF 2
ENDMDL
MODEL 7
REMARK VINA RESULT:      -5.0      2.062      3.138
REMARK  2 active torsions:
REMARK  status: ('A' for Active; 'I' for Inactive)
REMARK       I    between atoms: C_2  and  N_3 
REMARK       I    between atoms: C_2  and  N_11 
REMARK    1  A    between atoms: N_3  and  C_4 
REMARK    2  A    between atoms: N_11  and  C_12 
ROOT
HETATM    1  O   UNL     1     -41.022 -48.461  12.507  1.00  0.00    -0.247 OA
HETATM    2  C   UNL     1     -40.879 -48.624  11.302  1.00  0.00     0.321 C 
HETATM    3  N   UNL     1     -40.620 -49.867  10.773  1.00  0.00    -0.337 N 
HETATM    4  N   UNL     1     -40.980 -47.645  10.341  1.00  0.00    -0.308 N 
HETATM    5  H   UNL     1     -40.245 -49.916   9.837  1.00  0.00     0.164 HD
HETATM    6  H   UNL     1     -41.155 -47.958   9.398  1.00  0.00     0.170 HD
ENDROOT
BRANCH   3   7
HETATM    7  C   UNL     1     -40.441 -51.023  11.652  1.00  0.00     0.101 C 
HETATM    8  C   UNL     1     -41.711 -51.345  12.468  1.00  0.00     0.041 C 
HETATM    9  C   UNL     1     -41.336 -51.980  13.802  1.00  0.00     0.142 C 
HETATM   10  S   UNL     1     -39.565 -52.097  13.855  1.00  0.00     0.146 S 
HETATM   11  O   UNL     1     -39.083 -51.612  15.130  1.00  0.00    -0.228 OA
HETATM   12  O   UNL     1     -39.180 -53.392  13.329  1.00  0.00    -0.228 OA
HETATM   13  C   UNL     1     -39.252 -50.888  12.604  1.00  0.00     0.165 C 
ENDBRANCH   3   7
BRANCH   4  14
HETATM   14  C   UNL     1     -41.182 -46.274  10.615  1.00  0.00     0.051 A 
HETATM   15  C   UNL     1     -40.146 -45.342  10.694  1.00  0.00     0.032 A 
HETATM   16  C   UNL     1     -40.422 -44.016  11.019  1.00  0.00     0.019 A 
HETATM   17  C   UNL     1     -41.737 -43.653  11.241  1.00  0.00     0.088 A 
HETATM   18  N   UNL     1     -42.774 -44.510  11.140  1.00  0.00    -0.373 N 
HETATM   19  C   UNL     1     -42.473 -45.795  10.827  1.00  0.00     0.117 A 
ATOM     20  HN  UNL     1     -43.736 -44.207  11.291  1.00  0.00     0.164 HD
ENDBRANCH   4  14
TORSDOF 2
ENDMDL
MODEL 8
REMARK VINA RESULT:      -4.9      3.885      7.308
REMARK  2 active torsions:
REMARK  status: ('A' for Active; 'I' for Inactive)
REMARK       I    between atoms: C_2  and  N_3 
REMARK       I    between atoms: C_2  and  N_11 
REMARK    1  A    between atoms: N_3  and  C_4 
REMARK    2  A    between atoms: N_11  and  C_12 
ROOT
HETATM    1  O   UNL     1     -40.199 -46.707  12.589  1.00  0.00    -0.247 OA
HETATM    2  C   UNL     1     -40.005 -47.203  11.486  1.00  0.00     0.321 C 
HETATM    3  N   UNL     1     -40.327 -46.529  10.331  1.00  0.00    -0.337 N 
HETATM    4  N   UNL     1     -39.440 -48.433  11.248  1.00  0.00    -0.308 N 
HETATM    5  H   UNL     1     -40.409 -47.062   9.477  1.00  0.00     0.164 HD
HETATM    6  H   UNL     1     -39.056 -48.580  10.326  1.00  0.00     0.170 HD
ENDROOT
BRANCH   3   7
HETATM    7  C   UNL     1     -40.974 -45.218  10.394  1.00  0.00     0.101 C 
HETATM    8  C   UNL     1     -40.022 -44.115  10.903  1.00  0.00     0.041 C 
HETATM    9  C   UNL     1     -40.809 -43.033  11.632  1.00  0.00     0.142 C 
HETATM   10  S   UNL     1     -42.523 -43.496  11.580  1.00  0.00     0.146 S 
HETATM   11  O   UNL     1     -43.106 -43.355  12.897  1.00  0.00    -0.228 OA
HETATM   12  O   UNL     1     -43.120 -42.893  10.405  1.00  0.00    -0.228 OA
HETATM   13  C   UNL     1     -42.251 -45.208  11.234  1.00  0.00     0.165 C 
ENDBRANCH   3   7
BRANCH   4  14
HETATM   14  C   UNL     1     -39.073 -49.354  12.255  1.00  0.00     0.051 A 
HETATM   15  C   UNL     1     -37.915 -49.232  13.026  1.00  0.00     0.032 A 
HETATM   16  C   UNL     1     -37.597 -50.209  13.966  1.00  0.00     0.019 A 
HETATM   17  C   UNL     1     -38.457 -51.279  14.121  1.00  0.00     0.088 A 
HETATM   18  N   UNL     1     -39.605 -51.419  13.425  1.00  0.00    -0.373 N 
HETATM   19  C   UNL     1     -39.886 -50.454  12.515  1.00  0.00     0.117 A 
ATOM     20  HN  UNL     1     -40.230 -52.211  13.577  1.00  0.00     0.164 HD
ENDBRANCH   4  14
TORSDOF 2
ENDMDL
MODEL 9
REMARK VINA RESULT:      -4.9      3.397      6.533
REMARK  2 active torsions:
REMARK  status: ('A' for Active; 'I' for Inactive)
REMARK       I    between atoms: C_2  and  N_3 
REMARK       I    between atoms: C_2  and  N_11 
REMARK    1  A    between atoms: N_3  and  C_4 
REMARK    2  A    between atoms: N_11  and  C_12 
ROOT
HETATM    1  O   UNL     1     -41.385 -49.478  12.753  1.00  0.00    -0.247 OA
HETATM    2  C   UNL     1     -41.230 -49.951  11.635  1.00  0.00     0.321 C 
HETATM    3  N   UNL     1     -41.013 -49.146  10.541  1.00  0.00    -0.337 N 
HETATM    4  N   UNL     1     -41.220 -51.290  11.324  1.00  0.00    -0.308 N 
HETATM    5  H   UNL     1     -41.162 -49.541   9.623  1.00  0.00     0.164 HD
HETATM    6  H   UNL     1     -40.777 -51.546  10.453  1.00  0.00     0.170 HD
ENDROOT
BRANCH   3   7
HETATM    7  C   UNL     1     -41.029 -47.689  10.678  1.00  0.00     0.101 C 
HETATM    8  C   UNL     1     -39.880 -47.169  11.568  1.00  0.00     0.041 C 
HETATM    9  C   UNL     1     -40.299 -45.885  12.274  1.00  0.00     0.142 C 
HETATM   10  S   UNL     1     -41.958 -45.513  11.762  1.00  0.00     0.146 S 
HETATM   11  O   UNL     1     -42.764 -45.188  12.918  1.00  0.00    -0.228 OA
HETATM   12  O   UNL     1     -41.889 -44.645  10.602  1.00  0.00    -0.228 OA
HETATM   13  C   UNL     1     -42.357 -47.140  11.200  1.00  0.00     0.165 C 
ENDBRANCH   3   7
BRANCH   4  14
HETATM   14  C   UNL     1     -41.475 -52.328  12.248  1.00  0.00     0.051 A 
HETATM   15  C   UNL     1     -40.472 -53.004  12.945  1.00  0.00     0.032 A 
HETATM   16  C   UNL     1     -40.802 -54.051  13.803  1.00  0.00     0.019 A 
HETATM   17  C   UNL     1     -42.135 -54.385  13.951  1.00  0.00     0.088 A 
HETATM   18  N   UNL     1     -43.140 -53.737  13.326  1.00  0.00    -0.373 N 
HETATM   19  C   UNL     1     -42.787 -52.725  12.495  1.00  0.00     0.117 A 
ATOM     20  HN  UNL     1     -44.116 -53.996  13.471  1.00  0.00     0.164 HD
ENDBRANCH   4  14
TORSDOF 2
ENDMDL
