MODEL 1
REMARK VINA RESULT:      -6.7      0.000      0.000
REMARK  6 active torsions:
REMARK  status: ('A' for Active; 'I' for Inactive)
REMARK    1  A    between atoms: C_2  and  C_7 
REMARK    2  A    between atoms: C_2  and  N_3 
REMARK       I    between atoms: N_3  and  C_4 
REMARK    3  A    between atoms: N_16  and  C_17 
REMARK    4  A    between atoms: C_17  and  C_18 
REMARK    5  A    between atoms: C_18  and  O_19 
REMARK    6  A    between atoms: C_18  and  C_20 
ROOT
HETATM    1  C   UNL     1     -41.076 -47.744  11.421  1.00  0.00     0.107 A 
HETATM    2  N   UNL     1     -41.115 -46.981  10.345  1.00  0.00    -0.342 N 
ATOM      3  HN  UNL     1     -40.330 -46.505   9.901  1.00  0.00     0.167 HD
HETATM    4  C   UNL     1     -42.427 -46.960   9.947  1.00  0.00     0.060 A 
HETATM    5  C   UNL     1     -43.016 -46.248   8.887  1.00  0.00     0.032 A 
HETATM    6  C   UNL     1     -44.392 -46.361   8.670  1.00  0.00     0.002 A 
HETATM    7  C   UNL     1     -45.172 -47.166   9.492  1.00  0.00     0.002 A 
HETATM    8  C   UNL     1     -44.603 -47.872  10.558  1.00  0.00     0.032 A 
HETATM    9  C   UNL     1     -43.218 -47.767  10.766  1.00  0.00     0.062 A 
HETATM   10  N   UNL     1     -42.324 -48.309  11.668  1.00  0.00    -0.330 N 
ENDROOT
BRANCH  10  11
HETATM   11  C   UNL     1     -42.580 -49.219  12.774  1.00  0.00     0.167 C 
BRANCH  11  12
HETATM   12  C   UNL     1     -42.399 -50.729  12.565  1.00  0.00     0.169 C 
BRANCH  12  13
HETATM   13  O   UNL     1     -41.274 -51.200  13.308  1.00  0.00    -0.389 OA
HETATM   14  H   UNL     1     -41.439 -52.132  13.536  1.00  0.00     0.210 HD
ENDBRANCH  12  13
BRANCH  12  15
HETATM   15  C   UNL     1     -43.601 -51.588  12.926  1.00  0.00    -0.025 A 
HETATM   16  C   UNL     1     -43.519 -52.978  12.698  1.00  0.00     0.010 A 
HETATM   17  C   UNL     1     -44.608 -53.818  12.943  1.00  0.00     0.004 A 
HETATM   18  C   UNL     1     -45.801 -53.284  13.418  1.00  0.00     0.042 A 
HETATM   19  C   UNL     1     -45.891 -51.919  13.652  1.00  0.00     0.117 A 
HETATM   20  F   UNL     1     -47.042 -51.400  14.097  1.00  0.00    -0.206 F 
HETATM   21  C   UNL     1     -44.809 -51.072  13.417  1.00  0.00     0.052 A 
ENDBRANCH  12  15
ENDBRANCH  11  12
ENDBRANCH  10  11
BRANCH   1  22
HETATM   22  C   UNL     1     -39.857 -47.983  12.277  1.00  0.00     0.148 C 
HETATM   23  C   UNL     1     -39.349 -46.698  12.925  1.00  0.00     0.040 C 
BRANCH  22  24
HETATM   24  N   UNL     1     -38.829 -48.573  11.439  1.00  0.00    -0.350 N 
HETATM   25  C   UNL     1     -38.212 -49.755  11.759  1.00  0.00     0.214 C 
HETATM   26  O   UNL     1     -38.515 -50.429  12.739  1.00  0.00    -0.274 OA
HETATM   27  C   UNL     1     -37.103 -50.154  10.824  1.00  0.00     0.117 C 
HETATM   28  H   UNL     1     -38.588 -48.078  10.588  1.00  0.00     0.163 HD
ENDBRANCH  22  24
ENDBRANCH   1  22
TORSDOF 6
ENDMDL
MODEL 2
REMARK VINA RESULT:      -6.6      2.841      6.580
REMARK  6 active torsions:
REMARK  status: ('A' for Active; 'I' for Inactive)
REMARK    1  A    between atoms: C_2  and  C_7 
REMARK    2  A    between atoms: C_2  and  N_3 
REMARK       I    between atoms: N_3  and  C_4 
REMARK    3  A    between atoms: N_16  and  C_17 
REMARK    4  A    between atoms: C_17  and  C_18 
REMARK    5  A    between atoms: C_18  and  O_19 
REMARK    6  A    between atoms: C_18  and  C_20 
ROOT
HETATM    1  C   UNL     1     -42.531 -49.790  12.236  1.00  0.00     0.107 A 
HETATM    2  N   UNL     1     -43.413 -50.548  12.861  1.00  0.00    -0.342 N 
ATOM      3  HN  UNL     1     -44.340 -50.272  13.186  1.00  0.00     0.167 HD
HETATM    4  C   UNL     1     -42.828 -51.781  12.984  1.00  0.00     0.060 A 
HETATM    5  C   UNL     1     -43.321 -52.932  13.625  1.00  0.00     0.032 A 
HETATM    6  C   UNL     1     -42.539 -54.090  13.646  1.00  0.00     0.002 A 
HETATM    7  C   UNL     1     -41.287 -54.106  13.042  1.00  0.00     0.002 A 
HETATM    8  C   UNL     1     -40.777 -52.966  12.410  1.00  0.00     0.032 A 
HETATM    9  C   UNL     1     -41.570 -51.808  12.380  1.00  0.00     0.062 A 
HETATM   10  N   UNL     1     -41.424 -50.540  11.853  1.00  0.00    -0.330 N 
ENDROOT
BRANCH  10  11
HETATM   11  C   UNL     1     -40.298 -49.979  11.120  1.00  0.00     0.167 C 
BRANCH  11  12
HETATM   12  C   UNL     1     -38.895 -50.026  11.741  1.00  0.00     0.169 C 
BRANCH  12  13
HETATM   13  O   UNL     1     -37.899 -49.958  10.720  1.00  0.00    -0.389 OA
HETATM   14  H   UNL     1     -37.712 -50.868  10.429  1.00  0.00     0.210 HD
ENDBRANCH  12  13
BRANCH  12  15
HETATM   15  C   UNL     1     -38.598 -48.945  12.769  1.00  0.00    -0.025 A 
HETATM   16  C   UNL     1     -37.691 -49.244  13.806  1.00  0.00     0.010 A 
HETATM   17  C   UNL     1     -37.421 -48.324  14.821  1.00  0.00     0.004 A 
HETATM   18  C   UNL     1     -38.057 -47.086  14.820  1.00  0.00     0.042 A 
HETATM   19  C   UNL     1     -38.946 -46.779  13.801  1.00  0.00     0.117 A 
HETATM   20  F   UNL     1     -39.570 -45.593  13.803  1.00  0.00    -0.206 F 
HETATM   21  C   UNL     1     -39.218 -47.687  12.779  1.00  0.00     0.052 A 
ENDBRANCH  12  15
ENDBRANCH  11  12
ENDBRANCH  10  11
BRANCH   1  22
HETATM   22  C   UNL     1     -42.687 -48.314  11.965  1.00  0.00     0.148 C 
HETATM   23  C   UNL     1     -42.922 -47.516  13.244  1.00  0.00     0.040 C 
BRANCH  22  24
HETATM   24  N   UNL     1     -43.796 -48.141  11.045  1.00  0.00    -0.350 N 
HETATM   25  C   UNL     1     -43.704 -47.351   9.928  1.00  0.00     0.214 C 
HETATM   26  O   UNL     1     -42.673 -46.778   9.590  1.00  0.00    -0.274 OA
HETATM   27  C   UNL     1     -44.987 -47.214   9.153  1.00  0.00     0.117 C 
HETATM   28  H   UNL     1     -44.651 -48.643  11.253  1.00  0.00     0.163 HD
ENDBRANCH  22  24
ENDBRANCH   1  22
TORSDOF 6
ENDMDL
MODEL 3
REMARK VINA RESULT:      -6.6      2.917      6.285
REMARK  6 active torsions:
REMARK  status: ('A' for Active; 'I' for Inactive)
REMARK    1  A    between atoms: C_2  and  C_7 
REMARK    2  A    between atoms: C_2  and  N_3 
REMARK       I    between atoms: N_3  and  C_4 
REMARK    3  A    between atoms: N_16  and  C_17 
REMARK    4  A    between atoms: C_17  and  C_18 
REMARK    5  A    between atoms: C_18  and  O_19 
REMARK    6  A    between atoms: C_18  and  C_20 
ROOT
HETATM    1  C   UNL     1     -43.581 -50.831  13.138  1.00  0.00     0.107 A 
HETATM    2  N   UNL     1     -44.785 -50.796  13.677  1.00  0.00    -0.342 N 
ATOM      3  HN  UNL     1     -45.324 -49.966  13.924  1.00  0.00     0.167 HD
HETATM    4  C   UNL     1     -45.164 -52.104  13.834  1.00  0.00     0.060 A 
HETATM    5  C   UNL     1     -46.336 -52.620  14.416  1.00  0.00     0.032 A 
HETATM    6  C   UNL     1     -46.509 -54.004  14.489  1.00  0.00     0.002 A 
HETATM    7  C   UNL     1     -45.536 -54.864  13.994  1.00  0.00     0.002 A 
HETATM    8  C   UNL     1     -44.359 -54.367  13.422  1.00  0.00     0.032 A 
HETATM    9  C   UNL     1     -44.193 -52.976  13.339  1.00  0.00     0.062 A 
HETATM   10  N   UNL     1     -43.213 -52.140  12.841  1.00  0.00    -0.330 N 
ENDROOT
BRANCH  10  11
HETATM   11  C   UNL     1     -41.947 -52.487  12.214  1.00  0.00     0.167 C 
BRANCH  11  12
HETATM   12  C   UNL     1     -40.749 -52.870  13.095  1.00  0.00     0.169 C 
BRANCH  12  13
HETATM   13  O   UNL     1     -40.121 -54.049  12.589  1.00  0.00    -0.389 OA
HETATM   14  H   UNL     1     -40.339 -54.782  13.192  1.00  0.00     0.210 HD
ENDBRANCH  12  13
BRANCH  12  15
HETATM   15  C   UNL     1     -39.685 -51.796  13.256  1.00  0.00    -0.025 A 
HETATM   16  C   UNL     1     -39.064 -51.657  14.515  1.00  0.00     0.010 A 
HETATM   17  C   UNL     1     -38.127 -50.649  14.754  1.00  0.00     0.004 A 
HETATM   18  C   UNL     1     -37.795 -49.758  13.739  1.00  0.00     0.042 A 
HETATM   19  C   UNL     1     -38.395 -49.889  12.495  1.00  0.00     0.117 A 
HETATM   20  F   UNL     1     -38.087 -49.025  11.519  1.00  0.00    -0.206 F 
HETATM   21  C   UNL     1     -39.327 -50.895  12.243  1.00  0.00     0.052 A 
ENDBRANCH  12  15
ENDBRANCH  11  12
ENDBRANCH  10  11
BRANCH   1  22
HETATM   22  C   UNL     1     -42.710 -49.628  12.873  1.00  0.00     0.148 C 
HETATM   23  C   UNL     1     -42.540 -48.756  14.113  1.00  0.00     0.040 C 
BRANCH  22  24
HETATM   24  N   UNL     1     -43.312 -48.867  11.792  1.00  0.00    -0.350 N 
HETATM   25  C   UNL     1     -42.561 -48.242  10.831  1.00  0.00     0.214 C 
HETATM   26  O   UNL     1     -41.338 -48.319  10.773  1.00  0.00    -0.274 OA
HETATM   27  C   UNL     1     -43.357 -47.418   9.855  1.00  0.00     0.117 C 
HETATM   28  H   UNL     1     -44.323 -48.824  11.767  1.00  0.00     0.163 HD
ENDBRANCH  22  24
ENDBRANCH   1  22
TORSDOF 6
ENDMDL
MODEL 4
REMARK VINA RESULT:      -6.4      2.962      5.506
REMARK  6 active torsions:
REMARK  status: ('A' for Active; 'I' for Inactive)
REMARK    1  A    between atoms: C_2  and  C_7 
REMARK    2  A    between atoms: C_2  and  N_3 
REMARK       I    between atoms: N_3  and  C_4 
REMARK    3  A    between atoms: N_16  and  C_17 
REMARK    4  A    between atoms: C_17  and  C_18 
REMARK    5  A    between atoms: C_18  and  O_19 
REMARK    6  A    between atoms: C_18  and  C_20 
ROOT
HETATM    1  C   UNL     1     -39.686 -51.624  13.325  1.00  0.00     0.107 A 
HETATM    2  N   UNL     1     -39.009 -52.334  14.208  1.00  0.00    -0.342 N 
ATOM      3  HN  UNL     1     -38.029 -52.221  14.466  1.00  0.00     0.167 HD
HETATM    4  C   UNL     1     -39.895 -53.255  14.707  1.00  0.00     0.060 A 
HETATM    5  C   UNL     1     -39.666 -54.287  15.634  1.00  0.00     0.032 A 
HETATM    6  C   UNL     1     -40.721 -55.130  15.992  1.00  0.00     0.002 A 
HETATM    7  C   UNL     1     -41.984 -54.953  15.438  1.00  0.00     0.002 A 
HETATM    8  C   UNL     1     -42.225 -53.938  14.506  1.00  0.00     0.032 A 
HETATM    9  C   UNL     1     -41.166 -53.085  14.157  1.00  0.00     0.062 A 
HETATM   10  N   UNL     1     -41.027 -51.996  13.320  1.00  0.00    -0.330 N 
ENDROOT
BRANCH  10  11
HETATM   11  C   UNL     1     -42.023 -51.366  12.466  1.00  0.00     0.167 C 
BRANCH  11  12
HETATM   12  C   UNL     1     -42.905 -50.246  13.036  1.00  0.00     0.169 C 
BRANCH  12  13
HETATM   13  O   UNL     1     -43.301 -49.350  11.996  1.00  0.00    -0.389 OA
HETATM   14  H   UNL     1     -42.645 -48.632  11.959  1.00  0.00     0.210 HD
ENDBRANCH  12  13
BRANCH  12  15
HETATM   15  C   UNL     1     -44.155 -50.706  13.770  1.00  0.00    -0.025 A 
HETATM   16  C   UNL     1     -45.227 -51.212  13.006  1.00  0.00     0.010 A 
HETATM   17  C   UNL     1     -46.430 -51.590  13.607  1.00  0.00     0.004 A 
HETATM   18  C   UNL     1     -46.585 -51.468  14.984  1.00  0.00     0.042 A 
HETATM   19  C   UNL     1     -45.533 -50.978  15.746  1.00  0.00     0.117 A 
HETATM   20  F   UNL     1     -45.682 -50.847  17.071  1.00  0.00    -0.206 F 
HETATM   21  C   UNL     1     -44.326 -50.603  15.158  1.00  0.00     0.052 A 
ENDBRANCH  12  15
ENDBRANCH  11  12
ENDBRANCH  10  11
BRANCH   1  22
HETATM   22  C   UNL     1     -39.103 -50.553  12.437  1.00  0.00     0.148 C 
HETATM   23  C   UNL     1     -37.624 -50.791  12.144  1.00  0.00     0.040 C 
BRANCH  22  24
HETATM   24  N   UNL     1     -39.294 -49.272  13.093  1.00  0.00    -0.350 N 
HETATM   25  C   UNL     1     -39.932 -48.224  12.482  1.00  0.00     0.214 C 
HETATM   26  O   UNL     1     -40.437 -48.300  11.366  1.00  0.00    -0.274 OA
HETATM   27  C   UNL     1     -39.943 -46.949  13.280  1.00  0.00     0.117 C 
HETATM   28  H   UNL     1     -38.943 -49.183  14.039  1.00  0.00     0.163 HD
ENDBRANCH  22  24
ENDBRANCH   1  22
TORSDOF 6
ENDMDL
MODEL 5
REMARK VINA RESULT:      -6.3      4.047      5.367
REMARK  6 active torsions:
REMARK  status: ('A' for Active; 'I' for Inactive)
REMARK    1  A    between atoms: C_2  and  C_7 
REMARK    2  A    between atoms: C_2  and  N_3 
REMARK       I    between atoms: N_3  and  C_4 
REMARK    3  A    between atoms: N_16  and  C_17 
REMARK    4  A    between atoms: C_17  and  C_18 
REMARK    5  A    between atoms: C_18  and  O_19 
REMARK    6  A    between atoms: C_18  and  C_20 
ROOT
HETATM    1  C   UNL     1     -42.298 -50.792  14.782  1.00  0.00     0.107 A 
HETATM    2  N   UNL     1     -43.264 -50.494  15.631  1.00  0.00    -0.342 N 
ATOM      3  HN  UNL     1     -43.166 -50.044  16.541  1.00  0.00     0.167 HD
HETATM    4  C   UNL     1     -44.428 -50.914  15.038  1.00  0.00     0.060 A 
HETATM    5  C   UNL     1     -45.738 -50.884  15.548  1.00  0.00     0.032 A 
HETATM    6  C   UNL     1     -46.784 -51.388  14.771  1.00  0.00     0.002 A 
HETATM    7  C   UNL     1     -46.535 -51.914  13.508  1.00  0.00     0.002 A 
HETATM    8  C   UNL     1     -45.235 -51.961  12.991  1.00  0.00     0.032 A 
HETATM    9  C   UNL     1     -44.187 -51.443  13.770  1.00  0.00     0.062 A 
HETATM   10  N   UNL     1     -42.825 -51.300  13.598  1.00  0.00    -0.330 N 
ENDROOT
BRANCH  10  11
HETATM   11  C   UNL     1     -42.000 -51.691  12.465  1.00  0.00     0.167 C 
BRANCH  11  12
HETATM   12  C   UNL     1     -41.660 -53.173  12.255  1.00  0.00     0.169 C 
BRANCH  12  13
HETATM   13  O   UNL     1     -40.628 -53.311  11.278  1.00  0.00    -0.389 OA
HETATM   14  H   UNL     1     -40.898 -54.012  10.659  1.00  0.00     0.210 HD
ENDBRANCH  12  13
BRANCH  12  15
HETATM   15  C   UNL     1     -41.238 -53.931  13.504  1.00  0.00    -0.025 A 
HETATM   16  C   UNL     1     -42.246 -54.468  14.331  1.00  0.00     0.010 A 
HETATM   17  C   UNL     1     -41.934 -55.117  15.527  1.00  0.00     0.004 A 
HETATM   18  C   UNL     1     -40.606 -55.240  15.922  1.00  0.00     0.042 A 
HETATM   19  C   UNL     1     -39.605 -54.721  15.113  1.00  0.00     0.117 A 
HETATM   20  F   UNL     1     -38.325 -54.826  15.495  1.00  0.00    -0.206 F 
HETATM   21  C   UNL     1     -39.904 -54.076  13.914  1.00  0.00     0.052 A 
ENDBRANCH  12  15
ENDBRANCH  11  12
ENDBRANCH  10  11
BRANCH   1  22
HETATM   22  C   UNL     1     -40.824 -50.611  15.042  1.00  0.00     0.148 C 
HETATM   23  C   UNL     1     -40.402 -51.190  16.389  1.00  0.00     0.040 C 
BRANCH  22  24
HETATM   24  N   UNL     1     -40.527 -49.191  14.981  1.00  0.00    -0.350 N 
HETATM   25  C   UNL     1     -39.785 -48.641  13.968  1.00  0.00     0.214 C 
HETATM   26  O   UNL     1     -39.364 -49.286  13.013  1.00  0.00    -0.274 OA
HETATM   27  C   UNL     1     -39.498 -47.173  14.131  1.00  0.00     0.117 C 
HETATM   28  H   UNL     1     -40.905 -48.610  15.720  1.00  0.00     0.163 HD
ENDBRANCH  22  24
ENDBRANCH   1  22
TORSDOF 6
ENDMDL
MODEL 6
REMARK VINA RESULT:      -6.2      3.211      6.049
REMARK  6 active torsions:
REMARK  status: ('A' for Active; 'I' for Inactive)
REMARK    1  A    between atoms: C_2  and  C_7 
REMARK    2  A    between atoms: C_2  and  N_3 
REMARK       I    between atoms: N_3  and  C_4 
REMARK    3  A    between atoms: N_16  and  C_17 
REMARK    4  A    between atoms: C_17  and  C_18 
REMARK    5  A    between atoms: C_18  and  O_19 
REMARK    6  A    between atoms: C_18  and  C_20 
ROOT
HETATM    1  C   UNL     1     -43.797 -50.863  13.573  1.00  0.00     0.107 A 
HETATM    2  N   UNL     1     -44.907 -50.918  14.285  1.00  0.00    -0.342 N 
ATOM      3  HN  UNL     1     -45.377 -50.143  14.752  1.00  0.00     0.167 HD
HETATM    4  C   UNL     1     -45.298 -52.233  14.269  1.00  0.00     0.060 A 
HETATM    5  C   UNL     1     -46.386 -52.837  14.923  1.00  0.00     0.032 A 
HETATM    6  C   UNL     1     -46.589 -54.212  14.780  1.00  0.00     0.002 A 
HETATM    7  C   UNL     1     -45.727 -54.976  14.002  1.00  0.00     0.002 A 
HETATM    8  C   UNL     1     -44.633 -54.391  13.354  1.00  0.00     0.032 A 
HETATM    9  C   UNL     1     -44.438 -53.007  13.489  1.00  0.00     0.062 A 
HETATM   10  N   UNL     1     -43.518 -52.101  13.001  1.00  0.00    -0.330 N 
ENDROOT
BRANCH  10  11
HETATM   11  C   UNL     1     -42.369 -52.337  12.139  1.00  0.00     0.167 C 
BRANCH  11  12
HETATM   12  C   UNL     1     -41.380 -53.456  12.492  1.00  0.00     0.169 C 
BRANCH  12  13
HETATM   13  O   UNL     1     -40.324 -53.504  11.530  1.00  0.00    -0.389 OA
HETATM   14  H   UNL     1     -40.718 -53.732  10.670  1.00  0.00     0.210 HD
ENDBRANCH  12  13
BRANCH  12  15
HETATM   15  C   UNL     1     -40.759 -53.368  13.877  1.00  0.00    -0.025 A 
HETATM   16  C   UNL     1     -39.895 -52.288  14.153  1.00  0.00     0.010 A 
HETATM   17  C   UNL     1     -39.238 -52.180  15.380  1.00  0.00     0.004 A 
HETATM   18  C   UNL     1     -39.429 -53.153  16.356  1.00  0.00     0.042 A 
HETATM   19  C   UNL     1     -40.282 -54.217  16.098  1.00  0.00     0.117 A 
HETATM   20  F   UNL     1     -40.460 -55.163  17.030  1.00  0.00    -0.206 F 
HETATM   21  C   UNL     1     -40.948 -54.332  14.879  1.00  0.00     0.052 A 
ENDBRANCH  12  15
ENDBRANCH  11  12
ENDBRANCH  10  11
BRANCH   1  22
HETATM   22  C   UNL     1     -42.938 -49.636  13.392  1.00  0.00     0.148 C 
HETATM   23  C   UNL     1     -42.984 -48.717  14.609  1.00  0.00     0.040 C 
BRANCH  22  24
HETATM   24  N   UNL     1     -43.400 -48.936  12.206  1.00  0.00    -0.350 N 
HETATM   25  C   UNL     1     -42.534 -48.433  11.269  1.00  0.00     0.214 C 
HETATM   26  O   UNL     1     -41.317 -48.580  11.328  1.00  0.00    -0.274 OA
HETATM   27  C   UNL     1     -43.194 -47.652  10.165  1.00  0.00     0.117 C 
HETATM   28  H   UNL     1     -44.401 -48.841  12.087  1.00  0.00     0.163 HD
ENDBRANCH  22  24
ENDBRANCH   1  22
TORSDOF 6
ENDMDL
MODEL 7
REMARK VINA RESULT:      -6.2      4.671      6.474
REMARK  6 active torsions:
REMARK  status: ('A' for Active; 'I' for Inactive)
REMARK    1  A    between atoms: C_2  and  C_7 
REMARK    2  A    between atoms: C_2  and  N_3 
REMARK       I    between atoms: N_3  and  C_4 
REMARK    3  A    between atoms: N_16  and  C_17 
REMARK    4  A    between atoms: C_17  and  C_18 
REMARK    5  A    between atoms: C_18  and  O_19 
REMARK    6  A    between atoms: C_18  and  C_20 
ROOT
HETATM    1  C   UNL     1     -38.838 -52.485  15.897  1.00  0.00     0.107 A 
HETATM    2  N   UNL     1     -38.286 -51.424  16.456  1.00  0.00    -0.342 N 
ATOM      3  HN  UNL     1     -38.056 -51.300  17.442  1.00  0.00     0.167 HD
HETATM    4  C   UNL     1     -38.086 -50.525  15.440  1.00  0.00     0.060 A 
HETATM    5  C   UNL     1     -37.580 -49.215  15.508  1.00  0.00     0.032 A 
HETATM    6  C   UNL     1     -37.478 -48.461  14.337  1.00  0.00     0.002 A 
HETATM    7  C   UNL     1     -37.873 -48.997  13.116  1.00  0.00     0.002 A 
HETATM    8  C   UNL     1     -38.389 -50.295  13.033  1.00  0.00     0.032 A 
HETATM    9  C   UNL     1     -38.479 -51.055  14.210  1.00  0.00     0.062 A 
HETATM   10  N   UNL     1     -38.901 -52.334  14.514  1.00  0.00    -0.330 N 
ENDROOT
BRANCH  10  11
HETATM   11  C   UNL     1     -39.436 -53.356  13.627  1.00  0.00     0.167 C 
BRANCH  11  12
HETATM   12  C   UNL     1     -40.732 -53.078  12.852  1.00  0.00     0.169 C 
BRANCH  12  13
HETATM   13  O   UNL     1     -40.574 -53.437  11.478  1.00  0.00    -0.389 OA
HETATM   14  H   UNL     1     -41.461 -53.597  11.111  1.00  0.00     0.210 HD
ENDBRANCH  12  13
BRANCH  12  15
HETATM   15  C   UNL     1     -41.975 -53.772  13.385  1.00  0.00    -0.025 A 
HETATM   16  C   UNL     1     -43.194 -53.569  12.707  1.00  0.00     0.010 A 
HETATM   17  C   UNL     1     -44.388 -54.121  13.178  1.00  0.00     0.004 A 
HETATM   18  C   UNL     1     -44.385 -54.885  14.341  1.00  0.00     0.042 A 
HETATM   19  C   UNL     1     -43.190 -55.097  15.013  1.00  0.00     0.117 A 
HETATM   20  F   UNL     1     -43.185 -55.822  16.139  1.00  0.00    -0.206 F 
HETATM   21  C   UNL     1     -41.992 -54.556  14.548  1.00  0.00     0.052 A 
ENDBRANCH  12  15
ENDBRANCH  11  12
ENDBRANCH  10  11
BRANCH   1  22
HETATM   22  C   UNL     1     -39.335 -53.701  16.637  1.00  0.00     0.148 C 
HETATM   23  C   UNL     1     -40.378 -53.345  17.692  1.00  0.00     0.040 C 
BRANCH  22  24
HETATM   24  N   UNL     1     -38.192 -54.353  17.250  1.00  0.00    -0.350 N 
HETATM   25  C   UNL     1     -37.652 -55.509  16.747  1.00  0.00     0.214 C 
HETATM   26  O   UNL     1     -38.050 -56.048  15.720  1.00  0.00    -0.274 OA
HETATM   27  C   UNL     1     -36.538 -56.089  17.576  1.00  0.00     0.117 C 
HETATM   28  H   UNL     1     -37.793 -53.910  18.069  1.00  0.00     0.163 HD
ENDBRANCH  22  24
ENDBRANCH   1  22
TORSDOF 6
ENDMDL
MODEL 8
REMARK VINA RESULT:      -6.1      3.018      5.754
REMARK  6 active torsions:
REMARK  status: ('A' for Active; 'I' for Inactive)
REMARK    1  A    between atoms: C_2  and  C_7 
REMARK    2  A    between atoms: C_2  and  N_3 
REMARK       I    between atoms: N_3  and  C_4 
REMARK    3  A    between atoms: N_16  and  C_17 
REMARK    4  A    between atoms: C_17  and  C_18 
REMARK    5  A    between atoms: C_18  and  O_19 
REMARK    6  A    between atoms: C_18  and  C_20 
ROOT
HETATM    1  C   UNL     1     -41.272 -52.512  14.098  1.00  0.00     0.107 A 
HETATM    2  N   UNL     1     -41.976 -52.766  15.186  1.00  0.00    -0.342 N 
ATOM      3  HN  UNL     1     -41.644 -53.207  16.044  1.00  0.00     0.167 HD
HETATM    4  C   UNL     1     -43.244 -52.314  14.926  1.00  0.00     0.060 A 
HETATM    5  C   UNL     1     -44.392 -52.396  15.734  1.00  0.00     0.032 A 
HETATM    6  C   UNL     1     -45.600 -51.880  15.257  1.00  0.00     0.002 A 
HETATM    7  C   UNL     1     -45.669 -51.293  13.999  1.00  0.00     0.002 A 
HETATM    8  C   UNL     1     -44.537 -51.214  13.178  1.00  0.00     0.032 A 
HETATM    9  C   UNL     1     -43.323 -51.722  13.665  1.00  0.00     0.062 A 
HETATM   10  N   UNL     1     -42.034 -51.804  13.174  1.00  0.00    -0.330 N 
ENDROOT
BRANCH  10  11
HETATM   11  C   UNL     1     -41.515 -51.360  11.889  1.00  0.00     0.167 C 
BRANCH  11  12
HETATM   12  C   UNL     1     -40.751 -50.031  11.803  1.00  0.00     0.169 C 
BRANCH  12  13
HETATM   13  O   UNL     1     -39.741 -50.105  10.796  1.00  0.00    -0.389 OA
HETATM   14  H   UNL     1     -39.991 -50.815  10.179  1.00  0.00     0.210 HD
ENDBRANCH  12  13
BRANCH  12  15
HETATM   15  C   UNL     1     -41.605 -48.802  11.532  1.00  0.00    -0.025 A 
HETATM   16  C   UNL     1     -42.250 -48.184  12.623  1.00  0.00     0.010 A 
HETATM   17  C   UNL     1     -43.102 -47.093  12.438  1.00  0.00     0.004 A 
HETATM   18  C   UNL     1     -43.327 -46.600  11.157  1.00  0.00     0.042 A 
HETATM   19  C   UNL     1     -42.692 -47.195  10.077  1.00  0.00     0.117 A 
HETATM   20  F   UNL     1     -42.916 -46.731   8.841  1.00  0.00    -0.206 F 
HETATM   21  C   UNL     1     -41.835 -48.281  10.250  1.00  0.00     0.052 A 
ENDBRANCH  12  15
ENDBRANCH  11  12
ENDBRANCH  10  11
BRANCH   1  22
HETATM   22  C   UNL     1     -39.839 -52.925  13.872  1.00  0.00     0.148 C 
HETATM   23  C   UNL     1     -39.532 -54.293  14.475  1.00  0.00     0.040 C 
BRANCH  22  24
HETATM   24  N   UNL     1     -38.981 -51.907  14.453  1.00  0.00    -0.350 N 
HETATM   25  C   UNL     1     -37.979 -51.300  13.740  1.00  0.00     0.214 C 
HETATM   26  O   UNL     1     -37.765 -51.524  12.553  1.00  0.00    -0.274 OA
HETATM   27  C   UNL     1     -37.133 -50.348  14.541  1.00  0.00     0.117 C 
HETATM   28  H   UNL     1     -39.160 -51.649  15.416  1.00  0.00     0.163 HD
ENDBRANCH  22  24
ENDBRANCH   1  22
TORSDOF 6
ENDMDL
MODEL 9
REMARK VINA RESULT:      -6.0      2.519      2.952
REMARK  6 active torsions:
REMARK  status: ('A' for Active; 'I' for Inactive)
REMARK    1  A    between atoms: C_2  and  C_7 
REMARK    2  A    between atoms: C_2  and  N_3 
REMARK       I    between atoms: N_3  and  C_4 
REMARK    3  A    between atoms: N_16  and  C_17 
REMARK    4  A    between atoms: C_17  and  C_18 
REMARK    5  A    between atoms: C_18  and  O_19 
REMARK    6  A    between atoms: C_18  and  C_20 
ROOT
HETATM    1  C   UNL     1     -40.552 -47.866  12.399  1.00  0.00     0.107 A 
HETATM    2  N   UNL     1     -40.478 -46.805  11.617  1.00  0.00    -0.342 N 
ATOM      3  HN  UNL     1     -39.698 -46.153  11.538  1.00  0.00     0.167 HD
HETATM    4  C   UNL     1     -41.666 -46.760  10.934  1.00  0.00     0.060 A 
HETATM    5  C   UNL     1     -42.120 -45.795  10.017  1.00  0.00     0.032 A 
HETATM    6  C   UNL     1     -43.388 -45.938   9.447  1.00  0.00     0.002 A 
HETATM    7  C   UNL     1     -44.193 -47.021   9.781  1.00  0.00     0.002 A 
HETATM    8  C   UNL     1     -43.760 -47.984  10.699  1.00  0.00     0.032 A 
HETATM    9  C   UNL     1     -42.481 -47.844  11.262  1.00  0.00     0.062 A 
HETATM   10  N   UNL     1     -41.725 -48.575  12.156  1.00  0.00    -0.330 N 
ENDROOT
BRANCH  10  11
HETATM   11  C   UNL     1     -42.067 -49.807  12.851  1.00  0.00     0.167 C 
BRANCH  11  12
HETATM   12  C   UNL     1     -41.838 -51.154  12.152  1.00  0.00     0.169 C 
BRANCH  12  13
HETATM   13  O   UNL     1     -40.775 -51.045  11.203  1.00  0.00    -0.389 OA
HETATM   14  H   UNL     1     -41.080 -50.465  10.483  1.00  0.00     0.210 HD
ENDBRANCH  12  13
BRANCH  12  15
HETATM   15  C   UNL     1     -41.536 -52.326  13.073  1.00  0.00    -0.025 A 
HETATM   16  C   UNL     1     -42.361 -52.517  14.201  1.00  0.00     0.010 A 
HETATM   17  C   UNL     1     -42.102 -53.532  15.125  1.00  0.00     0.004 A 
HETATM   18  C   UNL     1     -41.011 -54.375  14.939  1.00  0.00     0.042 A 
HETATM   19  C   UNL     1     -40.197 -54.201  13.829  1.00  0.00     0.117 A 
HETATM   20  F   UNL     1     -39.138 -55.002  13.654  1.00  0.00    -0.206 F 
HETATM   21  C   UNL     1     -40.449 -53.195  12.897  1.00  0.00     0.052 A 
ENDBRANCH  12  15
ENDBRANCH  11  12
ENDBRANCH  10  11
BRANCH   1  22
HETATM   22  C   UNL     1     -39.517 -48.269  13.419  1.00  0.00     0.148 C 
HETATM   23  C   UNL     1     -38.744 -47.070  13.960  1.00  0.00     0.040 C 
BRANCH  22  24
HETATM   24  N   UNL     1     -38.614 -49.218  12.792  1.00  0.00    -0.350 N 
HETATM   25  C   UNL     1     -38.171 -50.344  13.437  1.00  0.00     0.214 C 
HETATM   26  O   UNL     1     -38.542 -50.667  14.561  1.00  0.00    -0.274 OA
HETATM   27  C   UNL     1     -37.163 -51.150  12.663  1.00  0.00     0.117 C 
HETATM   28  H   UNL     1     -38.326 -49.021  11.841  1.00  0.00     0.163 HD
ENDBRANCH  22  24
ENDBRANCH   1  22
TORSDOF 6
ENDMDL
