MODEL 1
REMARK VINA RESULT:      -6.9      0.000      0.000
REMARK  5 active torsions:
REMARK  status: ('A' for Active; 'I' for Inactive)
REMARK    1  A    between atoms: N_8  and  C_9 
REMARK    2  A    between atoms: C_9  and  C_10 
REMARK    3  A    between atoms: C_10  and  O_11 
REMARK    4  A    between atoms: C_10  and  C_12 
REMARK    5  A    between atoms: C_12  and  N_13 
ROOT
HETATM    1  C   UNL     1     -41.933 -49.891  12.112  1.00  0.00     0.163 C 
ENDROOT
BRANCH   1   2
HETATM    2  N   UNL     1     -42.197 -51.297  12.342  1.00  0.00    -0.339 N 
HETATM    3  C   UNL     1     -41.353 -52.325  12.024  1.00  0.00     0.184 A 
HETATM    4  N   UNL     1     -41.844 -53.486  12.395  1.00  0.00    -0.350 N 
HETATM    5  C   UNL     1     -43.071 -53.200  12.941  1.00  0.00     0.060 A 
ATOM      6  HN  UNL     1     -41.407 -54.403  12.299  1.00  0.00     0.166 HD
HETATM    7  C   UNL     1     -44.025 -54.067  13.500  1.00  0.00     0.039 A 
HETATM    8  C   UNL     1     -43.333 -51.837  12.898  1.00  0.00     0.062 A 
HETATM    9  C   UNL     1     -45.227 -53.542  14.011  1.00  0.00    -0.054 A 
HETATM   10  C   UNL     1     -46.219 -54.489  14.634  1.00  0.00     0.049 C 
HETATM   11  C   UNL     1     -45.479 -52.155  13.940  1.00  0.00    -0.054 A 
HETATM   12  C   UNL     1     -44.529 -51.284  13.372  1.00  0.00     0.039 A 
HETATM   13  C   UNL     1     -46.761 -51.573  14.479  1.00  0.00     0.049 C 
ENDBRANCH   1   2
BRANCH   1  14
HETATM   14  C   UNL     1     -40.538 -49.588  11.525  1.00  0.00     0.164 C 
BRANCH  14  15
HETATM   15  O   UNL     1     -40.478 -49.901  10.129  1.00  0.00    -0.392 OA
HETATM   16  H   UNL     1     -39.640 -50.369   9.953  1.00  0.00     0.210 HD
ENDBRANCH  14  15
BRANCH  14  17
HETATM   17  C   UNL     1     -40.028 -48.147  11.773  1.00  0.00     0.306 C 
BRANCH  17  18
HETATM   18  N   UNL     1     -41.106 -47.156  11.864  1.00  0.00     0.101 N 
HETATM   19  C   UNL     1     -40.958 -46.221  12.995  1.00  0.00     0.292 C 
HETATM   20  C   UNL     1     -42.276 -45.449  13.140  1.00  0.00     0.152 C 
HETATM   21  N   UNL     1     -42.701 -44.828  11.904  1.00  0.00    -0.358 N 
HETATM   22  C   UNL     1     -42.400 -45.378  10.680  1.00  0.00     0.246 C 
HETATM   23  H   UNL     1     -43.538 -44.256  11.899  1.00  0.00     0.162 HD
HETATM   24  O   UNL     1     -43.013 -45.014   9.677  1.00  0.00    -0.272 OA
HETATM   25  C   UNL     1     -41.207 -46.349  10.620  1.00  0.00     0.374 C 
ENDBRANCH  17  18
ENDBRANCH  14  17
ENDBRANCH   1  14
TORSDOF 5
ENDMDL
MODEL 2
REMARK VINA RESULT:      -6.8      2.203      3.766
REMARK  5 active torsions:
REMARK  status: ('A' for Active; 'I' for Inactive)
REMARK    1  A    between atoms: N_8  and  C_9 
REMARK    2  A    between atoms: C_9  and  C_10 
REMARK    3  A    between atoms: C_10  and  O_11 
REMARK    4  A    between atoms: C_10  and  C_12 
REMARK    5  A    between atoms: C_12  and  N_13 
ROOT
HETATM    1  C   UNL     1     -42.122 -49.631  12.275  1.00  0.00     0.163 C 
ENDROOT
BRANCH   1   2
HETATM    2  N   UNL     1     -42.406 -51.047  12.395  1.00  0.00    -0.339 N 
HETATM    3  C   UNL     1     -41.611 -52.057  11.930  1.00  0.00     0.184 A 
HETATM    4  N   UNL     1     -42.106 -53.237  12.227  1.00  0.00    -0.350 N 
HETATM    5  C   UNL     1     -43.288 -52.979  12.876  1.00  0.00     0.060 A 
ATOM      6  HN  UNL     1     -41.699 -54.149  12.020  1.00  0.00     0.166 HD
HETATM    7  C   UNL     1     -44.227 -53.874  13.416  1.00  0.00     0.039 A 
HETATM    8  C   UNL     1     -43.518 -51.613  12.973  1.00  0.00     0.062 A 
HETATM    9  C   UNL     1     -45.380 -53.375  14.049  1.00  0.00    -0.054 A 
HETATM   10  C   UNL     1     -46.354 -54.356  14.648  1.00  0.00     0.049 C 
HETATM   11  C   UNL     1     -45.602 -51.983  14.120  1.00  0.00    -0.054 A 
HETATM   12  C   UNL     1     -44.667 -51.082  13.572  1.00  0.00     0.039 A 
HETATM   13  C   UNL     1     -46.831 -51.428  14.793  1.00  0.00     0.049 C 
ENDBRANCH   1   2
BRANCH   1  14
HETATM   14  C   UNL     1     -40.976 -49.287  11.301  1.00  0.00     0.164 C 
BRANCH  14  15
HETATM   15  O   UNL     1     -41.480 -48.828  10.041  1.00  0.00    -0.392 OA
HETATM   16  H   UNL     1     -41.806 -47.914  10.155  1.00  0.00     0.210 HD
ENDBRANCH  14  15
BRANCH  14  17
HETATM   17  C   UNL     1     -39.930 -48.288  11.855  1.00  0.00     0.306 C 
BRANCH  17  18
HETATM   18  N   UNL     1     -38.820 -48.938  12.561  1.00  0.00     0.101 N 
HETATM   19  C   UNL     1     -39.007 -49.008  14.023  1.00  0.00     0.292 C 
HETATM   20  C   UNL     1     -37.671 -49.433  14.645  1.00  0.00     0.152 C 
HETATM   21  N   UNL     1     -37.135 -50.640  14.054  1.00  0.00    -0.358 N 
HETATM   22  C   UNL     1     -37.373 -50.965  12.740  1.00  0.00     0.246 C 
HETATM   23  H   UNL     1     -36.276 -51.033  14.423  1.00  0.00     0.162 HD
HETATM   24  O   UNL     1     -36.676 -51.813  12.182  1.00  0.00    -0.272 OA
HETATM   25  C   UNL     1     -38.598 -50.322  12.066  1.00  0.00     0.374 C 
ENDBRANCH  17  18
ENDBRANCH  14  17
ENDBRANCH   1  14
TORSDOF 5
ENDMDL
MODEL 3
REMARK VINA RESULT:      -6.5      2.978      4.152
REMARK  5 active torsions:
REMARK  status: ('A' for Active; 'I' for Inactive)
REMARK    1  A    between atoms: N_8  and  C_9 
REMARK    2  A    between atoms: C_9  and  C_10 
REMARK    3  A    between atoms: C_10  and  O_11 
REMARK    4  A    between atoms: C_10  and  C_12 
REMARK    5  A    between atoms: C_12  and  N_13 
ROOT
HETATM    1  C   UNL     1     -42.114 -54.285  13.604  1.00  0.00     0.163 C 
ENDROOT
BRANCH   1   2
HETATM    2  N   UNL     1     -43.319 -53.514  13.373  1.00  0.00    -0.339 N 
HETATM    3  C   UNL     1     -43.807 -53.151  12.149  1.00  0.00     0.184 A 
HETATM    4  N   UNL     1     -44.941 -52.497  12.254  1.00  0.00    -0.350 N 
HETATM    5  C   UNL     1     -45.176 -52.399  13.604  1.00  0.00     0.060 A 
ATOM      6  HN  UNL     1     -45.522 -52.138  11.497  1.00  0.00     0.166 HD
HETATM    7  C   UNL     1     -46.249 -51.800  14.283  1.00  0.00     0.039 A 
HETATM    8  C   UNL     1     -44.162 -53.005  14.334  1.00  0.00     0.062 A 
HETATM    9  C   UNL     1     -46.284 -51.826  15.690  1.00  0.00    -0.054 A 
HETATM   10  C   UNL     1     -47.462 -51.205  16.394  1.00  0.00     0.049 C 
HETATM   11  C   UNL     1     -45.233 -52.432  16.412  1.00  0.00    -0.054 A 
HETATM   12  C   UNL     1     -44.150 -53.026  15.734  1.00  0.00     0.039 A 
HETATM   13  C   UNL     1     -45.249 -52.469  17.918  1.00  0.00     0.049 C 
ENDBRANCH   1   2
BRANCH   1  14
HETATM   14  C   UNL     1     -40.810 -53.583  13.169  1.00  0.00     0.164 C 
BRANCH  14  15
HETATM   15  O   UNL     1     -40.628 -53.651  11.750  1.00  0.00    -0.392 OA
HETATM   16  H   UNL     1     -39.982 -52.965  11.490  1.00  0.00     0.210 HD
ENDBRANCH  14  15
BRANCH  14  17
HETATM   17  C   UNL     1     -40.667 -52.120  13.658  1.00  0.00     0.306 C 
BRANCH  17  18
HETATM   18  N   UNL     1     -40.272 -51.188  12.596  1.00  0.00     0.101 N 
HETATM   19  C   UNL     1     -41.128 -49.989  12.510  1.00  0.00     0.292 C 
HETATM   20  C   UNL     1     -40.791 -49.267  11.200  1.00  0.00     0.152 C 
HETATM   21  N   UNL     1     -39.376 -49.000  11.053  1.00  0.00    -0.358 N 
HETATM   22  C   UNL     1     -38.426 -49.830  11.602  1.00  0.00     0.246 C 
HETATM   23  H   UNL     1     -39.049 -48.487  10.243  1.00  0.00     0.162 HD
HETATM   24  O   UNL     1     -37.258 -49.762  11.220  1.00  0.00    -0.272 OA
HETATM   25  C   UNL     1     -38.868 -50.730  12.770  1.00  0.00     0.374 C 
ENDBRANCH  17  18
ENDBRANCH  14  17
ENDBRANCH   1  14
TORSDOF 5
ENDMDL
MODEL 4
REMARK VINA RESULT:      -6.3      2.862      6.793
REMARK  5 active torsions:
REMARK  status: ('A' for Active; 'I' for Inactive)
REMARK    1  A    between atoms: N_8  and  C_9 
REMARK    2  A    between atoms: C_9  and  C_10 
REMARK    3  A    between atoms: C_10  and  O_11 
REMARK    4  A    between atoms: C_10  and  C_12 
REMARK    5  A    between atoms: C_12  and  N_13 
ROOT
HETATM    1  C   UNL     1     -40.419 -52.083  13.663  1.00  0.00     0.163 C 
ENDROOT
BRANCH   1   2
HETATM    2  N   UNL     1     -39.764 -50.924  13.093  1.00  0.00    -0.339 N 
HETATM    3  C   UNL     1     -38.412 -50.736  13.015  1.00  0.00     0.184 A 
HETATM    4  N   UNL     1     -38.114 -49.612  12.404  1.00  0.00    -0.350 N 
HETATM    5  C   UNL     1     -39.323 -49.032  12.109  1.00  0.00     0.060 A 
ATOM      6  HN  UNL     1     -37.185 -49.248  12.194  1.00  0.00     0.166 HD
HETATM    7  C   UNL     1     -39.598 -47.819  11.455  1.00  0.00     0.039 A 
HETATM    8  C   UNL     1     -40.378 -49.819  12.553  1.00  0.00     0.062 A 
HETATM    9  C   UNL     1     -40.934 -47.423  11.255  1.00  0.00    -0.054 A 
HETATM   10  C   UNL     1     -41.201 -46.134  10.522  1.00  0.00     0.049 C 
HETATM   11  C   UNL     1     -41.989 -48.230  11.731  1.00  0.00    -0.054 A 
HETATM   12  C   UNL     1     -41.718 -49.443  12.395  1.00  0.00     0.039 A 
HETATM   13  C   UNL     1     -43.426 -47.824  11.529  1.00  0.00     0.049 C 
ENDBRANCH   1   2
BRANCH   1  14
HETATM   14  C   UNL     1     -41.303 -52.872  12.675  1.00  0.00     0.164 C 
BRANCH  14  15
HETATM   15  O   UNL     1     -40.592 -53.183  11.471  1.00  0.00    -0.392 OA
HETATM   16  H   UNL     1     -39.674 -52.865  11.565  1.00  0.00     0.210 HD
ENDBRANCH  14  15
BRANCH  14  17
HETATM   17  C   UNL     1     -41.950 -54.152  13.260  1.00  0.00     0.306 C 
BRANCH  17  18
HETATM   18  N   UNL     1     -43.414 -54.162  13.162  1.00  0.00     0.101 N 
HETATM   19  C   UNL     1     -44.079 -54.846  14.286  1.00  0.00     0.292 C 
HETATM   20  C   UNL     1     -45.554 -55.037  13.912  1.00  0.00     0.152 C 
HETATM   21  N   UNL     1     -46.193 -53.805  13.501  1.00  0.00    -0.358 N 
HETATM   22  C   UNL     1     -45.488 -52.801  12.880  1.00  0.00     0.246 C 
HETATM   23  H   UNL     1     -47.181 -53.811  13.274  1.00  0.00     0.162 HD
HETATM   24  O   UNL     1     -46.090 -51.912  12.278  1.00  0.00    -0.272 OA
HETATM   25  C   UNL     1     -43.962 -52.784  13.082  1.00  0.00     0.374 C 
ENDBRANCH  17  18
ENDBRANCH  14  17
ENDBRANCH   1  14
TORSDOF 5
ENDMDL
MODEL 5
REMARK VINA RESULT:      -6.0      3.397      4.277
REMARK  5 active torsions:
REMARK  status: ('A' for Active; 'I' for Inactive)
REMARK    1  A    between atoms: N_8  and  C_9 
REMARK    2  A    between atoms: C_9  and  C_10 
REMARK    3  A    between atoms: C_10  and  O_11 
REMARK    4  A    between atoms: C_10  and  C_12 
REMARK    5  A    between atoms: C_12  and  N_13 
ROOT
HETATM    1  C   UNL     1     -40.553 -52.972  15.689  1.00  0.00     0.163 C 
ENDROOT
BRANCH   1   2
HETATM    2  N   UNL     1     -41.302 -53.258  14.482  1.00  0.00    -0.339 N 
HETATM    3  C   UNL     1     -40.843 -53.983  13.417  1.00  0.00     0.184 A 
HETATM    4  N   UNL     1     -41.763 -54.115  12.489  1.00  0.00    -0.350 N 
HETATM    5  C   UNL     1     -42.848 -53.415  12.956  1.00  0.00     0.060 A 
ATOM      6  HN  UNL     1     -41.688 -54.628  11.611  1.00  0.00     0.166 HD
HETATM    7  C   UNL     1     -44.110 -53.225  12.368  1.00  0.00     0.039 A 
HETATM    8  C   UNL     1     -42.581 -52.843  14.192  1.00  0.00     0.062 A 
HETATM    9  C   UNL     1     -45.083 -52.462  13.041  1.00  0.00    -0.054 A 
HETATM   10  C   UNL     1     -46.438 -52.301  12.404  1.00  0.00     0.049 C 
HETATM   11  C   UNL     1     -44.783 -51.876  14.289  1.00  0.00    -0.054 A 
HETATM   12  C   UNL     1     -43.516 -52.057  14.878  1.00  0.00     0.039 A 
HETATM   13  C   UNL     1     -45.810 -51.055  15.026  1.00  0.00     0.049 C 
ENDBRANCH   1   2
BRANCH   1  14
HETATM   14  C   UNL     1     -39.913 -51.568  15.728  1.00  0.00     0.164 C 
BRANCH  14  15
HETATM   15  O   UNL     1     -39.697 -51.130  17.075  1.00  0.00    -0.392 OA
HETATM   16  H   UNL     1     -39.865 -51.882  17.674  1.00  0.00     0.210 HD
ENDBRANCH  14  15
BRANCH  14  17
HETATM   17  C   UNL     1     -38.610 -51.426  14.903  1.00  0.00     0.306 C 
BRANCH  17  18
HETATM   18  N   UNL     1     -38.846 -51.075  13.498  1.00  0.00     0.101 N 
HETATM   19  C   UNL     1     -40.043 -50.240  13.288  1.00  0.00     0.292 C 
HETATM   20  C   UNL     1     -40.328 -50.200  11.782  1.00  0.00     0.152 C 
HETATM   21  N   UNL     1     -39.176 -49.798  11.003  1.00  0.00    -0.358 N 
HETATM   22  C   UNL     1     -37.894 -50.077  11.416  1.00  0.00     0.246 C 
HETATM   23  H   UNL     1     -39.268 -49.696   9.999  1.00  0.00     0.162 HD
HETATM   24  O   UNL     1     -36.962 -50.002  10.616  1.00  0.00    -0.272 OA
HETATM   25  C   UNL     1     -37.683 -50.356  12.915  1.00  0.00     0.374 C 
ENDBRANCH  17  18
ENDBRANCH  14  17
ENDBRANCH   1  14
TORSDOF 5
ENDMDL
MODEL 6
REMARK VINA RESULT:      -5.9      1.418      1.707
REMARK  5 active torsions:
REMARK  status: ('A' for Active; 'I' for Inactive)
REMARK    1  A    between atoms: N_8  and  C_9 
REMARK    2  A    between atoms: C_9  and  C_10 
REMARK    3  A    between atoms: C_10  and  O_11 
REMARK    4  A    between atoms: C_10  and  C_12 
REMARK    5  A    between atoms: C_12  and  N_13 
ROOT
HETATM    1  C   UNL     1     -40.583 -50.053  13.029  1.00  0.00     0.163 C 
ENDROOT
BRANCH   1   2
HETATM    2  N   UNL     1     -40.953 -51.449  13.144  1.00  0.00    -0.339 N 
HETATM    3  C   UNL     1     -40.081 -52.502  13.167  1.00  0.00     0.184 A 
HETATM    4  N   UNL     1     -40.707 -53.645  13.328  1.00  0.00    -0.350 N 
HETATM    5  C   UNL     1     -42.041 -53.322  13.372  1.00  0.00     0.060 A 
ATOM      6  HN  UNL     1     -40.292 -54.574  13.404  1.00  0.00     0.166 HD
HETATM    7  C   UNL     1     -43.159 -54.158  13.532  1.00  0.00     0.039 A 
HETATM    8  C   UNL     1     -42.229 -51.954  13.232  1.00  0.00     0.062 A 
HETATM    9  C   UNL     1     -44.450 -53.597  13.552  1.00  0.00    -0.054 A 
HETATM   10  C   UNL     1     -45.629 -54.511  13.757  1.00  0.00     0.049 C 
HETATM   11  C   UNL     1     -44.618 -52.205  13.390  1.00  0.00    -0.054 A 
HETATM   12  C   UNL     1     -43.500 -51.365  13.221  1.00  0.00     0.039 A 
HETATM   13  C   UNL     1     -45.991 -51.584  13.407  1.00  0.00     0.049 C 
ENDBRANCH   1   2
BRANCH   1  14
HETATM   14  C   UNL     1     -40.663 -49.485  11.596  1.00  0.00     0.164 C 
BRANCH  14  15
HETATM   15  O   UNL     1     -40.641 -50.529  10.617  1.00  0.00    -0.392 OA
HETATM   16  H   UNL     1     -39.736 -50.896  10.579  1.00  0.00     0.210 HD
ENDBRANCH  14  15
BRANCH  14  17
HETATM   17  C   UNL     1     -41.862 -48.537  11.340  1.00  0.00     0.306 C 
BRANCH  17  18
HETATM   18  N   UNL     1     -41.606 -47.151  11.747  1.00  0.00     0.101 N 
HETATM   19  C   UNL     1     -41.099 -46.297  10.657  1.00  0.00     0.292 C 
HETATM   20  C   UNL     1     -40.605 -44.986  11.281  1.00  0.00     0.152 C 
HETATM   21  N   UNL     1     -41.600 -44.354  12.120  1.00  0.00    -0.358 N 
HETATM   22  C   UNL     1     -42.535 -45.090  12.809  1.00  0.00     0.246 C 
HETATM   23  H   UNL     1     -41.392 -43.458  12.546  1.00  0.00     0.162 HD
HETATM   24  O   UNL     1     -43.162 -44.574  13.733  1.00  0.00    -0.272 OA
HETATM   25  C   UNL     1     -42.830 -46.510  12.293  1.00  0.00     0.374 C 
ENDBRANCH  17  18
ENDBRANCH  14  17
ENDBRANCH   1  14
TORSDOF 5
ENDMDL
MODEL 7
REMARK VINA RESULT:      -5.8      1.820      2.100
REMARK  5 active torsions:
REMARK  status: ('A' for Active; 'I' for Inactive)
REMARK    1  A    between atoms: N_8  and  C_9 
REMARK    2  A    between atoms: C_9  and  C_10 
REMARK    3  A    between atoms: C_10  and  O_11 
REMARK    4  A    between atoms: C_10  and  C_12 
REMARK    5  A    between atoms: C_12  and  N_13 
ROOT
HETATM    1  C   UNL     1     -40.949 -50.006  13.819  1.00  0.00     0.163 C 
ENDROOT
BRANCH   1   2
HETATM    2  N   UNL     1     -41.572 -51.094  13.093  1.00  0.00    -0.339 N 
HETATM    3  C   UNL     1     -41.231 -51.505  11.835  1.00  0.00     0.184 A 
HETATM    4  N   UNL     1     -41.940 -52.545  11.457  1.00  0.00    -0.350 N 
HETATM    5  C   UNL     1     -42.801 -52.790  12.498  1.00  0.00     0.060 A 
ATOM      6  HN  UNL     1     -41.867 -53.059  10.579  1.00  0.00     0.166 HD
HETATM    7  C   UNL     1     -43.781 -53.788  12.631  1.00  0.00     0.039 A 
HETATM    8  C   UNL     1     -42.613 -51.880  13.529  1.00  0.00     0.062 A 
HETATM    9  C   UNL     1     -44.553 -53.852  13.807  1.00  0.00    -0.054 A 
HETATM   10  C   UNL     1     -45.574 -54.951  13.939  1.00  0.00     0.049 C 
HETATM   11  C   UNL     1     -44.357 -52.905  14.834  1.00  0.00    -0.054 A 
HETATM   12  C   UNL     1     -43.381 -51.897  14.700  1.00  0.00     0.039 A 
HETATM   13  C   UNL     1     -45.173 -52.954  16.100  1.00  0.00     0.049 C 
ENDBRANCH   1   2
BRANCH   1  14
HETATM   14  C   UNL     1     -41.503 -48.606  13.478  1.00  0.00     0.164 C 
BRANCH  14  15
HETATM   15  O   UNL     1     -41.808 -47.862  14.663  1.00  0.00    -0.392 OA
HETATM   16  H   UNL     1     -42.435 -48.383  15.201  1.00  0.00     0.210 HD
ENDBRANCH  14  15
BRANCH  14  17
HETATM   17  C   UNL     1     -40.607 -47.766  12.534  1.00  0.00     0.306 C 
BRANCH  17  18
HETATM   18  N   UNL     1     -41.331 -47.216  11.382  1.00  0.00     0.101 N 
HETATM   19  C   UNL     1     -42.380 -48.111  10.859  1.00  0.00     0.292 C 
HETATM   20  C   UNL     1     -42.842 -47.552   9.508  1.00  0.00     0.152 C 
HETATM   21  N   UNL     1     -43.227 -46.158   9.579  1.00  0.00    -0.358 N 
HETATM   22  C   UNL     1     -42.644 -45.295  10.476  1.00  0.00     0.246 C 
HETATM   23  H   UNL     1     -43.590 -45.702   8.750  1.00  0.00     0.162 HD
HETATM   24  O   UNL     1     -42.759 -44.079  10.320  1.00  0.00    -0.272 OA
HETATM   25  C   UNL     1     -41.969 -45.915  11.712  1.00  0.00     0.374 C 
ENDBRANCH  17  18
ENDBRANCH  14  17
ENDBRANCH   1  14
TORSDOF 5
ENDMDL
MODEL 8
REMARK VINA RESULT:      -5.8      2.875      3.919
REMARK  5 active torsions:
REMARK  status: ('A' for Active; 'I' for Inactive)
REMARK    1  A    between atoms: N_8  and  C_9 
REMARK    2  A    between atoms: C_9  and  C_10 
REMARK    3  A    between atoms: C_10  and  O_11 
REMARK    4  A    between atoms: C_10  and  C_12 
REMARK    5  A    between atoms: C_12  and  N_13 
ROOT
HETATM    1  C   UNL     1     -41.193 -50.112  13.032  1.00  0.00     0.163 C 
ENDROOT
BRANCH   1   2
HETATM    2  N   UNL     1     -40.928 -51.533  12.941  1.00  0.00    -0.339 N 
HETATM    3  C   UNL     1     -41.299 -52.344  11.905  1.00  0.00     0.184 A 
HETATM    4  N   UNL     1     -40.879 -53.577  12.080  1.00  0.00    -0.350 N 
HETATM    5  C   UNL     1     -40.244 -53.570  13.298  1.00  0.00     0.060 A 
ATOM      6  HN  UNL     1     -40.999 -54.368  11.448  1.00  0.00     0.166 HD
HETATM    7  C   UNL     1     -39.604 -54.620  13.978  1.00  0.00     0.039 A 
HETATM    8  C   UNL     1     -40.281 -52.308  13.875  1.00  0.00     0.062 A 
HETATM    9  C   UNL     1     -39.008 -54.376  15.230  1.00  0.00    -0.054 A 
HETATM   10  C   UNL     1     -38.301 -55.510  15.924  1.00  0.00     0.049 C 
HETATM   11  C   UNL     1     -39.074 -53.089  15.806  1.00  0.00    -0.054 A 
HETATM   12  C   UNL     1     -39.722 -52.036  15.130  1.00  0.00     0.039 A 
HETATM   13  C   UNL     1     -38.444 -52.807  17.146  1.00  0.00     0.049 C 
ENDBRANCH   1   2
BRANCH   1  14
HETATM   14  C   UNL     1     -40.442 -49.251  11.994  1.00  0.00     0.164 C 
BRANCH  14  15
HETATM   15  O   UNL     1     -39.140 -49.781  11.719  1.00  0.00    -0.392 OA
HETATM   16  H   UNL     1     -39.001 -49.769  10.753  1.00  0.00     0.210 HD
ENDBRANCH  14  15
BRANCH  14  17
HETATM   17  C   UNL     1     -41.212 -49.011  10.671  1.00  0.00     0.306 C 
BRANCH  17  18
HETATM   18  N   UNL     1     -42.023 -47.788  10.684  1.00  0.00     0.101 N 
HETATM   19  C   UNL     1     -41.234 -46.555  10.869  1.00  0.00     0.292 C 
HETATM   20  C   UNL     1     -42.214 -45.411  11.153  1.00  0.00     0.152 C 
HETATM   21  N   UNL     1     -43.259 -45.306  10.158  1.00  0.00    -0.358 N 
HETATM   22  C   UNL     1     -43.727 -46.411   9.486  1.00  0.00     0.246 C 
HETATM   23  H   UNL     1     -43.936 -44.554  10.227  1.00  0.00     0.162 HD
HETATM   24  O   UNL     1     -44.798 -46.353   8.881  1.00  0.00    -0.272 OA
HETATM   25  C   UNL     1     -42.804 -47.642   9.428  1.00  0.00     0.374 C 
ENDBRANCH  17  18
ENDBRANCH  14  17
ENDBRANCH   1  14
TORSDOF 5
ENDMDL
MODEL 9
REMARK VINA RESULT:      -5.5      4.367      6.628
REMARK  5 active torsions:
REMARK  status: ('A' for Active; 'I' for Inactive)
REMARK    1  A    between atoms: N_8  and  C_9 
REMARK    2  A    between atoms: C_9  and  C_10 
REMARK    3  A    between atoms: C_10  and  O_11 
REMARK    4  A    between atoms: C_10  and  C_12 
REMARK    5  A    between atoms: C_12  and  N_13 
ROOT
HETATM    1  C   UNL     1     -42.924 -53.617  13.515  1.00  0.00     0.163 C 
ENDROOT
BRANCH   1   2
HETATM    2  N   UNL     1     -41.846 -52.808  12.984  1.00  0.00    -0.339 N 
HETATM    3  C   UNL     1     -41.728 -52.398  11.685  1.00  0.00     0.184 A 
HETATM    4  N   UNL     1     -40.671 -51.637  11.512  1.00  0.00    -0.350 N 
HETATM    5  C   UNL     1     -40.060 -51.585  12.740  1.00  0.00     0.060 A 
ATOM      6  HN  UNL     1     -40.369 -51.183  10.650  1.00  0.00     0.166 HD
HETATM    7  C   UNL     1     -38.891 -50.910  13.130  1.00  0.00     0.039 A 
HETATM    8  C   UNL     1     -40.758 -52.333  13.679  1.00  0.00     0.062 A 
HETATM    9  C   UNL     1     -38.449 -50.997  14.464  1.00  0.00    -0.054 A 
HETATM   10  C   UNL     1     -37.212 -50.237  14.863  1.00  0.00     0.049 C 
HETATM   11  C   UNL     1     -39.166 -51.777  15.396  1.00  0.00    -0.054 A 
HETATM   12  C   UNL     1     -40.333 -52.463  15.007  1.00  0.00     0.039 A 
HETATM   13  C   UNL     1     -38.709 -51.885  16.829  1.00  0.00     0.049 C 
ENDBRANCH   1   2
BRANCH   1  14
HETATM   14  C   UNL     1     -44.240 -53.539  12.713  1.00  0.00     0.164 C 
BRANCH  14  15
HETATM   15  O   UNL     1     -45.074 -54.676  12.965  1.00  0.00    -0.392 OA
HETATM   16  H   UNL     1     -45.098 -55.225  12.157  1.00  0.00     0.210 HD
ENDBRANCH  14  15
BRANCH  14  17
HETATM   17  C   UNL     1     -45.045 -52.231  12.912  1.00  0.00     0.306 C 
BRANCH  17  18
HETATM   18  N   UNL     1     -45.290 -51.906  14.322  1.00  0.00     0.101 N 
HETATM   19  C   UNL     1     -44.510 -50.753  14.809  1.00  0.00     0.292 C 
HETATM   20  C   UNL     1     -44.638 -50.714  16.337  1.00  0.00     0.152 C 
HETATM   21  N   UNL     1     -46.014 -50.736  16.786  1.00  0.00    -0.358 N 
HETATM   22  C   UNL     1     -46.996 -51.376  16.067  1.00  0.00     0.246 C 
HETATM   23  H   UNL     1     -46.212 -50.669  17.778  1.00  0.00     0.162 HD
HETATM   24  O   UNL     1     -48.072 -51.642  16.602  1.00  0.00    -0.272 OA
HETATM   25  C   UNL     1     -46.727 -51.620  14.571  1.00  0.00     0.374 C 
ENDBRANCH  17  18
ENDBRANCH  14  17
ENDBRANCH   1  14
TORSDOF 5
ENDMDL
