MODEL 1
REMARK VINA RESULT:      -5.9      0.000      0.000
REMARK  4 active torsions:
REMARK  status: ('A' for Active; 'I' for Inactive)
REMARK    1  A    between atoms: N_5  and  C_8 
REMARK    2  A    between atoms: C_8  and  C_11 
REMARK    3  A    between atoms: C_11  and  N_12 
REMARK       I    between atoms: N_12  and  C_13 
REMARK       I    between atoms: C_13  and  N_15 
REMARK    4  A    between atoms: N_15  and  C_16 
ROOT
HETATM    1  N   UNL     1     -40.857 -51.097  11.388  1.00  0.00    -0.340 N 
HETATM    2  C   UNL     1     -40.913 -49.726  11.556  1.00  0.00     0.322 C 
HETATM    3  O   UNL     1     -40.638 -49.200  12.625  1.00  0.00    -0.247 OA
HETATM    4  N   UNL     1     -41.357 -49.109  10.417  1.00  0.00    -0.289 N 
HETATM    5  H   UNL     1     -40.622 -51.418  10.461  1.00  0.00     0.164 HD
HETATM    6  H   UNL     1     -41.840 -49.660   9.728  1.00  0.00     0.172 HD
ENDROOT
BRANCH   1   7
HETATM    7  C   UNL     1     -40.390 -51.908  12.499  1.00  0.00     0.165 C 
BRANCH   7   8
HETATM    8  C   UNL     1     -41.509 -52.710  13.253  1.00  0.00     0.168 C 
HETATM    9  C   UNL     1     -41.231 -52.479  14.754  1.00  0.00     0.050 C 
HETATM   10  C   UNL     1     -41.244 -54.214  12.974  1.00  0.00     0.050 C 
BRANCH   8  11
HETATM   11  N   UNL     1     -42.869 -52.330  12.764  1.00  0.00     0.102 N 
HETATM   12  C   UNL     1     -43.606 -51.328  13.564  1.00  0.00     0.303 C 
HETATM   13  C   UNL     1     -44.412 -51.884  14.766  1.00  0.00     0.302 C 
HETATM   14  N   UNL     1     -45.273 -53.047  14.490  1.00  0.00     0.087 N 
HETATM   15  C   UNL     1     -46.572 -52.637  13.962  1.00  0.00     0.310 C 
HETATM   16  C   UNL     1     -44.612 -54.014  13.601  1.00  0.00     0.302 C 
HETATM   17  C   UNL     1     -43.813 -53.411  12.422  1.00  0.00     0.303 C 
ENDBRANCH   8  11
ENDBRANCH   7   8
ENDBRANCH   1   7
BRANCH   4  18
HETATM   18  C   UNL     1     -41.529 -47.757  10.369  1.00  0.00     0.152 A 
HETATM   19  N   UNL     1     -40.640 -46.802  10.484  1.00  0.00    -0.346 N 
HETATM   20  C   UNL     1     -41.276 -45.580  10.471  1.00  0.00     0.097 A 
ATOM     21  HN  UNL     1     -39.633 -46.942  10.571  1.00  0.00     0.167 HD
HETATM   22  C   UNL     1     -42.646 -45.628  10.318  1.00  0.00     0.070 A 
HETATM   23  S   UNL     1     -43.147 -47.260  10.142  1.00  0.00    -0.064 SA
ENDBRANCH   4  18
TORSDOF 4
ENDMDL
MODEL 2
REMARK VINA RESULT:      -5.7      2.465      3.767
REMARK  4 active torsions:
REMARK  status: ('A' for Active; 'I' for Inactive)
REMARK    1  A    between atoms: N_5  and  C_8 
REMARK    2  A    between atoms: C_8  and  C_11 
REMARK    3  A    between atoms: C_11  and  N_12 
REMARK       I    between atoms: N_12  and  C_13 
REMARK       I    between atoms: C_13  and  N_15 
REMARK    4  A    between atoms: N_15  and  C_16 
ROOT
HETATM    1  N   UNL     1     -43.108 -52.827  12.006  1.00  0.00    -0.340 N 
HETATM    2  C   UNL     1     -41.960 -52.158  12.389  1.00  0.00     0.322 C 
HETATM    3  O   UNL     1     -41.451 -52.336  13.487  1.00  0.00    -0.247 OA
HETATM    4  N   UNL     1     -41.557 -51.279  11.419  1.00  0.00    -0.289 N 
HETATM    5  H   UNL     1     -43.199 -53.016  11.019  1.00  0.00     0.164 HD
HETATM    6  H   UNL     1     -42.218 -51.002  10.715  1.00  0.00     0.172 HD
ENDROOT
BRANCH   1   7
HETATM    7  C   UNL     1     -43.666 -53.812  12.915  1.00  0.00     0.165 C 
BRANCH   7   8
HETATM    8  C   UNL     1     -45.012 -53.391  13.606  1.00  0.00     0.168 C 
HETATM    9  C   UNL     1     -45.714 -54.718  13.966  1.00  0.00     0.050 C 
HETATM   10  C   UNL     1     -45.878 -52.707  12.515  1.00  0.00     0.050 C 
BRANCH   8  11
HETATM   11  N   UNL     1     -44.767 -52.444  14.735  1.00  0.00     0.102 N 
HETATM   12  C   UNL     1     -44.479 -53.044  16.055  1.00  0.00     0.303 C 
HETATM   13  C   UNL     1     -45.716 -53.425  16.908  1.00  0.00     0.302 C 
HETATM   14  N   UNL     1     -46.762 -52.395  17.035  1.00  0.00     0.087 N 
HETATM   15  C   UNL     1     -46.458 -51.456  18.112  1.00  0.00     0.310 C 
HETATM   16  C   UNL     1     -46.995 -51.697  15.762  1.00  0.00     0.302 C 
HETATM   17  C   UNL     1     -45.730 -51.346  14.943  1.00  0.00     0.303 C 
ENDBRANCH   8  11
ENDBRANCH   7   8
ENDBRANCH   1   7
BRANCH   4  18
HETATM   18  C   UNL     1     -40.466 -50.481  11.601  1.00  0.00     0.152 A 
HETATM   19  N   UNL     1     -39.228 -50.815  11.867  1.00  0.00    -0.346 N 
HETATM   20  C   UNL     1     -38.479 -49.675  12.065  1.00  0.00     0.097 A 
ATOM     21  HN  UNL     1     -38.873 -51.770  11.919  1.00  0.00     0.167 HD
HETATM   22  C   UNL     1     -39.162 -48.486  11.919  1.00  0.00     0.070 A 
HETATM   23  S   UNL     1     -40.788 -48.809  11.476  1.00  0.00    -0.064 SA
ENDBRANCH   4  18
TORSDOF 4
ENDMDL
MODEL 3
REMARK VINA RESULT:      -5.4      1.637      1.889
REMARK  4 active torsions:
REMARK  status: ('A' for Active; 'I' for Inactive)
REMARK    1  A    between atoms: N_5  and  C_8 
REMARK    2  A    between atoms: C_8  and  C_11 
REMARK    3  A    between atoms: C_11  and  N_12 
REMARK       I    between atoms: N_12  and  C_13 
REMARK       I    between atoms: C_13  and  N_15 
REMARK    4  A    between atoms: N_15  and  C_16 
ROOT
HETATM    1  N   UNL     1     -40.100 -50.961  11.793  1.00  0.00    -0.340 N 
HETATM    2  C   UNL     1     -40.688 -49.718  11.647  1.00  0.00     0.322 C 
HETATM    3  O   UNL     1     -41.899 -49.591  11.539  1.00  0.00    -0.247 OA
HETATM    4  N   UNL     1     -39.740 -48.730  11.588  1.00  0.00    -0.289 N 
HETATM    5  H   UNL     1     -39.246 -50.984  12.329  1.00  0.00     0.164 HD
HETATM    6  H   UNL     1     -38.791 -48.985  11.375  1.00  0.00     0.172 HD
ENDROOT
BRANCH   1   7
HETATM    7  C   UNL     1     -40.964 -52.124  11.888  1.00  0.00     0.165 C 
BRANCH   7   8
HETATM    8  C   UNL     1     -41.040 -52.782  13.311  1.00  0.00     0.168 C 
HETATM    9  C   UNL     1     -39.799 -52.258  14.066  1.00  0.00     0.050 C 
HETATM   10  C   UNL     1     -40.831 -54.306  13.108  1.00  0.00     0.050 C 
BRANCH   8  11
HETATM   11  N   UNL     1     -42.364 -52.527  13.954  1.00  0.00     0.102 N 
HETATM   12  C   UNL     1     -42.743 -53.421  15.070  1.00  0.00     0.303 C 
HETATM   13  C   UNL     1     -43.421 -54.755  14.665  1.00  0.00     0.302 C 
HETATM   14  N   UNL     1     -44.525 -54.656  13.695  1.00  0.00     0.087 N 
HETATM   15  C   UNL     1     -45.792 -54.352  14.356  1.00  0.00     0.310 C 
HETATM   16  C   UNL     1     -44.228 -53.687  12.630  1.00  0.00     0.302 C 
HETATM   17  C   UNL     1     -43.544 -52.375  13.082  1.00  0.00     0.303 C 
ENDBRANCH   8  11
ENDBRANCH   7   8
ENDBRANCH   1   7
BRANCH   4  18
HETATM   18  C   UNL     1     -40.093 -47.426  11.405  1.00  0.00     0.152 A 
HETATM   19  N   UNL     1     -40.680 -46.859  10.381  1.00  0.00    -0.346 N 
HETATM   20  C   UNL     1     -40.755 -45.499  10.591  1.00  0.00     0.097 A 
ATOM     21  HN  UNL     1     -41.028 -47.349   9.556  1.00  0.00     0.167 HD
HETATM   22  C   UNL     1     -40.243 -45.057  11.793  1.00  0.00     0.070 A 
HETATM   23  S   UNL     1     -39.688 -46.398  12.708  1.00  0.00    -0.064 SA
ENDBRANCH   4  18
TORSDOF 4
ENDMDL
MODEL 4
REMARK VINA RESULT:      -5.3      1.809      3.343
REMARK  4 active torsions:
REMARK  status: ('A' for Active; 'I' for Inactive)
REMARK    1  A    between atoms: N_5  and  C_8 
REMARK    2  A    between atoms: C_8  and  C_11 
REMARK    3  A    between atoms: C_11  and  N_12 
REMARK       I    between atoms: N_12  and  C_13 
REMARK       I    between atoms: C_13  and  N_15 
REMARK    4  A    between atoms: N_15  and  C_16 
ROOT
HETATM    1  N   UNL     1     -44.163 -50.437  12.680  1.00  0.00    -0.340 N 
HETATM    2  C   UNL     1     -43.165 -49.482  12.710  1.00  0.00     0.322 C 
HETATM    3  O   UNL     1     -42.698 -49.074  13.764  1.00  0.00    -0.247 OA
HETATM    4  N   UNL     1     -42.854 -49.056  11.445  1.00  0.00    -0.289 N 
HETATM    5  H   UNL     1     -44.164 -51.048  11.878  1.00  0.00     0.164 HD
HETATM    6  H   UNL     1     -43.510 -49.231  10.704  1.00  0.00     0.172 HD
ENDROOT
BRANCH   1   7
HETATM    7  C   UNL     1     -44.605 -51.009  13.940  1.00  0.00     0.165 C 
BRANCH   7   8
HETATM    8  C   UNL     1     -45.873 -51.930  13.843  1.00  0.00     0.168 C 
HETATM    9  C   UNL     1     -46.517 -51.591  12.482  1.00  0.00     0.050 C 
HETATM   10  C   UNL     1     -46.859 -51.444  14.939  1.00  0.00     0.050 C 
BRANCH   8  11
HETATM   11  N   UNL     1     -45.519 -53.364  14.071  1.00  0.00     0.102 N 
HETATM   12  C   UNL     1     -45.465 -53.818  15.477  1.00  0.00     0.303 C 
HETATM   13  C   UNL     1     -44.123 -53.577  16.214  1.00  0.00     0.302 C 
HETATM   14  N   UNL     1     -42.903 -53.991  15.498  1.00  0.00     0.087 N 
HETATM   15  C   UNL     1     -42.622 -55.410  15.701  1.00  0.00     0.310 C 
HETATM   16  C   UNL     1     -42.971 -53.655  14.069  1.00  0.00     0.302 C 
HETATM   17  C   UNL     1     -44.334 -53.905  13.380  1.00  0.00     0.303 C 
ENDBRANCH   8  11
ENDBRANCH   7   8
ENDBRANCH   1   7
BRANCH   4  18
HETATM   18  C   UNL     1     -41.921 -48.084  11.238  1.00  0.00     0.152 A 
HETATM   19  N   UNL     1     -40.672 -48.034  11.629  1.00  0.00    -0.346 N 
HETATM   20  C   UNL     1     -40.130 -46.817  11.278  1.00  0.00     0.097 A 
ATOM     21  HN  UNL     1     -40.177 -48.781  12.118  1.00  0.00     0.167 HD
HETATM   22  C   UNL     1     -40.977 -45.967  10.598  1.00  0.00     0.070 A 
HETATM   23  S   UNL     1     -42.490 -46.738  10.353  1.00  0.00    -0.064 SA
ENDBRANCH   4  18
TORSDOF 4
ENDMDL
MODEL 5
REMARK VINA RESULT:      -5.3      1.451      2.172
REMARK  4 active torsions:
REMARK  status: ('A' for Active; 'I' for Inactive)
REMARK    1  A    between atoms: N_5  and  C_8 
REMARK    2  A    between atoms: C_8  and  C_11 
REMARK    3  A    between atoms: C_11  and  N_12 
REMARK       I    between atoms: N_12  and  C_13 
REMARK       I    between atoms: C_13  and  N_15 
REMARK    4  A    between atoms: N_15  and  C_16 
ROOT
HETATM    1  N   UNL     1     -42.035 -49.926  11.743  1.00  0.00    -0.340 N 
HETATM    2  C   UNL     1     -41.270 -48.775  11.743  1.00  0.00     0.322 C 
HETATM    3  O   UNL     1     -40.306 -48.646  12.483  1.00  0.00    -0.247 OA
HETATM    4  N   UNL     1     -41.780 -47.846  10.874  1.00  0.00    -0.289 N 
HETATM    5  H   UNL     1     -42.462 -50.171  10.863  1.00  0.00     0.164 HD
HETATM    6  H   UNL     1     -42.732 -47.947  10.566  1.00  0.00     0.172 HD
ENDROOT
BRANCH   1   7
HETATM    7  C   UNL     1     -41.626 -51.024  12.600  1.00  0.00     0.165 C 
BRANCH   7   8
HETATM    8  C   UNL     1     -42.487 -51.211  13.900  1.00  0.00     0.168 C 
HETATM    9  C   UNL     1     -43.751 -50.354  13.674  1.00  0.00     0.050 C 
HETATM   10  C   UNL     1     -41.695 -50.545  15.057  1.00  0.00     0.050 C 
BRANCH   8  11
HETATM   11  N   UNL     1     -42.711 -52.658  14.197  1.00  0.00     0.102 N 
HETATM   12  C   UNL     1     -42.913 -53.550  13.036  1.00  0.00     0.303 C 
HETATM   13  C   UNL     1     -44.364 -53.642  12.500  1.00  0.00     0.302 C 
HETATM   14  N   UNL     1     -45.417 -53.869  13.505  1.00  0.00     0.087 N 
HETATM   15  C   UNL     1     -45.567 -55.290  13.809  1.00  0.00     0.310 C 
HETATM   16  C   UNL     1     -45.184 -53.080  14.724  1.00  0.00     0.302 C 
HETATM   17  C   UNL     1     -43.719 -53.011  15.214  1.00  0.00     0.303 C 
ENDBRANCH   8  11
ENDBRANCH   7   8
ENDBRANCH   1   7
BRANCH   4  18
HETATM   18  C   UNL     1     -41.206 -46.616  10.741  1.00  0.00     0.152 A 
HETATM   19  N   UNL     1     -39.997 -46.302  10.349  1.00  0.00    -0.346 N 
HETATM   20  C   UNL     1     -39.819 -44.940  10.460  1.00  0.00     0.097 A 
ATOM     21  HN  UNL     1     -39.296 -46.963  10.013  1.00  0.00     0.167 HD
HETATM   22  C   UNL     1     -40.914 -44.236  10.914  1.00  0.00     0.070 A 
HETATM   23  S   UNL     1     -42.225 -45.314  11.169  1.00  0.00    -0.064 SA
ENDBRANCH   4  18
TORSDOF 4
ENDMDL
MODEL 6
REMARK VINA RESULT:      -5.2      1.770      2.731
REMARK  4 active torsions:
REMARK  status: ('A' for Active; 'I' for Inactive)
REMARK    1  A    between atoms: N_5  and  C_8 
REMARK    2  A    between atoms: C_8  and  C_11 
REMARK    3  A    between atoms: C_11  and  N_12 
REMARK       I    between atoms: N_12  and  C_13 
REMARK       I    between atoms: C_13  and  N_15 
REMARK    4  A    between atoms: N_15  and  C_16 
ROOT
HETATM    1  N   UNL     1     -42.433 -51.592  13.068  1.00  0.00    -0.340 N 
HETATM    2  C   UNL     1     -42.674 -50.278  12.714  1.00  0.00     0.322 C 
HETATM    3  O   UNL     1     -43.507 -49.599  13.299  1.00  0.00    -0.247 OA
HETATM    4  N   UNL     1     -41.916 -49.913  11.633  1.00  0.00    -0.289 N 
HETATM    5  H   UNL     1     -41.492 -51.923  12.918  1.00  0.00     0.164 HD
HETATM    6  H   UNL     1     -41.516 -50.636  11.060  1.00  0.00     0.172 HD
ENDROOT
BRANCH   1   7
HETATM    7  C   UNL     1     -43.146 -52.140  14.209  1.00  0.00     0.165 C 
BRANCH   7   8
HETATM    8  C   UNL     1     -43.827 -53.533  13.962  1.00  0.00     0.168 C 
HETATM    9  C   UNL     1     -42.725 -54.577  14.241  1.00  0.00     0.050 C 
HETATM   10  C   UNL     1     -44.145 -53.610  12.445  1.00  0.00     0.050 C 
BRANCH   8  11
HETATM   11  N   UNL     1     -45.085 -53.667  14.757  1.00  0.00     0.102 N 
HETATM   12  C   UNL     1     -46.314 -53.110  14.154  1.00  0.00     0.303 C 
HETATM   13  C   UNL     1     -46.560 -51.599  14.396  1.00  0.00     0.302 C 
HETATM   14  N   UNL     1     -46.418 -51.131  15.786  1.00  0.00     0.087 N 
HETATM   15  C   UNL     1     -47.650 -51.330  16.545  1.00  0.00     0.310 C 
HETATM   16  C   UNL     1     -45.267 -51.755  16.455  1.00  0.00     0.302 C 
HETATM   17  C   UNL     1     -45.058 -53.262  16.175  1.00  0.00     0.303 C 
ENDBRANCH   8  11
ENDBRANCH   7   8
ENDBRANCH   1   7
BRANCH   4  18
HETATM   18  C   UNL     1     -42.022 -48.668  11.087  1.00  0.00     0.152 A 
HETATM   19  N   UNL     1     -42.956 -48.178  10.310  1.00  0.00    -0.346 N 
HETATM   20  C   UNL     1     -42.604 -46.904   9.919  1.00  0.00     0.097 A 
ATOM     21  HN  UNL     1     -43.810 -48.663  10.037  1.00  0.00     0.167 HD
HETATM   22  C   UNL     1     -41.411 -46.436  10.431  1.00  0.00     0.070 A 
HETATM   23  S   UNL     1     -40.731 -47.619  11.473  1.00  0.00    -0.064 SA
ENDBRANCH   4  18
TORSDOF 4
ENDMDL
MODEL 7
REMARK VINA RESULT:      -5.2      2.731      7.460
REMARK  4 active torsions:
REMARK  status: ('A' for Active; 'I' for Inactive)
REMARK    1  A    between atoms: N_5  and  C_8 
REMARK    2  A    between atoms: C_8  and  C_11 
REMARK    3  A    between atoms: C_11  and  N_12 
REMARK       I    between atoms: N_12  and  C_13 
REMARK       I    between atoms: C_13  and  N_15 
REMARK    4  A    between atoms: N_15  and  C_16 
ROOT
HETATM    1  N   UNL     1     -42.040 -49.206  11.033  1.00  0.00    -0.340 N 
HETATM    2  C   UNL     1     -41.336 -50.161  11.743  1.00  0.00     0.322 C 
HETATM    3  O   UNL     1     -40.192 -49.962  12.124  1.00  0.00    -0.247 OA
HETATM    4  N   UNL     1     -42.070 -51.309  11.882  1.00  0.00    -0.289 N 
HETATM    5  H   UNL     1     -43.040 -49.208  11.164  1.00  0.00     0.164 HD
HETATM    6  H   UNL     1     -42.852 -51.458  11.268  1.00  0.00     0.172 HD
ENDROOT
BRANCH   1   7
HETATM    7  C   UNL     1     -41.412 -47.916  10.806  1.00  0.00     0.165 C 
BRANCH   7   8
HETATM    8  C   UNL     1     -42.361 -46.676  10.968  1.00  0.00     0.168 C 
HETATM    9  C   UNL     1     -42.992 -46.829  12.368  1.00  0.00     0.050 C 
HETATM   10  C   UNL     1     -43.508 -46.857   9.938  1.00  0.00     0.050 C 
BRANCH   8  11
HETATM   11  N   UNL     1     -41.632 -45.399  10.704  1.00  0.00     0.102 N 
HETATM   12  C   UNL     1     -40.191 -45.378  11.035  1.00  0.00     0.303 C 
HETATM   13  C   UNL     1     -39.841 -45.040  12.507  1.00  0.00     0.302 C 
HETATM   14  N   UNL     1     -40.514 -43.862  13.083  1.00  0.00     0.087 N 
HETATM   15  C   UNL     1     -39.801 -42.629  12.757  1.00  0.00     0.310 C 
HETATM   16  C   UNL     1     -41.925 -43.790  12.679  1.00  0.00     0.302 C 
HETATM   17  C   UNL     1     -42.225 -44.144  11.203  1.00  0.00     0.303 C 
ENDBRANCH   8  11
ENDBRANCH   7   8
ENDBRANCH   1   7
BRANCH   4  18
HETATM   18  C   UNL     1     -41.555 -52.401  12.516  1.00  0.00     0.152 A 
HETATM   19  N   UNL     1     -40.878 -53.407  12.021  1.00  0.00    -0.346 N 
HETATM   20  C   UNL     1     -40.642 -54.333  13.015  1.00  0.00     0.097 A 
ATOM     21  HN  UNL     1     -40.573 -53.492  11.052  1.00  0.00     0.167 HD
HETATM   22  C   UNL     1     -41.127 -53.998  14.262  1.00  0.00     0.070 A 
HETATM   23  S   UNL     1     -41.864 -52.450  14.195  1.00  0.00    -0.064 SA
ENDBRANCH   4  18
TORSDOF 4
ENDMDL
MODEL 8
REMARK VINA RESULT:      -5.2      2.579      6.842
REMARK  4 active torsions:
REMARK  status: ('A' for Active; 'I' for Inactive)
REMARK    1  A    between atoms: N_5  and  C_8 
REMARK    2  A    between atoms: C_8  and  C_11 
REMARK    3  A    between atoms: C_11  and  N_12 
REMARK       I    between atoms: N_12  and  C_13 
REMARK       I    between atoms: C_13  and  N_15 
REMARK    4  A    between atoms: N_15  and  C_16 
ROOT
HETATM    1  N   UNL     1     -41.981 -50.900  11.856  1.00  0.00    -0.340 N 
HETATM    2  C   UNL     1     -42.444 -51.997  12.558  1.00  0.00     0.322 C 
HETATM    3  O   UNL     1     -41.678 -52.816  13.045  1.00  0.00    -0.247 OA
HETATM    4  N   UNL     1     -43.814 -52.037  12.559  1.00  0.00    -0.289 N 
HETATM    5  H   UNL     1     -42.556 -50.072  11.903  1.00  0.00     0.164 HD
HETATM    6  H   UNL     1     -44.311 -51.496  11.874  1.00  0.00     0.172 HD
ENDROOT
BRANCH   1   7
HETATM    7  C   UNL     1     -40.546 -50.695  11.768  1.00  0.00     0.165 C 
BRANCH   7   8
HETATM    8  C   UNL     1     -40.015 -49.393  12.465  1.00  0.00     0.168 C 
HETATM    9  C   UNL     1     -38.625 -49.138  11.843  1.00  0.00     0.050 C 
HETATM   10  C   UNL     1     -39.779 -49.752  13.957  1.00  0.00     0.050 C 
BRANCH   8  11
HETATM   11  N   UNL     1     -41.005 -48.279  12.356  1.00  0.00     0.102 N 
HETATM   12  C   UNL     1     -41.016 -47.523  11.086  1.00  0.00     0.303 C 
HETATM   13  C   UNL     1     -39.997 -46.359  10.985  1.00  0.00     0.302 C 
HETATM   14  N   UNL     1     -39.952 -45.432  12.129  1.00  0.00     0.087 N 
HETATM   15  C   UNL     1     -40.971 -44.391  12.013  1.00  0.00     0.310 C 
HETATM   16  C   UNL     1     -40.054 -46.144  13.411  1.00  0.00     0.302 C 
HETATM   17  C   UNL     1     -41.078 -47.303  13.460  1.00  0.00     0.303 C 
ENDBRANCH   8  11
ENDBRANCH   7   8
ENDBRANCH   1   7
BRANCH   4  18
HETATM   18  C   UNL     1     -44.488 -53.058  13.161  1.00  0.00     0.152 A 
HETATM   19  N   UNL     1     -44.367 -54.350  12.985  1.00  0.00    -0.346 N 
HETATM   20  C   UNL     1     -45.320 -55.005  13.735  1.00  0.00     0.097 A 
ATOM     21  HN  UNL     1     -43.675 -54.802  12.386  1.00  0.00     0.167 HD
HETATM   22  C   UNL     1     -46.137 -54.193  14.494  1.00  0.00     0.070 A 
HETATM   23  S   UNL     1     -45.665 -52.555  14.291  1.00  0.00    -0.064 SA
ENDBRANCH   4  18
TORSDOF 4
ENDMDL
MODEL 9
REMARK VINA RESULT:      -5.0      2.879      7.429
REMARK  4 active torsions:
REMARK  status: ('A' for Active; 'I' for Inactive)
REMARK    1  A    between atoms: N_5  and  C_8 
REMARK    2  A    between atoms: C_8  and  C_11 
REMARK    3  A    between atoms: C_11  and  N_12 
REMARK       I    between atoms: N_12  and  C_13 
REMARK       I    between atoms: C_13  and  N_15 
REMARK    4  A    between atoms: N_15  and  C_16 
ROOT
HETATM    1  N   UNL     1     -43.615 -49.831  12.625  1.00  0.00    -0.340 N 
HETATM    2  C   UNL     1     -43.779 -51.017  13.316  1.00  0.00     0.322 C 
HETATM    3  O   UNL     1     -42.992 -51.367  14.184  1.00  0.00    -0.247 OA
HETATM    4  N   UNL     1     -44.864 -51.712  12.849  1.00  0.00    -0.289 N 
HETATM    5  H   UNL     1     -44.463 -49.383  12.312  1.00  0.00     0.164 HD
HETATM    6  H   UNL     1     -45.234 -51.476  11.945  1.00  0.00     0.172 HD
ENDROOT
BRANCH   1   7
HETATM    7  C   UNL     1     -42.515 -48.961  13.003  1.00  0.00     0.165 C 
BRANCH   7   8
HETATM    8  C   UNL     1     -41.801 -48.234  11.808  1.00  0.00     0.168 C 
HETATM    9  C   UNL     1     -42.932 -47.872  10.821  1.00  0.00     0.050 C 
HETATM   10  C   UNL     1     -40.916 -49.298  11.106  1.00  0.00     0.050 C 
BRANCH   8  11
HETATM   11  N   UNL     1     -40.955 -47.102  12.293  1.00  0.00     0.102 N 
HETATM   12  C   UNL     1     -41.657 -45.997  12.981  1.00  0.00     0.303 C 
HETATM   13  C   UNL     1     -42.249 -44.898  12.062  1.00  0.00     0.302 C 
HETATM   14  N   UNL     1     -41.352 -44.362  11.024  1.00  0.00     0.087 N 
HETATM   15  C   UNL     1     -40.503 -43.296  11.550  1.00  0.00     0.310 C 
HETATM   16  C   UNL     1     -40.553 -45.425  10.395  1.00  0.00     0.302 C 
HETATM   17  C   UNL     1     -39.990 -46.503  11.352  1.00  0.00     0.303 C 
ENDBRANCH   8  11
ENDBRANCH   7   8
ENDBRANCH   1   7
BRANCH   4  18
HETATM   18  C   UNL     1     -45.191 -52.933  13.361  1.00  0.00     0.152 A 
HETATM   19  N   UNL     1     -44.652 -54.103  13.128  1.00  0.00    -0.346 N 
HETATM   20  C   UNL     1     -45.367 -55.077  13.791  1.00  0.00     0.097 A 
ATOM     21  HN  UNL     1     -43.830 -54.268  12.546  1.00  0.00     0.167 HD
HETATM   22  C   UNL     1     -46.430 -54.622  14.542  1.00  0.00     0.070 A 
HETATM   23  S   UNL     1     -46.508 -52.910  14.448  1.00  0.00    -0.064 SA
ENDBRANCH   4  18
TORSDOF 4
ENDMDL
