MODEL 1
REMARK VINA RESULT:      -6.4      0.000      0.000
REMARK  3 active torsions:
REMARK  status: ('A' for Active; 'I' for Inactive)
REMARK    1  A    between atoms: S_2  and  C_3 
REMARK    2  A    between atoms: C_8  and  N_9 
REMARK       I    between atoms: N_9  and  C_10 
REMARK       I    between atoms: C_10  and  N_12 
REMARK    3  A    between atoms: N_12  and  C_13 
ROOT
HETATM    1  N   UNL     1     -39.839 -48.419  11.365  1.00  0.00    -0.337 N 
HETATM    2  C   UNL     1     -41.164 -48.600  10.992  1.00  0.00     0.322 C 
HETATM    3  O   UNL     1     -41.828 -49.531  11.429  1.00  0.00    -0.247 OA
HETATM    4  N   UNL     1     -41.557 -47.680  10.047  1.00  0.00    -0.293 N 
HETATM    5  H   UNL     1     -39.545 -47.462  11.486  1.00  0.00     0.164 HD
HETATM    6  H   UNL     1     -40.838 -47.156   9.581  1.00  0.00     0.172 HD
ENDROOT
BRANCH   1   7
HETATM    7  C   UNL     1     -39.245 -49.391  12.285  1.00  0.00     0.100 C 
HETATM    8  C   UNL     1     -39.339 -48.979  13.782  1.00  0.00     0.069 C 
HETATM    9  C   UNL     1     -38.790 -50.136  14.634  1.00  0.00     0.017 C 
HETATM   10  C   UNL     1     -37.364 -50.536  14.251  1.00  0.00     0.001 C 
HETATM   11  C   UNL     1     -37.245 -50.859  12.763  1.00  0.00     0.002 C 
HETATM   12  C   UNL     1     -37.810 -49.754  11.870  1.00  0.00     0.026 C 
BRANCH   8  13
HETATM   13  S   UNL     1     -38.456 -47.374  14.090  1.00  0.00    -0.167 SA
HETATM   14  C   UNL     1     -39.870 -46.263  14.323  1.00  0.00     0.090 C 
ENDBRANCH   8  13
ENDBRANCH   1   7
BRANCH   4  15
HETATM   15  C   UNL     1     -42.816 -47.696   9.465  1.00  0.00     0.132 A 
HETATM   16  C   UNL     1     -44.018 -47.346  10.132  1.00  0.00     0.084 A 
HETATM   17  C   UNL     1     -44.988 -47.421   9.160  1.00  0.00     0.076 A 
HETATM   18  C   UNL     1     -46.430 -47.130   9.096  1.00  0.00     0.079 C 
HETATM   19  O   UNL     1     -44.424 -47.853   8.006  1.00  0.00    -0.241 OA
HETATM   20  N   UNL     1     -43.073 -48.032   8.197  1.00  0.00    -0.245 N 
ATOM     21  HN  UNL     1     -42.399 -48.358   7.505  1.00  0.00     0.196 HD
ENDBRANCH   4  15
TORSDOF 3
ENDMDL
MODEL 2
REMARK VINA RESULT:      -5.8      3.276      6.132
REMARK  3 active torsions:
REMARK  status: ('A' for Active; 'I' for Inactive)
REMARK    1  A    between atoms: S_2  and  C_3 
REMARK    2  A    between atoms: C_8  and  N_9 
REMARK       I    between atoms: N_9  and  C_10 
REMARK       I    between atoms: C_10  and  N_12 
REMARK    3  A    between atoms: N_12  and  C_13 
ROOT
HETATM    1  N   UNL     1     -40.640 -47.876  10.658  1.00  0.00    -0.337 N 
HETATM    2  C   UNL     1     -40.817 -48.930  11.546  1.00  0.00     0.322 C 
HETATM    3  O   UNL     1     -41.118 -48.734  12.715  1.00  0.00    -0.247 OA
HETATM    4  N   UNL     1     -40.533 -50.142  10.960  1.00  0.00    -0.293 N 
HETATM    5  H   UNL     1     -40.967 -48.035   9.718  1.00  0.00     0.164 HD
HETATM    6  H   UNL     1     -40.036 -50.131  10.086  1.00  0.00     0.172 HD
ENDROOT
BRANCH   1   7
HETATM    7  C   UNL     1     -40.799 -46.513  11.169  1.00  0.00     0.100 C 
HETATM    8  C   UNL     1     -42.280 -46.039  11.243  1.00  0.00     0.069 C 
HETATM    9  C   UNL     1     -42.306 -44.651  11.903  1.00  0.00     0.017 C 
HETATM   10  C   UNL     1     -41.426 -43.629  11.183  1.00  0.00     0.001 C 
HETATM   11  C   UNL     1     -39.990 -44.124  11.030  1.00  0.00     0.002 C 
HETATM   12  C   UNL     1     -39.908 -45.519  10.409  1.00  0.00     0.026 C 
BRANCH   8  13
HETATM   13  S   UNL     1     -43.071 -46.054   9.563  1.00  0.00    -0.167 SA
HETATM   14  C   UNL     1     -44.282 -47.386   9.785  1.00  0.00     0.090 C 
ENDBRANCH   8  13
ENDBRANCH   1   7
BRANCH   4  15
HETATM   15  C   UNL     1     -40.571 -51.339  11.660  1.00  0.00     0.132 A 
HETATM   16  C   UNL     1     -39.834 -51.606  12.841  1.00  0.00     0.084 A 
HETATM   17  C   UNL     1     -40.243 -52.862  13.227  1.00  0.00     0.076 A 
HETATM   18  C   UNL     1     -39.971 -53.742  14.376  1.00  0.00     0.079 C 
HETATM   19  O   UNL     1     -41.112 -53.345  12.307  1.00  0.00    -0.241 OA
HETATM   20  N   UNL     1     -41.310 -52.401  11.327  1.00  0.00    -0.245 N 
ATOM     21  HN  UNL     1     -41.907 -52.495  10.505  1.00  0.00     0.196 HD
ENDBRANCH   4  15
TORSDOF 3
ENDMDL
MODEL 3
REMARK VINA RESULT:      -5.7      4.535      5.713
REMARK  3 active torsions:
REMARK  status: ('A' for Active; 'I' for Inactive)
REMARK    1  A    between atoms: S_2  and  C_3 
REMARK    2  A    between atoms: C_8  and  N_9 
REMARK       I    between atoms: N_9  and  C_10 
REMARK       I    between atoms: C_10  and  N_12 
REMARK    3  A    between atoms: N_12  and  C_13 
ROOT
HETATM    1  N   UNL     1     -43.190 -50.572  12.414  1.00  0.00    -0.337 N 
HETATM    2  C   UNL     1     -42.845 -49.232  12.292  1.00  0.00     0.322 C 
HETATM    3  O   UNL     1     -43.198 -48.406  13.122  1.00  0.00    -0.247 OA
HETATM    4  N   UNL     1     -42.165 -48.986  11.122  1.00  0.00    -0.293 N 
HETATM    5  H   UNL     1     -42.485 -51.233  12.129  1.00  0.00     0.164 HD
HETATM    6  H   UNL     1     -42.188 -49.697  10.412  1.00  0.00     0.172 HD
ENDROOT
BRANCH   1   7
HETATM    7  C   UNL     1     -44.013 -50.969  13.558  1.00  0.00     0.100 C 
HETATM    8  C   UNL     1     -43.455 -52.193  14.340  1.00  0.00     0.069 C 
HETATM    9  C   UNL     1     -44.345 -52.421  15.573  1.00  0.00     0.017 C 
HETATM   10  C   UNL     1     -45.821 -52.608  15.218  1.00  0.00     0.001 C 
HETATM   11  C   UNL     1     -46.354 -51.451  14.377  1.00  0.00     0.002 C 
HETATM   12  C   UNL     1     -45.484 -51.158  13.154  1.00  0.00     0.026 C 
BRANCH   8  13
HETATM   13  S   UNL     1     -43.340 -53.689  13.246  1.00  0.00    -0.167 SA
HETATM   14  C   UNL     1     -41.551 -53.979  13.276  1.00  0.00     0.090 C 
ENDBRANCH   8  13
ENDBRANCH   1   7
BRANCH   4  15
HETATM   15  C   UNL     1     -41.771 -47.712  10.739  1.00  0.00     0.132 A 
HETATM   16  C   UNL     1     -40.624 -47.040  11.231  1.00  0.00     0.084 A 
HETATM   17  C   UNL     1     -40.580 -45.863  10.520  1.00  0.00     0.076 A 
HETATM   18  C   UNL     1     -39.650 -44.724  10.439  1.00  0.00     0.079 C 
HETATM   19  O   UNL     1     -41.662 -45.799   9.706  1.00  0.00    -0.241 OA
HETATM   20  N   UNL     1     -42.408 -46.946   9.848  1.00  0.00    -0.245 N 
ATOM     21  HN  UNL     1     -43.279 -47.168   9.366  1.00  0.00     0.196 HD
ENDBRANCH   4  15
TORSDOF 3
ENDMDL
MODEL 4
REMARK VINA RESULT:      -5.7      4.216      5.300
REMARK  3 active torsions:
REMARK  status: ('A' for Active; 'I' for Inactive)
REMARK    1  A    between atoms: S_2  and  C_3 
REMARK    2  A    between atoms: C_8  and  N_9 
REMARK       I    between atoms: N_9  and  C_10 
REMARK       I    between atoms: C_10  and  N_12 
REMARK    3  A    between atoms: N_12  and  C_13 
ROOT
HETATM    1  N   UNL     1     -42.121 -51.573  11.902  1.00  0.00    -0.337 N 
HETATM    2  C   UNL     1     -42.023 -50.195  12.039  1.00  0.00     0.322 C 
HETATM    3  O   UNL     1     -42.483 -49.617  13.014  1.00  0.00    -0.247 OA
HETATM    4  N   UNL     1     -41.443 -49.614  10.935  1.00  0.00    -0.293 N 
HETATM    5  H   UNL     1     -41.322 -52.030  11.492  1.00  0.00     0.164 HD
HETATM    6  H   UNL     1     -41.368 -50.170  10.101  1.00  0.00     0.172 HD
ENDROOT
BRANCH   1   7
HETATM    7  C   UNL     1     -42.816 -52.321  12.952  1.00  0.00     0.100 C 
HETATM    8  C   UNL     1     -41.862 -52.994  13.980  1.00  0.00     0.069 C 
HETATM    9  C   UNL     1     -42.721 -53.635  15.083  1.00  0.00     0.017 C 
HETATM   10  C   UNL     1     -43.749 -54.628  14.538  1.00  0.00     0.001 C 
HETATM   11  C   UNL     1     -44.634 -53.998  13.465  1.00  0.00     0.002 C 
HETATM   12  C   UNL     1     -43.828 -53.314  12.360  1.00  0.00     0.026 C 
BRANCH   8  13
HETATM   13  S   UNL     1     -40.732 -54.209  13.147  1.00  0.00    -0.167 SA
HETATM   14  C   UNL     1     -39.314 -54.164  14.277  1.00  0.00     0.090 C 
ENDBRANCH   8  13
ENDBRANCH   1   7
BRANCH   4  15
HETATM   15  C   UNL     1     -41.295 -48.241  10.802  1.00  0.00     0.132 A 
HETATM   16  C   UNL     1     -40.296 -47.470  11.449  1.00  0.00     0.084 A 
HETATM   17  C   UNL     1     -40.473 -46.195  10.964  1.00  0.00     0.076 A 
HETATM   18  C   UNL     1     -39.774 -44.909  11.123  1.00  0.00     0.079 C 
HETATM   19  O   UNL     1     -41.546 -46.184  10.136  1.00  0.00    -0.241 OA
HETATM   20  N   UNL     1     -42.064 -47.454  10.041  1.00  0.00    -0.245 N 
ATOM     21  HN  UNL     1     -42.876 -47.741   9.496  1.00  0.00     0.196 HD
ENDBRANCH   4  15
TORSDOF 3
ENDMDL
MODEL 5
REMARK VINA RESULT:      -5.4      4.032      6.060
REMARK  3 active torsions:
REMARK  status: ('A' for Active; 'I' for Inactive)
REMARK    1  A    between atoms: S_2  and  C_3 
REMARK    2  A    between atoms: C_8  and  N_9 
REMARK       I    between atoms: N_9  and  C_10 
REMARK       I    between atoms: C_10  and  N_12 
REMARK    3  A    between atoms: N_12  and  C_13 
ROOT
HETATM    1  N   UNL     1     -41.378 -49.438  11.350  1.00  0.00    -0.337 N 
HETATM    2  C   UNL     1     -42.128 -50.306  12.133  1.00  0.00     0.322 C 
HETATM    3  O   UNL     1     -42.783 -49.901  13.083  1.00  0.00    -0.247 OA
HETATM    4  N   UNL     1     -41.957 -51.616  11.748  1.00  0.00    -0.293 N 
HETATM    5  H   UNL     1     -41.361 -49.643  10.363  1.00  0.00     0.164 HD
HETATM    6  H   UNL     1     -41.185 -51.825  11.139  1.00  0.00     0.172 HD
ENDROOT
BRANCH   1   7
HETATM    7  C   UNL     1     -41.372 -48.019  11.709  1.00  0.00     0.100 C 
HETATM    8  C   UNL     1     -42.625 -47.240  11.214  1.00  0.00     0.069 C 
HETATM    9  C   UNL     1     -42.545 -45.805  11.760  1.00  0.00     0.017 C 
HETATM   10  C   UNL     1     -41.251 -45.089  11.372  1.00  0.00     0.001 C 
HETATM   11  C   UNL     1     -40.016 -45.889  11.778  1.00  0.00     0.002 C 
HETATM   12  C   UNL     1     -40.061 -47.337  11.289  1.00  0.00     0.026 C 
BRANCH   8  13
HETATM   13  S   UNL     1     -42.761 -47.301   9.363  1.00  0.00    -0.167 SA
HETATM   14  C   UNL     1     -44.012 -46.017   9.085  1.00  0.00     0.090 C 
ENDBRANCH   8  13
ENDBRANCH   1   7
BRANCH   4  15
HETATM   15  C   UNL     1     -42.548 -52.677  12.418  1.00  0.00     0.132 A 
HETATM   16  C   UNL     1     -41.988 -53.332  13.544  1.00  0.00     0.084 A 
HETATM   17  C   UNL     1     -42.943 -54.245  13.924  1.00  0.00     0.076 A 
HETATM   18  C   UNL     1     -43.091 -55.205  15.031  1.00  0.00     0.079 C 
HETATM   19  O   UNL     1     -43.976 -54.193  13.048  1.00  0.00    -0.241 OA
HETATM   20  N   UNL     1     -43.727 -53.223  12.106  1.00  0.00    -0.245 N 
ATOM     21  HN  UNL     1     -44.327 -52.970  11.321  1.00  0.00     0.196 HD
ENDBRANCH   4  15
TORSDOF 3
ENDMDL
MODEL 6
REMARK VINA RESULT:      -5.3      3.213      3.761
REMARK  3 active torsions:
REMARK  status: ('A' for Active; 'I' for Inactive)
REMARK    1  A    between atoms: S_2  and  C_3 
REMARK    2  A    between atoms: C_8  and  N_9 
REMARK       I    between atoms: N_9  and  C_10 
REMARK       I    between atoms: C_10  and  N_12 
REMARK    3  A    between atoms: N_12  and  C_13 
ROOT
HETATM    1  N   UNL     1     -41.372 -51.015  11.993  1.00  0.00    -0.337 N 
HETATM    2  C   UNL     1     -41.912 -49.750  11.806  1.00  0.00     0.322 C 
HETATM    3  O   UNL     1     -42.782 -49.313  12.548  1.00  0.00    -0.247 OA
HETATM    4  N   UNL     1     -41.409 -49.142  10.679  1.00  0.00    -0.293 N 
HETATM    5  H   UNL     1     -40.384 -51.101  11.810  1.00  0.00     0.164 HD
HETATM    6  H   UNL     1     -40.917 -49.720  10.020  1.00  0.00     0.172 HD
ENDROOT
BRANCH   1   7
HETATM    7  C   UNL     1     -41.891 -51.829  13.093  1.00  0.00     0.100 C 
HETATM    8  C   UNL     1     -41.028 -51.763  14.386  1.00  0.00     0.069 C 
HETATM    9  C   UNL     1     -41.749 -52.560  15.486  1.00  0.00     0.017 C 
HETATM   10  C   UNL     1     -42.043 -54.006  15.081  1.00  0.00     0.001 C 
HETATM   11  C   UNL     1     -42.816 -54.081  13.767  1.00  0.00     0.002 C 
HETATM   12  C   UNL     1     -42.160 -53.275  12.646  1.00  0.00     0.026 C 
BRANCH   8  13
HETATM   13  S   UNL     1     -39.302 -52.371  14.068  1.00  0.00    -0.167 SA
HETATM   14  C   UNL     1     -38.353 -50.875  14.457  1.00  0.00     0.090 C 
ENDBRANCH   8  13
ENDBRANCH   1   7
BRANCH   4  15
HETATM   15  C   UNL     1     -41.844 -47.900  10.240  1.00  0.00     0.132 A 
HETATM   16  C   UNL     1     -43.121 -47.642   9.683  1.00  0.00     0.084 A 
HETATM   17  C   UNL     1     -43.142 -46.282   9.479  1.00  0.00     0.076 A 
HETATM   18  C   UNL     1     -44.144 -45.310   9.010  1.00  0.00     0.079 C 
HETATM   19  O   UNL     1     -41.938 -45.766   9.824  1.00  0.00    -0.241 OA
HETATM   20  N   UNL     1     -41.126 -46.773  10.290  1.00  0.00    -0.245 N 
ATOM     21  HN  UNL     1     -40.163 -46.678  10.612  1.00  0.00     0.196 HD
ENDBRANCH   4  15
TORSDOF 3
ENDMDL
MODEL 7
REMARK VINA RESULT:      -5.2      4.781      5.717
REMARK  3 active torsions:
REMARK  status: ('A' for Active; 'I' for Inactive)
REMARK    1  A    between atoms: S_2  and  C_3 
REMARK    2  A    between atoms: C_8  and  N_9 
REMARK       I    between atoms: N_9  and  C_10 
REMARK       I    between atoms: C_10  and  N_12 
REMARK    3  A    between atoms: N_12  and  C_13 
ROOT
HETATM    1  N   UNL     1     -39.900 -51.765  14.337  1.00  0.00    -0.337 N 
HETATM    2  C   UNL     1     -41.189 -51.995  13.875  1.00  0.00     0.322 C 
HETATM    3  O   UNL     1     -41.924 -51.072  13.550  1.00  0.00    -0.247 OA
HETATM    4  N   UNL     1     -41.516 -53.330  13.922  1.00  0.00    -0.293 N 
HETATM    5  H   UNL     1     -39.204 -52.432  14.043  1.00  0.00     0.164 HD
HETATM    6  H   UNL     1     -40.924 -53.935  14.465  1.00  0.00     0.172 HD
ENDROOT
BRANCH   1   7
HETATM    7  C   UNL     1     -39.447 -50.377  14.448  1.00  0.00     0.100 C 
HETATM    8  C   UNL     1     -38.884 -49.790  13.121  1.00  0.00     0.069 C 
HETATM    9  C   UNL     1     -38.563 -48.305  13.352  1.00  0.00     0.017 C 
HETATM   10  C   UNL     1     -37.601 -48.075  14.518  1.00  0.00     0.001 C 
HETATM   11  C   UNL     1     -38.105 -48.722  15.806  1.00  0.00     0.002 C 
HETATM   12  C   UNL     1     -38.474 -50.195  15.623  1.00  0.00     0.026 C 
BRANCH   8  13
HETATM   13  S   UNL     1     -37.417 -50.763  12.530  1.00  0.00    -0.167 SA
HETATM   14  C   UNL     1     -37.185 -50.036  10.885  1.00  0.00     0.090 C 
ENDBRANCH   8  13
ENDBRANCH   1   7
BRANCH   4  15
HETATM   15  C   UNL     1     -42.773 -53.806  13.578  1.00  0.00     0.132 A 
HETATM   16  C   UNL     1     -43.633 -54.519  14.450  1.00  0.00     0.084 A 
HETATM   17  C   UNL     1     -44.785 -54.709  13.723  1.00  0.00     0.076 A 
HETATM   18  C   UNL     1     -46.110 -55.290  13.995  1.00  0.00     0.079 C 
HETATM   19  O   UNL     1     -44.606 -54.209  12.476  1.00  0.00    -0.241 OA
HETATM   20  N   UNL     1     -43.351 -53.654  12.382  1.00  0.00    -0.245 N 
ATOM     21  HN  UNL     1     -42.942 -53.212  11.559  1.00  0.00     0.196 HD
ENDBRANCH   4  15
TORSDOF 3
ENDMDL
MODEL 8
REMARK VINA RESULT:      -5.1      4.131      5.045
REMARK  3 active torsions:
REMARK  status: ('A' for Active; 'I' for Inactive)
REMARK    1  A    between atoms: S_2  and  C_3 
REMARK    2  A    between atoms: C_8  and  N_9 
REMARK       I    between atoms: N_9  and  C_10 
REMARK       I    between atoms: C_10  and  N_12 
REMARK    3  A    between atoms: N_12  and  C_13 
ROOT
HETATM    1  N   UNL     1     -42.428 -50.284  12.059  1.00  0.00    -0.337 N 
HETATM    2  C   UNL     1     -41.490 -49.291  11.807  1.00  0.00     0.322 C 
HETATM    3  O   UNL     1     -40.310 -49.444  12.088  1.00  0.00    -0.247 OA
HETATM    4  N   UNL     1     -42.077 -48.152  11.305  1.00  0.00    -0.293 N 
HETATM    5  H   UNL     1     -43.150 -50.391  11.364  1.00  0.00     0.164 HD
HETATM    6  H   UNL     1     -43.075 -48.069  11.385  1.00  0.00     0.172 HD
ENDROOT
BRANCH   1   7
HETATM    7  C   UNL     1     -41.967 -51.518  12.698  1.00  0.00     0.100 C 
HETATM    8  C   UNL     1     -42.926 -52.727  12.493  1.00  0.00     0.069 C 
HETATM    9  C   UNL     1     -42.265 -53.972  13.107  1.00  0.00     0.017 C 
HETATM   10  C   UNL     1     -41.899 -53.789  14.581  1.00  0.00     0.001 C 
HETATM   11  C   UNL     1     -41.029 -52.555  14.802  1.00  0.00     0.002 C 
HETATM   12  C   UNL     1     -41.624 -51.292  14.178  1.00  0.00     0.026 C 
BRANCH   8  13
HETATM   13  S   UNL     1     -44.605 -52.376  13.205  1.00  0.00    -0.167 SA
HETATM   14  C   UNL     1     -45.290 -54.054  13.267  1.00  0.00     0.090 C 
ENDBRANCH   8  13
ENDBRANCH   1   7
BRANCH   4  15
HETATM   15  C   UNL     1     -41.359 -46.996  11.036  1.00  0.00     0.132 A 
HETATM   16  C   UNL     1     -41.836 -45.680  11.258  1.00  0.00     0.084 A 
HETATM   17  C   UNL     1     -40.774 -44.867  10.937  1.00  0.00     0.076 A 
HETATM   18  C   UNL     1     -40.511 -43.419  10.992  1.00  0.00     0.079 C 
HETATM   19  O   UNL     1     -39.752 -45.635  10.487  1.00  0.00    -0.241 OA
HETATM   20  N   UNL     1     -40.118 -46.959  10.541  1.00  0.00    -0.245 N 
ATOM     21  HN  UNL     1     -39.552 -47.759  10.257  1.00  0.00     0.196 HD
ENDBRANCH   4  15
TORSDOF 3
ENDMDL
MODEL 9
REMARK VINA RESULT:      -5.1      4.360      5.382
REMARK  3 active torsions:
REMARK  status: ('A' for Active; 'I' for Inactive)
REMARK    1  A    between atoms: S_2  and  C_3 
REMARK    2  A    between atoms: C_8  and  N_9 
REMARK       I    between atoms: N_9  and  C_10 
REMARK       I    between atoms: C_10  and  N_12 
REMARK    3  A    between atoms: N_12  and  C_13 
ROOT
HETATM    1  N   UNL     1     -42.880 -48.793  12.740  1.00  0.00    -0.337 N 
HETATM    2  C   UNL     1     -42.828 -50.179  12.664  1.00  0.00     0.322 C 
HETATM    3  O   UNL     1     -41.833 -50.757  12.248  1.00  0.00    -0.247 OA
HETATM    4  N   UNL     1     -44.025 -50.754  13.024  1.00  0.00    -0.293 N 
HETATM    5  H   UNL     1     -43.364 -48.417  13.540  1.00  0.00     0.164 HD
HETATM    6  H   UNL     1     -44.831 -50.156  13.075  1.00  0.00     0.172 HD
ENDROOT
BRANCH   1   7
HETATM    7  C   UNL     1     -41.713 -48.036  12.283  1.00  0.00     0.100 C 
HETATM    8  C   UNL     1     -40.848 -47.456  13.439  1.00  0.00     0.069 C 
HETATM    9  C   UNL     1     -39.604 -46.795  12.822  1.00  0.00     0.017 C 
HETATM   10  C   UNL     1     -39.949 -45.723  11.788  1.00  0.00     0.001 C 
HETATM   11  C   UNL     1     -40.868 -46.261  10.695  1.00  0.00     0.002 C 
HETATM   12  C   UNL     1     -42.106 -46.962  11.256  1.00  0.00     0.026 C 
BRANCH   8  13
HETATM   13  S   UNL     1     -41.836 -46.291  14.494  1.00  0.00    -0.167 SA
HETATM   14  C   UNL     1     -40.522 -45.597  15.533  1.00  0.00     0.090 C 
ENDBRANCH   8  13
ENDBRANCH   1   7
BRANCH   4  15
HETATM   15  C   UNL     1     -44.246 -52.122  12.966  1.00  0.00     0.132 A 
HETATM   16  C   UNL     1     -45.001 -52.858  13.913  1.00  0.00     0.084 A 
HETATM   17  C   UNL     1     -45.027 -54.140  13.415  1.00  0.00     0.076 A 
HETATM   18  C   UNL     1     -45.672 -55.404  13.811  1.00  0.00     0.079 C 
HETATM   19  O   UNL     1     -44.282 -54.189  12.284  1.00  0.00    -0.241 OA
HETATM   20  N   UNL     1     -43.788 -52.935  12.009  1.00  0.00    -0.245 N 
ATOM     21  HN  UNL     1     -43.189 -52.677  11.225  1.00  0.00     0.196 HD
ENDBRANCH   4  15
TORSDOF 3
ENDMDL
