MODEL 1
REMARK VINA RESULT:      -6.0      0.000      0.000
REMARK  5 active torsions:
REMARK  status: ('A' for Active; 'I' for Inactive)
REMARK    1  A    between atoms: C_2  and  N_3 
REMARK    2  A    between atoms: C_2  and  C_14 
REMARK    3  A    between atoms: N_3  and  C_4 
REMARK    4  A    between atoms: C_4  and  C_6 
REMARK       I    between atoms: C_6  and  N_8 
REMARK    5  A    between atoms: C_14  and  N_16 
ROOT
HETATM    1  N   UNL     1     -41.858 -49.896  11.326  1.00  0.00     0.103 N 
HETATM    2  H   UNL     1     -41.437 -50.676  10.813  1.00  0.00     0.317 HD
ENDROOT
BRANCH   1   3
HETATM    3  C   UNL     1     -41.027 -48.679  11.178  1.00  0.00     0.241 C 
HETATM    4  C   UNL     1     -39.965 -48.594  12.288  1.00  0.00     0.045 C 
BRANCH   3   5
HETATM    5  C   UNL     1     -41.815 -47.341  10.981  1.00  0.00     0.136 C 
HETATM    6  C   UNL     1     -40.942 -46.168  10.525  1.00  0.00     0.036 C 
BRANCH   5   7
HETATM    7  N   UNL     1     -42.974 -47.453  10.092  1.00  0.00    -0.297 N 
HETATM    8  C   UNL     1     -44.307 -47.422  10.408  1.00  0.00     0.118 A 
HETATM    9  C   UNL     1     -44.997 -47.492   9.216  1.00  0.00    -0.028 A 
HETATM   10  C   UNL     1     -46.457 -47.432   8.992  1.00  0.00     0.051 C 
HETATM   11  C   UNL     1     -43.984 -47.627   8.243  1.00  0.00     0.115 A 
HETATM   12  N   UNL     1     -42.759 -47.646   8.770  1.00  0.00    -0.309 N 
ATOM     13  HN  UNL     1     -41.869 -47.777   8.290  1.00  0.00     0.186 HD
ENDBRANCH   5   7
ENDBRANCH   3   5
ENDBRANCH   1   3
BRANCH   1  14
HETATM   14  C   UNL     1     -42.181 -50.368  12.693  1.00  0.00     0.308 C 
HETATM   15  C   UNL     1     -43.584 -50.000  13.172  1.00  0.00     0.053 C 
BRANCH  14  16
HETATM   16  C   UNL     1     -42.080 -51.920  12.773  1.00  0.00     0.253 C 
HETATM   17  O   UNL     1     -42.813 -52.653  12.101  1.00  0.00    -0.271 OA
HETATM   18  N   UNL     1     -41.147 -52.448  13.663  1.00  0.00    -0.346 N 
HETATM   19  C   UNL     1     -40.130 -51.711  14.425  1.00  0.00     0.152 C 
HETATM   20  C   UNL     1     -41.184 -53.879  13.979  1.00  0.00     0.152 C 
HETATM   21  C   UNL     1     -38.767 -52.396  14.276  1.00  0.00     0.187 C 
HETATM   22  O   UNL     1     -38.837 -53.769  14.680  1.00  0.00    -0.388 OA
HETATM   23  C   UNL     1     -39.785 -54.491  13.875  1.00  0.00     0.187 C 
ENDBRANCH  14  16
ENDBRANCH   1  14
TORSDOF 5
ENDMDL
MODEL 2
REMARK VINA RESULT:      -5.9      3.051      6.384
REMARK  5 active torsions:
REMARK  status: ('A' for Active; 'I' for Inactive)
REMARK    1  A    between atoms: C_2  and  N_3 
REMARK    2  A    between atoms: C_2  and  C_14 
REMARK    3  A    between atoms: N_3  and  C_4 
REMARK    4  A    between atoms: C_4  and  C_6 
REMARK       I    between atoms: C_6  and  N_8 
REMARK    5  A    between atoms: C_14  and  N_16 
ROOT
HETATM    1  N   UNL     1     -42.189 -50.672  11.878  1.00  0.00     0.103 N 
HETATM    2  H   UNL     1     -42.945 -50.842  11.209  1.00  0.00     0.317 HD
ENDROOT
BRANCH   1   3
HETATM    3  C   UNL     1     -42.033 -51.836  12.781  1.00  0.00     0.241 C 
HETATM    4  C   UNL     1     -40.618 -52.432  12.679  1.00  0.00     0.045 C 
BRANCH   3   5
HETATM    5  C   UNL     1     -43.161 -52.917  12.693  1.00  0.00     0.136 C 
HETATM    6  C   UNL     1     -42.819 -54.230  13.405  1.00  0.00     0.036 C 
BRANCH   5   7
HETATM    7  N   UNL     1     -44.475 -52.451  13.145  1.00  0.00    -0.297 N 
HETATM    8  C   UNL     1     -44.938 -52.293  14.424  1.00  0.00     0.118 A 
HETATM    9  C   UNL     1     -46.206 -51.761  14.322  1.00  0.00    -0.028 A 
HETATM   10  C   UNL     1     -47.120 -51.342  15.406  1.00  0.00     0.051 C 
HETATM   11  C   UNL     1     -46.437 -51.696  12.931  1.00  0.00     0.115 A 
HETATM   12  N   UNL     1     -45.410 -52.151  12.214  1.00  0.00    -0.309 N 
ATOM     13  HN  UNL     1     -45.344 -52.250  11.201  1.00  0.00     0.186 HD
ENDBRANCH   5   7
ENDBRANCH   3   5
ENDBRANCH   1   3
BRANCH   1  14
HETATM   14  C   UNL     1     -42.401 -49.335  12.479  1.00  0.00     0.308 C 
HETATM   15  C   UNL     1     -42.697 -49.357  13.978  1.00  0.00     0.053 C 
BRANCH  14  16
HETATM   16  C   UNL     1     -41.137 -48.444  12.292  1.00  0.00     0.253 C 
HETATM   17  O   UNL     1     -40.007 -48.855  12.575  1.00  0.00    -0.271 OA
HETATM   18  N   UNL     1     -41.340 -47.149  11.819  1.00  0.00    -0.346 N 
HETATM   19  C   UNL     1     -42.596 -46.571  11.325  1.00  0.00     0.152 C 
HETATM   20  C   UNL     1     -40.239 -46.183  11.871  1.00  0.00     0.152 C 
HETATM   21  C   UNL     1     -42.355 -45.861   9.988  1.00  0.00     0.187 C 
HETATM   22  O   UNL     1     -41.329 -44.867  10.114  1.00  0.00    -0.388 OA
HETATM   23  C   UNL     1     -40.088 -45.463  10.529  1.00  0.00     0.187 C 
ENDBRANCH  14  16
ENDBRANCH   1  14
TORSDOF 5
ENDMDL
MODEL 3
REMARK VINA RESULT:      -5.7      2.321      3.313
REMARK  5 active torsions:
REMARK  status: ('A' for Active; 'I' for Inactive)
REMARK    1  A    between atoms: C_2  and  N_3 
REMARK    2  A    between atoms: C_2  and  C_14 
REMARK    3  A    between atoms: N_3  and  C_4 
REMARK    4  A    between atoms: C_4  and  C_6 
REMARK       I    between atoms: C_6  and  N_8 
REMARK    5  A    between atoms: C_14  and  N_16 
ROOT
HETATM    1  N   UNL     1     -41.058 -46.830  12.780  1.00  0.00     0.103 N 
HETATM    2  H   UNL     1     -41.739 -47.512  13.129  1.00  0.00     0.317 HD
ENDROOT
BRANCH   1   3
HETATM    3  C   UNL     1     -40.849 -47.013  11.325  1.00  0.00     0.241 C 
HETATM    4  C   UNL     1     -41.135 -45.711  10.556  1.00  0.00     0.045 C 
BRANCH   3   5
HETATM    5  C   UNL     1     -41.546 -48.264  10.693  1.00  0.00     0.136 C 
HETATM    6  C   UNL     1     -41.853 -49.378  11.698  1.00  0.00     0.036 C 
BRANCH   5   7
HETATM    7  N   UNL     1     -42.759 -47.954   9.931  1.00  0.00    -0.297 N 
HETATM    8  C   UNL     1     -44.014 -47.660  10.394  1.00  0.00     0.118 A 
HETATM    9  C   UNL     1     -44.786 -47.372   9.288  1.00  0.00    -0.028 A 
HETATM   10  C   UNL     1     -46.197 -46.934   9.238  1.00  0.00     0.051 C 
HETATM   11  C   UNL     1     -43.913 -47.584   8.200  1.00  0.00     0.115 A 
HETATM   12  N   UNL     1     -42.697 -47.976   8.579  1.00  0.00    -0.309 N 
ATOM     13  HN  UNL     1     -41.906 -48.233   7.990  1.00  0.00     0.186 HD
ENDBRANCH   5   7
ENDBRANCH   3   5
ENDBRANCH   1   3
BRANCH   1  14
HETATM   14  C   UNL     1     -39.876 -46.865  13.673  1.00  0.00     0.308 C 
HETATM   15  C   UNL     1     -39.863 -45.778  14.746  1.00  0.00     0.053 C 
BRANCH  14  16
HETATM   16  C   UNL     1     -39.798 -48.227  14.424  1.00  0.00     0.253 C 
HETATM   17  O   UNL     1     -40.511 -48.469  15.403  1.00  0.00    -0.271 OA
HETATM   18  N   UNL     1     -38.865 -49.152  13.961  1.00  0.00    -0.346 N 
HETATM   19  C   UNL     1     -38.049 -49.058  12.744  1.00  0.00     0.152 C 
HETATM   20  C   UNL     1     -38.558 -50.333  14.774  1.00  0.00     0.152 C 
HETATM   21  C   UNL     1     -38.131 -50.369  11.955  1.00  0.00     0.187 C 
HETATM   22  O   UNL     1     -37.738 -51.482  12.769  1.00  0.00    -0.388 OA
HETATM   23  C   UNL     1     -38.593 -51.602  13.919  1.00  0.00     0.187 C 
ENDBRANCH  14  16
ENDBRANCH   1  14
TORSDOF 5
ENDMDL
MODEL 4
REMARK VINA RESULT:      -5.7      3.208      5.398
REMARK  5 active torsions:
REMARK  status: ('A' for Active; 'I' for Inactive)
REMARK    1  A    between atoms: C_2  and  N_3 
REMARK    2  A    between atoms: C_2  and  C_14 
REMARK    3  A    between atoms: N_3  and  C_4 
REMARK    4  A    between atoms: C_4  and  C_6 
REMARK       I    between atoms: C_6  and  N_8 
REMARK    5  A    between atoms: C_14  and  N_16 
ROOT
HETATM    1  N   UNL     1     -44.309 -50.573  12.614  1.00  0.00     0.103 N 
HETATM    2  H   UNL     1     -44.245 -50.871  11.637  1.00  0.00     0.317 HD
ENDROOT
BRANCH   1   3
HETATM    3  C   UNL     1     -42.954 -50.358  13.174  1.00  0.00     0.241 C 
HETATM    4  C   UNL     1     -42.790 -48.919  13.692  1.00  0.00     0.045 C 
BRANCH   3   5
HETATM    5  C   UNL     1     -41.766 -50.823  12.267  1.00  0.00     0.136 C 
HETATM    6  C   UNL     1     -40.689 -49.754  12.059  1.00  0.00     0.036 C 
BRANCH   5   7
HETATM    7  N   UNL     1     -41.130 -52.069  12.704  1.00  0.00    -0.297 N 
HETATM    8  C   UNL     1     -40.212 -52.263  13.701  1.00  0.00     0.118 A 
HETATM    9  C   UNL     1     -39.981 -53.621  13.767  1.00  0.00    -0.028 A 
HETATM   10  C   UNL     1     -39.124 -54.365  14.714  1.00  0.00     0.051 C 
HETATM   11  C   UNL     1     -40.766 -54.151  12.720  1.00  0.00     0.115 A 
HETATM   12  N   UNL     1     -41.431 -53.213  12.046  1.00  0.00    -0.309 N 
ATOM     13  HN  UNL     1     -42.026 -53.330  11.226  1.00  0.00     0.186 HD
ENDBRANCH   5   7
ENDBRANCH   3   5
ENDBRANCH   1   3
BRANCH   1  14
HETATM   14  C   UNL     1     -45.225 -51.501  13.318  1.00  0.00     0.308 C 
HETATM   15  C   UNL     1     -46.628 -51.577  12.720  1.00  0.00     0.053 C 
BRANCH  14  16
HETATM   16  C   UNL     1     -44.656 -52.951  13.295  1.00  0.00     0.253 C 
HETATM   17  O   UNL     1     -44.493 -53.566  12.237  1.00  0.00    -0.271 OA
HETATM   18  N   UNL     1     -44.369 -53.537  14.526  1.00  0.00    -0.346 N 
HETATM   19  C   UNL     1     -44.390 -52.890  15.845  1.00  0.00     0.152 C 
HETATM   20  C   UNL     1     -44.086 -54.974  14.591  1.00  0.00     0.152 C 
HETATM   21  C   UNL     1     -43.102 -53.216  16.609  1.00  0.00     0.187 C 
HETATM   22  O   UNL     1     -42.917 -54.633  16.719  1.00  0.00    -0.388 OA
HETATM   23  C   UNL     1     -42.826 -55.240  15.418  1.00  0.00     0.187 C 
ENDBRANCH  14  16
ENDBRANCH   1  14
TORSDOF 5
ENDMDL
MODEL 5
REMARK VINA RESULT:      -5.7      4.534      6.515
REMARK  5 active torsions:
REMARK  status: ('A' for Active; 'I' for Inactive)
REMARK    1  A    between atoms: C_2  and  N_3 
REMARK    2  A    between atoms: C_2  and  C_14 
REMARK    3  A    between atoms: N_3  and  C_4 
REMARK    4  A    between atoms: C_4  and  C_6 
REMARK       I    between atoms: C_6  and  N_8 
REMARK    5  A    between atoms: C_14  and  N_16 
ROOT
HETATM    1  N   UNL     1     -40.449 -46.332  10.278  1.00  0.00     0.103 N 
HETATM    2  H   UNL     1     -41.269 -45.995   9.764  1.00  0.00     0.317 HD
ENDROOT
BRANCH   1   3
HETATM    3  C   UNL     1     -40.873 -47.056  11.499  1.00  0.00     0.241 C 
HETATM    4  C   UNL     1     -40.428 -48.529  11.453  1.00  0.00     0.045 C 
BRANCH   3   5
HETATM    5  C   UNL     1     -42.375 -46.882  11.903  1.00  0.00     0.136 C 
HETATM    6  C   UNL     1     -42.637 -45.677  12.812  1.00  0.00     0.036 C 
BRANCH   5   7
HETATM    7  N   UNL     1     -43.300 -46.841  10.768  1.00  0.00    -0.297 N 
HETATM    8  C   UNL     1     -44.123 -47.828  10.292  1.00  0.00     0.118 A 
HETATM    9  C   UNL     1     -44.846 -47.274   9.257  1.00  0.00    -0.028 A 
HETATM   10  C   UNL     1     -45.916 -47.893   8.446  1.00  0.00     0.051 C 
HETATM   11  C   UNL     1     -44.336 -45.962   9.149  1.00  0.00     0.115 A 
HETATM   12  N   UNL     1     -43.372 -45.707  10.032  1.00  0.00    -0.309 N 
ATOM     13  HN  UNL     1     -42.817 -44.857  10.131  1.00  0.00     0.186 HD
ENDBRANCH   5   7
ENDBRANCH   3   5
ENDBRANCH   1   3
BRANCH   1  14
HETATM   14  C   UNL     1     -39.501 -45.203  10.420  1.00  0.00     0.308 C 
HETATM   15  C   UNL     1     -38.918 -44.699   9.101  1.00  0.00     0.053 C 
BRANCH  14  16
HETATM   16  C   UNL     1     -40.200 -43.983  11.089  1.00  0.00     0.253 C 
HETATM   17  O   UNL     1     -41.027 -43.296  10.481  1.00  0.00    -0.271 OA
HETATM   18  N   UNL     1     -39.828 -43.679  12.397  1.00  0.00    -0.346 N 
HETATM   19  C   UNL     1     -38.963 -44.471  13.281  1.00  0.00     0.152 C 
HETATM   20  C   UNL     1     -40.244 -42.403  12.985  1.00  0.00     0.152 C 
HETATM   21  C   UNL     1     -39.625 -44.629  14.655  1.00  0.00     0.187 C 
HETATM   22  O   UNL     1     -39.933 -43.351  15.225  1.00  0.00    -0.388 OA
HETATM   23  C   UNL     1     -40.837 -42.619  14.380  1.00  0.00     0.187 C 
ENDBRANCH  14  16
ENDBRANCH   1  14
TORSDOF 5
ENDMDL
MODEL 6
REMARK VINA RESULT:      -5.5      2.003      3.783
REMARK  5 active torsions:
REMARK  status: ('A' for Active; 'I' for Inactive)
REMARK    1  A    between atoms: C_2  and  N_3 
REMARK    2  A    between atoms: C_2  and  C_14 
REMARK    3  A    between atoms: N_3  and  C_4 
REMARK    4  A    between atoms: C_4  and  C_6 
REMARK       I    between atoms: C_6  and  N_8 
REMARK    5  A    between atoms: C_14  and  N_16 
ROOT
HETATM    1  N   UNL     1     -40.288 -48.846  12.913  1.00  0.00     0.103 N 
HETATM    2  H   UNL     1     -40.503 -49.167  13.861  1.00  0.00     0.317 HD
ENDROOT
BRANCH   1   3
HETATM    3  C   UNL     1     -41.468 -48.177  12.318  1.00  0.00     0.241 C 
HETATM    4  C   UNL     1     -42.734 -49.037  12.482  1.00  0.00     0.045 C 
BRANCH   3   5
HETATM    5  C   UNL     1     -41.279 -47.636  10.862  1.00  0.00     0.136 C 
HETATM    6  C   UNL     1     -42.504 -47.831   9.963  1.00  0.00     0.036 C 
BRANCH   5   7
HETATM    7  N   UNL     1     -40.848 -46.237  10.793  1.00  0.00    -0.297 N 
HETATM    8  C   UNL     1     -41.456 -45.123  11.309  1.00  0.00     0.118 A 
HETATM    9  C   UNL     1     -40.622 -44.058  11.041  1.00  0.00    -0.028 A 
HETATM   10  C   UNL     1     -40.778 -42.642  11.437  1.00  0.00     0.051 C 
HETATM   11  C   UNL     1     -39.564 -44.631  10.302  1.00  0.00     0.115 A 
HETATM   12  N   UNL     1     -39.716 -45.942  10.112  1.00  0.00    -0.309 N 
ATOM     13  HN  UNL     1     -39.119 -46.574   9.579  1.00  0.00     0.186 HD
ENDBRANCH   5   7
ENDBRANCH   3   5
ENDBRANCH   1   3
BRANCH   1  14
HETATM   14  C   UNL     1     -39.669 -49.973  12.176  1.00  0.00     0.308 C 
HETATM   15  C   UNL     1     -38.272 -49.680  11.633  1.00  0.00     0.053 C 
BRANCH  14  16
HETATM   16  C   UNL     1     -39.532 -51.220  13.098  1.00  0.00     0.253 C 
HETATM   17  O   UNL     1     -38.680 -51.275  13.991  1.00  0.00    -0.271 OA
HETATM   18  N   UNL     1     -40.395 -52.286  12.853  1.00  0.00    -0.346 N 
HETATM   19  C   UNL     1     -41.531 -52.313  11.923  1.00  0.00     0.152 C 
HETATM   20  C   UNL     1     -40.146 -53.577  13.502  1.00  0.00     0.152 C 
HETATM   21  C   UNL     1     -42.769 -52.882  12.625  1.00  0.00     0.187 C 
HETATM   22  O   UNL     1     -42.499 -54.181  13.167  1.00  0.00    -0.388 OA
HETATM   23  C   UNL     1     -41.432 -54.123  14.129  1.00  0.00     0.187 C 
ENDBRANCH  14  16
ENDBRANCH   1  14
TORSDOF 5
ENDMDL
MODEL 7
REMARK VINA RESULT:      -5.5      2.587      4.694
REMARK  5 active torsions:
REMARK  status: ('A' for Active; 'I' for Inactive)
REMARK    1  A    between atoms: C_2  and  N_3 
REMARK    2  A    between atoms: C_2  and  C_14 
REMARK    3  A    between atoms: N_3  and  C_4 
REMARK    4  A    between atoms: C_4  and  C_6 
REMARK       I    between atoms: C_6  and  N_8 
REMARK    5  A    between atoms: C_14  and  N_16 
ROOT
HETATM    1  N   UNL     1     -42.547 -50.047  11.954  1.00  0.00     0.103 N 
HETATM    2  H   UNL     1     -41.827 -50.618  11.501  1.00  0.00     0.317 HD
ENDROOT
BRANCH   1   3
HETATM    3  C   UNL     1     -42.257 -48.608  11.758  1.00  0.00     0.241 C 
HETATM    4  C   UNL     1     -43.430 -47.895  11.062  1.00  0.00     0.045 C 
BRANCH   3   5
HETATM    5  C   UNL     1     -40.870 -48.278  11.112  1.00  0.00     0.136 C 
HETATM    6  C   UNL     1     -40.566 -46.779  11.025  1.00  0.00     0.036 C 
BRANCH   5   7
HETATM    7  N   UNL     1     -39.738 -48.964  11.740  1.00  0.00    -0.297 N 
HETATM    8  C   UNL     1     -39.253 -48.835  13.015  1.00  0.00     0.118 A 
HETATM    9  C   UNL     1     -38.226 -49.746  13.141  1.00  0.00    -0.028 A 
HETATM   10  C   UNL     1     -37.411 -50.056  14.335  1.00  0.00     0.051 C 
HETATM   11  C   UNL     1     -38.131 -50.331  11.860  1.00  0.00     0.115 A 
HETATM   12  N   UNL     1     -39.014 -49.833  10.996  1.00  0.00    -0.309 N 
ATOM     13  HN  UNL     1     -39.121 -50.054  10.007  1.00  0.00     0.186 HD
ENDBRANCH   5   7
ENDBRANCH   3   5
ENDBRANCH   1   3
BRANCH   1  14
HETATM   14  C   UNL     1     -42.727 -50.549  13.337  1.00  0.00     0.308 C 
HETATM   15  C   UNL     1     -42.800 -49.455  14.400  1.00  0.00     0.053 C 
BRANCH  14  16
HETATM   16  C   UNL     1     -44.046 -51.368  13.454  1.00  0.00     0.253 C 
HETATM   17  O   UNL     1     -45.100 -50.974  12.944  1.00  0.00    -0.271 OA
HETATM   18  N   UNL     1     -43.993 -52.552  14.186  1.00  0.00    -0.346 N 
HETATM   19  C   UNL     1     -42.797 -53.204  14.735  1.00  0.00     0.152 C 
HETATM   20  C   UNL     1     -45.241 -53.226  14.556  1.00  0.00     0.152 C 
HETATM   21  C   UNL     1     -42.804 -54.695  14.377  1.00  0.00     0.187 C 
HETATM   22  O   UNL     1     -44.007 -55.326  14.836  1.00  0.00    -0.388 OA
HETATM   23  C   UNL     1     -45.164 -54.721  14.233  1.00  0.00     0.187 C 
ENDBRANCH  14  16
ENDBRANCH   1  14
TORSDOF 5
ENDMDL
MODEL 8
REMARK VINA RESULT:      -5.5      3.148      7.062
REMARK  5 active torsions:
REMARK  status: ('A' for Active; 'I' for Inactive)
REMARK    1  A    between atoms: C_2  and  N_3 
REMARK    2  A    between atoms: C_2  and  C_14 
REMARK    3  A    between atoms: N_3  and  C_4 
REMARK    4  A    between atoms: C_4  and  C_6 
REMARK       I    between atoms: C_6  and  N_8 
REMARK    5  A    between atoms: C_14  and  N_16 
ROOT
HETATM    1  N   UNL     1     -39.666 -47.359  11.429  1.00  0.00     0.103 N 
HETATM    2  H   UNL     1     -39.683 -47.437  10.408  1.00  0.00     0.317 HD
ENDROOT
BRANCH   1   3
HETATM    3  C   UNL     1     -40.146 -48.617  12.046  1.00  0.00     0.241 C 
HETATM    4  C   UNL     1     -40.582 -48.389  13.504  1.00  0.00     0.045 C 
BRANCH   3   5
HETATM    5  C   UNL     1     -39.208 -49.858  11.874  1.00  0.00     0.136 C 
HETATM    6  C   UNL     1     -37.872 -49.733  12.612  1.00  0.00     0.036 C 
BRANCH   5   7
HETATM    7  N   UNL     1     -39.834 -51.136  12.222  1.00  0.00    -0.297 N 
HETATM    8  C   UNL     1     -39.534 -51.989  13.251  1.00  0.00     0.118 A 
HETATM    9  C   UNL     1     -40.453 -53.015  13.195  1.00  0.00    -0.028 A 
HETATM   10  C   UNL     1     -40.612 -54.162  14.114  1.00  0.00     0.051 C 
HETATM   11  C   UNL     1     -41.227 -52.716  12.053  1.00  0.00     0.115 A 
HETATM   12  N   UNL     1     -40.831 -51.603  11.436  1.00  0.00    -0.309 N 
ATOM     13  HN  UNL     1     -41.194 -51.199  10.573  1.00  0.00     0.186 HD
ENDBRANCH   5   7
ENDBRANCH   3   5
ENDBRANCH   1   3
BRANCH   1  14
HETATM   14  C   UNL     1     -40.332 -46.090  11.804  1.00  0.00     0.308 C 
HETATM   15  C   UNL     1     -39.376 -44.980  12.237  1.00  0.00     0.053 C 
BRANCH  14  16
HETATM   16  C   UNL     1     -41.148 -45.526  10.604  1.00  0.00     0.253 C 
HETATM   17  O   UNL     1     -40.639 -44.765   9.774  1.00  0.00    -0.271 OA
HETATM   18  N   UNL     1     -42.489 -45.893  10.522  1.00  0.00    -0.346 N 
HETATM   19  C   UNL     1     -43.192 -46.881  11.352  1.00  0.00     0.152 C 
HETATM   20  C   UNL     1     -43.371 -45.195   9.582  1.00  0.00     0.152 C 
HETATM   21  C   UNL     1     -43.997 -47.834  10.461  1.00  0.00     0.187 C 
HETATM   22  O   UNL     1     -44.904 -47.107   9.623  1.00  0.00    -0.388 OA
HETATM   23  C   UNL     1     -44.193 -46.197   8.767  1.00  0.00     0.187 C 
ENDBRANCH  14  16
ENDBRANCH   1  14
TORSDOF 5
ENDMDL
MODEL 9
REMARK VINA RESULT:      -5.5      2.997      5.459
REMARK  5 active torsions:
REMARK  status: ('A' for Active; 'I' for Inactive)
REMARK    1  A    between atoms: C_2  and  N_3 
REMARK    2  A    between atoms: C_2  and  C_14 
REMARK    3  A    between atoms: N_3  and  C_4 
REMARK    4  A    between atoms: C_4  and  C_6 
REMARK       I    between atoms: C_6  and  N_8 
REMARK    5  A    between atoms: C_14  and  N_16 
ROOT
HETATM    1  N   UNL     1     -42.647 -50.173  12.008  1.00  0.00     0.103 N 
HETATM    2  H   UNL     1     -43.291 -49.752  12.685  1.00  0.00     0.317 HD
ENDROOT
BRANCH   1   3
HETATM    3  C   UNL     1     -42.123 -51.456  12.531  1.00  0.00     0.241 C 
HETATM    4  C   UNL     1     -40.758 -51.793  11.905  1.00  0.00     0.045 C 
BRANCH   3   5
HETATM    5  C   UNL     1     -43.124 -52.659  12.503  1.00  0.00     0.136 C 
HETATM    6  C   UNL     1     -42.606 -53.914  13.211  1.00  0.00     0.036 C 
BRANCH   5   7
HETATM    7  N   UNL     1     -44.462 -52.338  13.007  1.00  0.00    -0.297 N 
HETATM    8  C   UNL     1     -44.861 -52.094  14.294  1.00  0.00     0.118 A 
HETATM    9  C   UNL     1     -46.199 -51.769  14.239  1.00  0.00    -0.028 A 
HETATM   10  C   UNL     1     -47.095 -51.358  15.341  1.00  0.00     0.051 C 
HETATM   11  C   UNL     1     -46.527 -51.908  12.873  1.00  0.00     0.115 A 
HETATM   12  N   UNL     1     -45.491 -52.293  12.129  1.00  0.00    -0.309 N 
ATOM     13  HN  UNL     1     -45.476 -52.504  11.131  1.00  0.00     0.186 HD
ENDBRANCH   5   7
ENDBRANCH   3   5
ENDBRANCH   1   3
BRANCH   1  14
HETATM   14  C   UNL     1     -41.679 -49.133  11.588  1.00  0.00     0.308 C 
HETATM   15  C   UNL     1     -42.186 -48.209  10.483  1.00  0.00     0.053 C 
BRANCH  14  16
HETATM   16  C   UNL     1     -41.303 -48.218  12.791  1.00  0.00     0.253 C 
HETATM   17  O   UNL     1     -42.167 -47.669  13.483  1.00  0.00    -0.271 OA
HETATM   18  N   UNL     1     -39.946 -48.021  13.035  1.00  0.00    -0.346 N 
HETATM   19  C   UNL     1     -38.818 -48.701  12.386  1.00  0.00     0.152 C 
HETATM   20  C   UNL     1     -39.528 -46.974  13.973  1.00  0.00     0.152 C 
HETATM   21  C   UNL     1     -37.828 -49.201  13.445  1.00  0.00     0.187 C 
HETATM   22  O   UNL     1     -37.385 -48.125  14.281  1.00  0.00    -0.388 OA
HETATM   23  C   UNL     1     -38.495 -47.517  14.964  1.00  0.00     0.187 C 
ENDBRANCH  14  16
ENDBRANCH   1  14
TORSDOF 5
ENDMDL
