MODEL 1
REMARK VINA RESULT:      -6.4      0.000      0.000
REMARK  5 active torsions:
REMARK  status: ('A' for Active; 'I' for Inactive)
REMARK    1  A    between atoms: O_2  and  C_3 
REMARK    2  A    between atoms: C_6  and  N_7 
REMARK       I    between atoms: N_7  and  C_8 
REMARK       I    between atoms: C_8  and  N_10 
REMARK    3  A    between atoms: N_10  and  C_11 
REMARK    4  A    between atoms: C_11  and  C_12 
REMARK    5  A    between atoms: C_12  and  C_13 
ROOT
HETATM    1  N   UNL     1     -41.228 -49.023  10.376  1.00  0.00    -0.307 N 
HETATM    2  C   UNL     1     -41.303 -49.802  11.510  1.00  0.00     0.320 C 
HETATM    3  O   UNL     1     -41.754 -49.438  12.590  1.00  0.00    -0.247 OA
HETATM    4  N   UNL     1     -40.805 -51.088  11.335  1.00  0.00    -0.343 N 
HETATM    5  H   UNL     1     -40.504 -49.270   9.718  1.00  0.00     0.170 HD
HETATM    6  H   UNL     1     -40.976 -51.478  10.417  1.00  0.00     0.164 HD
ENDROOT
BRANCH   1   7
HETATM    7  C   UNL     1     -41.831 -47.731  10.258  1.00  0.00     0.058 A 
HETATM    8  C   UNL     1     -43.086 -47.570   9.655  1.00  0.00     0.036 A 
HETATM    9  C   UNL     1     -43.665 -46.309   9.524  1.00  0.00     0.058 A 
HETATM   10  C   UNL     1     -42.953 -45.219   9.975  1.00  0.00     0.141 A 
HETATM   11  N   UNL     1     -41.744 -45.317  10.558  1.00  0.00    -0.339 N 
HETATM   12  C   UNL     1     -41.201 -46.559  10.708  1.00  0.00     0.034 A 
ATOM     13  HN  UNL     1     -41.248 -44.486  10.879  1.00  0.00     0.168 HD
HETATM   14  C   UNL     1     -39.869 -46.545  11.396  1.00  0.00     0.070 C 
BRANCH  10  15
HETATM   15  O   UNL     1     -43.535 -43.983   9.787  1.00  0.00    -0.341 OA
HETATM   16  C   UNL     1     -43.185 -43.048  10.803  1.00  0.00     0.211 C 
ENDBRANCH  10  15
ENDBRANCH   1   7
BRANCH   4  17
HETATM   17  C   UNL     1     -41.011 -51.974  12.471  1.00  0.00     0.125 C 
BRANCH  17  18
HETATM   18  C   UNL     1     -42.252 -52.866  12.432  1.00  0.00     0.024 C 
BRANCH  18  19
HETATM   19  C   UNL     1     -42.999 -52.871  13.798  1.00  0.00    -0.010 C 
HETATM   20  C   UNL     1     -43.684 -54.219  14.078  1.00  0.00     0.035 C 
HETATM   21  C   UNL     1     -44.982 -54.401  13.282  1.00  0.00     0.272 C 
HETATM   22  N   UNL     1     -45.942 -53.299  13.426  1.00  0.00     0.084 N 
HETATM   23  C   UNL     1     -46.632 -53.324  14.715  1.00  0.00     0.309 C 
HETATM   24  C   UNL     1     -45.315 -52.000  13.157  1.00  0.00     0.272 C 
HETATM   25  C   UNL     1     -44.042 -51.749  13.969  1.00  0.00     0.035 C 
ENDBRANCH  18  19
ENDBRANCH  17  18
ENDBRANCH   4  17
TORSDOF 5
ENDMDL
MODEL 2
REMARK VINA RESULT:      -6.3      1.544      2.426
REMARK  5 active torsions:
REMARK  status: ('A' for Active; 'I' for Inactive)
REMARK    1  A    between atoms: O_2  and  C_3 
REMARK    2  A    between atoms: C_6  and  N_7 
REMARK       I    between atoms: N_7  and  C_8 
REMARK       I    between atoms: C_8  and  N_10 
REMARK    3  A    between atoms: N_10  and  C_11 
REMARK    4  A    between atoms: C_11  and  C_12 
REMARK    5  A    between atoms: C_12  and  C_13 
ROOT
HETATM    1  N   UNL     1     -41.661 -49.007  10.912  1.00  0.00    -0.307 N 
HETATM    2  C   UNL     1     -41.962 -49.699  12.065  1.00  0.00     0.320 C 
HETATM    3  O   UNL     1     -42.116 -49.195  13.173  1.00  0.00    -0.247 OA
HETATM    4  N   UNL     1     -42.080 -51.071  11.876  1.00  0.00    -0.343 N 
HETATM    5  H   UNL     1     -41.174 -49.529  10.199  1.00  0.00     0.170 HD
HETATM    6  H   UNL     1     -42.483 -51.334  10.985  1.00  0.00     0.164 HD
ENDROOT
BRANCH   1   7
HETATM    7  C   UNL     1     -41.660 -47.580  10.818  1.00  0.00     0.058 A 
HETATM    8  C   UNL     1     -40.490 -46.840  11.033  1.00  0.00     0.036 A 
HETATM    9  C   UNL     1     -40.494 -45.448  10.960  1.00  0.00     0.058 A 
HETATM   10  C   UNL     1     -41.692 -44.817  10.703  1.00  0.00     0.141 A 
HETATM   11  N   UNL     1     -42.845 -45.479  10.493  1.00  0.00    -0.339 N 
HETATM   12  C   UNL     1     -42.822 -46.841  10.537  1.00  0.00     0.034 A 
ATOM     13  HN  UNL     1     -43.712 -44.975  10.306  1.00  0.00     0.168 HD
HETATM   14  C   UNL     1     -44.156 -47.466  10.258  1.00  0.00     0.070 C 
BRANCH  10  15
HETATM   15  O   UNL     1     -41.669 -43.438  10.685  1.00  0.00    -0.341 OA
HETATM   16  C   UNL     1     -40.610 -42.894  11.466  1.00  0.00     0.211 C 
ENDBRANCH  10  15
ENDBRANCH   1   7
BRANCH   4  17
HETATM   17  C   UNL     1     -42.546 -51.803  13.045  1.00  0.00     0.125 C 
BRANCH  17  18
HETATM   18  C   UNL     1     -43.982 -52.325  13.005  1.00  0.00     0.024 C 
BRANCH  18  19
HETATM   19  C   UNL     1     -44.990 -51.276  13.557  1.00  0.00    -0.010 C 
HETATM   20  C   UNL     1     -44.681 -50.887  15.012  1.00  0.00     0.035 C 
HETATM   21  C   UNL     1     -45.124 -51.954  16.019  1.00  0.00     0.272 C 
HETATM   22  N   UNL     1     -46.527 -52.368  15.888  1.00  0.00     0.084 N 
HETATM   23  C   UNL     1     -47.456 -51.369  16.413  1.00  0.00     0.309 C 
HETATM   24  C   UNL     1     -46.848 -52.753  14.509  1.00  0.00     0.272 C 
HETATM   25  C   UNL     1     -46.471 -51.694  13.469  1.00  0.00     0.035 C 
ENDBRANCH  18  19
ENDBRANCH  17  18
ENDBRANCH   4  17
TORSDOF 5
ENDMDL
MODEL 3
REMARK VINA RESULT:      -6.3      2.157      2.798
REMARK  5 active torsions:
REMARK  status: ('A' for Active; 'I' for Inactive)
REMARK    1  A    between atoms: O_2  and  C_3 
REMARK    2  A    between atoms: C_6  and  N_7 
REMARK       I    between atoms: N_7  and  C_8 
REMARK       I    between atoms: C_8  and  N_10 
REMARK    3  A    between atoms: N_10  and  C_11 
REMARK    4  A    between atoms: C_11  and  C_12 
REMARK    5  A    between atoms: C_12  and  C_13 
ROOT
HETATM    1  N   UNL     1     -40.735 -51.221  11.330  1.00  0.00    -0.307 N 
HETATM    2  C   UNL     1     -40.563 -52.053  12.415  1.00  0.00     0.320 C 
HETATM    3  O   UNL     1     -40.158 -51.704  13.517  1.00  0.00    -0.247 OA
HETATM    4  N   UNL     1     -40.893 -53.379  12.155  1.00  0.00    -0.343 N 
HETATM    5  H   UNL     1     -40.671 -51.658  10.423  1.00  0.00     0.170 HD
HETATM    6  H   UNL     1     -41.672 -53.496  11.521  1.00  0.00     0.164 HD
ENDROOT
BRANCH   1   7
HETATM    7  C   UNL     1     -40.631 -49.796  11.398  1.00  0.00     0.058 A 
HETATM    8  C   UNL     1     -41.773 -48.985  11.416  1.00  0.00     0.036 A 
HETATM    9  C   UNL     1     -41.670 -47.596  11.463  1.00  0.00     0.058 A 
HETATM   10  C   UNL     1     -40.410 -47.040  11.460  1.00  0.00     0.141 A 
HETATM   11  N   UNL     1     -39.280 -47.771  11.440  1.00  0.00    -0.339 N 
HETATM   12  C   UNL     1     -39.393 -49.129  11.423  1.00  0.00     0.034 A 
ATOM     13  HN  UNL     1     -38.364 -47.322  11.438  1.00  0.00     0.168 HD
HETATM   14  C   UNL     1     -38.071 -49.835  11.434  1.00  0.00     0.070 C 
BRANCH  10  15
HETATM   15  O   UNL     1     -40.345 -45.662  11.460  1.00  0.00    -0.341 OA
HETATM   16  C   UNL     1     -39.844 -45.133  10.236  1.00  0.00     0.211 C 
ENDBRANCH  10  15
ENDBRANCH   1   7
BRANCH   4  17
HETATM   17  C   UNL     1     -40.864 -54.247  13.323  1.00  0.00     0.125 C 
BRANCH  17  18
HETATM   18  C   UNL     1     -42.211 -54.594  13.957  1.00  0.00     0.024 C 
BRANCH  18  19
HETATM   19  C   UNL     1     -43.317 -53.579  13.548  1.00  0.00    -0.010 C 
HETATM   20  C   UNL     1     -43.788 -52.726  14.737  1.00  0.00     0.035 C 
HETATM   21  C   UNL     1     -44.729 -53.487  15.678  1.00  0.00     0.272 C 
HETATM   22  N   UNL     1     -45.878 -54.114  15.012  1.00  0.00     0.084 N 
HETATM   23  C   UNL     1     -46.904 -53.142  14.638  1.00  0.00     0.309 C 
HETATM   24  C   UNL     1     -45.456 -54.941  13.877  1.00  0.00     0.272 C 
HETATM   25  C   UNL     1     -44.555 -54.207  12.879  1.00  0.00     0.035 C 
ENDBRANCH  18  19
ENDBRANCH  17  18
ENDBRANCH   4  17
TORSDOF 5
ENDMDL
MODEL 4
REMARK VINA RESULT:      -6.0      1.803      2.705
REMARK  5 active torsions:
REMARK  status: ('A' for Active; 'I' for Inactive)
REMARK    1  A    between atoms: O_2  and  C_3 
REMARK    2  A    between atoms: C_6  and  N_7 
REMARK       I    between atoms: N_7  and  C_8 
REMARK       I    between atoms: C_8  and  N_10 
REMARK    3  A    between atoms: N_10  and  C_11 
REMARK    4  A    between atoms: C_11  and  C_12 
REMARK    5  A    between atoms: C_12  and  C_13 
ROOT
HETATM    1  N   UNL     1     -41.114 -48.665  10.470  1.00  0.00    -0.307 N 
HETATM    2  C   UNL     1     -40.965 -49.556  11.511  1.00  0.00     0.320 C 
HETATM    3  O   UNL     1     -40.850 -49.251  12.693  1.00  0.00    -0.247 OA
HETATM    4  N   UNL     1     -40.946 -50.886  11.106  1.00  0.00    -0.343 N 
HETATM    5  H   UNL     1     -40.794 -48.982   9.568  1.00  0.00     0.170 HD
HETATM    6  H   UNL     1     -41.554 -51.089  10.323  1.00  0.00     0.164 HD
ENDROOT
BRANCH   1   7
HETATM    7  C   UNL     1     -41.336 -47.263  10.650  1.00  0.00     0.058 A 
HETATM    8  C   UNL     1     -40.263 -46.373  10.798  1.00  0.00     0.036 A 
HETATM    9  C   UNL     1     -40.480 -45.011  10.992  1.00  0.00     0.058 A 
HETATM   10  C   UNL     1     -41.782 -44.566  11.067  1.00  0.00     0.141 A 
HETATM   11  N   UNL     1     -42.848 -45.377  10.935  1.00  0.00    -0.339 N 
HETATM   12  C   UNL     1     -42.623 -46.704  10.716  1.00  0.00     0.034 A 
ATOM     13  HN  UNL     1     -43.798 -45.010  10.997  1.00  0.00     0.168 HD
HETATM   14  C   UNL     1     -43.883 -47.500  10.555  1.00  0.00     0.070 C 
BRANCH  10  15
HETATM   15  O   UNL     1     -41.960 -43.219  11.307  1.00  0.00    -0.341 OA
HETATM   16  C   UNL     1     -40.747 -42.555  11.647  1.00  0.00     0.211 C 
ENDBRANCH  10  15
ENDBRANCH   1   7
BRANCH   4  17
HETATM   17  C   UNL     1     -40.940 -51.848  12.197  1.00  0.00     0.125 C 
BRANCH  17  18
HETATM   18  C   UNL     1     -42.300 -52.367  12.665  1.00  0.00     0.024 C 
BRANCH  18  19
HETATM   19  C   UNL     1     -42.231 -53.865  13.083  1.00  0.00    -0.010 C 
HETATM   20  C   UNL     1     -43.496 -54.316  13.831  1.00  0.00     0.035 C 
HETATM   21  C   UNL     1     -43.528 -53.834  15.286  1.00  0.00     0.272 C 
HETATM   22  N   UNL     1     -42.328 -54.169  16.063  1.00  0.00     0.084 N 
HETATM   23  C   UNL     1     -42.284 -55.580  16.444  1.00  0.00     0.309 C 
HETATM   24  C   UNL     1     -41.105 -53.742  15.374  1.00  0.00     0.272 C 
HETATM   25  C   UNL     1     -41.002 -54.244  13.931  1.00  0.00     0.035 C 
ENDBRANCH  18  19
ENDBRANCH  17  18
ENDBRANCH   4  17
TORSDOF 5
ENDMDL
MODEL 5
REMARK VINA RESULT:      -5.9      2.311      7.836
REMARK  5 active torsions:
REMARK  status: ('A' for Active; 'I' for Inactive)
REMARK    1  A    between atoms: O_2  and  C_3 
REMARK    2  A    between atoms: C_6  and  N_7 
REMARK       I    between atoms: N_7  and  C_8 
REMARK       I    between atoms: C_8  and  N_10 
REMARK    3  A    between atoms: N_10  and  C_11 
REMARK    4  A    between atoms: C_11  and  C_12 
REMARK    5  A    between atoms: C_12  and  C_13 
ROOT
HETATM    1  N   UNL     1     -42.292 -52.509  11.785  1.00  0.00    -0.307 N 
HETATM    2  C   UNL     1     -41.705 -51.289  12.043  1.00  0.00     0.320 C 
HETATM    3  O   UNL     1     -42.011 -50.535  12.960  1.00  0.00    -0.247 OA
HETATM    4  N   UNL     1     -40.699 -50.955  11.143  1.00  0.00    -0.343 N 
HETATM    5  H   UNL     1     -42.256 -52.823  10.828  1.00  0.00     0.170 HD
HETATM    6  H   UNL     1     -40.152 -51.744  10.822  1.00  0.00     0.164 HD
ENDROOT
BRANCH   1   7
HETATM    7  C   UNL     1     -43.224 -53.143  12.666  1.00  0.00     0.058 A 
HETATM    8  C   UNL     1     -44.605 -52.969  12.508  1.00  0.00     0.036 A 
HETATM    9  C   UNL     1     -45.512 -53.572  13.378  1.00  0.00     0.058 A 
HETATM   10  C   UNL     1     -45.009 -54.321  14.419  1.00  0.00     0.141 A 
HETATM   11  N   UNL     1     -43.693 -54.518  14.619  1.00  0.00    -0.339 N 
HETATM   12  C   UNL     1     -42.817 -53.947  13.745  1.00  0.00     0.034 A 
ATOM     13  HN  UNL     1     -43.360 -55.079  15.403  1.00  0.00     0.168 HD
HETATM   14  C   UNL     1     -41.384 -54.261  14.051  1.00  0.00     0.070 C 
BRANCH  10  15
HETATM   15  O   UNL     1     -45.933 -54.865  15.288  1.00  0.00    -0.341 OA
HETATM   16  C   UNL     1     -46.132 -54.067  16.451  1.00  0.00     0.211 C 
ENDBRANCH  10  15
ENDBRANCH   1   7
BRANCH   4  17
HETATM   17  C   UNL     1     -39.964 -49.746  11.483  1.00  0.00     0.125 C 
BRANCH  17  18
HETATM   18  C   UNL     1     -40.488 -48.434  10.898  1.00  0.00     0.024 C 
BRANCH  18  19
HETATM   19  C   UNL     1     -40.129 -47.218  11.801  1.00  0.00    -0.010 C 
HETATM   20  C   UNL     1     -41.090 -47.080  12.993  1.00  0.00     0.035 C 
HETATM   21  C   UNL     1     -42.445 -46.482  12.597  1.00  0.00     0.272 C 
HETATM   22  N   UNL     1     -42.357 -45.214  11.861  1.00  0.00     0.084 N 
HETATM   23  C   UNL     1     -42.020 -44.087  12.729  1.00  0.00     0.309 C 
HETATM   24  C   UNL     1     -41.451 -45.320  10.712  1.00  0.00     0.272 C 
HETATM   25  C   UNL     1     -40.065 -45.864  11.068  1.00  0.00     0.035 C 
ENDBRANCH  18  19
ENDBRANCH  17  18
ENDBRANCH   4  17
TORSDOF 5
ENDMDL
MODEL 6
REMARK VINA RESULT:      -5.8      3.431      7.678
REMARK  5 active torsions:
REMARK  status: ('A' for Active; 'I' for Inactive)
REMARK    1  A    between atoms: O_2  and  C_3 
REMARK    2  A    between atoms: C_6  and  N_7 
REMARK       I    between atoms: N_7  and  C_8 
REMARK       I    between atoms: C_8  and  N_10 
REMARK    3  A    between atoms: N_10  and  C_11 
REMARK    4  A    between atoms: C_11  and  C_12 
REMARK    5  A    between atoms: C_12  and  C_13 
ROOT
HETATM    1  N   UNL     1     -42.028 -52.408  11.715  1.00  0.00    -0.307 N 
HETATM    2  C   UNL     1     -41.614 -51.112  11.937  1.00  0.00     0.320 C 
HETATM    3  O   UNL     1     -42.091 -50.350  12.771  1.00  0.00    -0.247 OA
HETATM    4  N   UNL     1     -40.573 -50.711  11.107  1.00  0.00    -0.343 N 
HETATM    5  H   UNL     1     -41.865 -52.770  10.788  1.00  0.00     0.170 HD
HETATM    6  H   UNL     1     -39.910 -51.445  10.889  1.00  0.00     0.164 HD
ENDROOT
BRANCH   1   7
HETATM    7  C   UNL     1     -42.958 -53.099  12.553  1.00  0.00     0.058 A 
HETATM    8  C   UNL     1     -44.341 -52.972  12.361  1.00  0.00     0.036 A 
HETATM    9  C   UNL     1     -45.246 -53.631  13.190  1.00  0.00     0.058 A 
HETATM   10  C   UNL     1     -44.744 -54.387  14.227  1.00  0.00     0.141 A 
HETATM   11  N   UNL     1     -43.427 -54.540  14.458  1.00  0.00    -0.339 N 
HETATM   12  C   UNL     1     -42.550 -53.915  13.623  1.00  0.00     0.034 A 
ATOM     13  HN  UNL     1     -43.094 -55.108  15.237  1.00  0.00     0.168 HD
HETATM   14  C   UNL     1     -41.115 -54.183  13.961  1.00  0.00     0.070 C 
BRANCH  10  15
HETATM   15  O   UNL     1     -45.670 -54.987  15.055  1.00  0.00    -0.341 OA
HETATM   16  C   UNL     1     -46.118 -54.125  16.097  1.00  0.00     0.211 C 
ENDBRANCH  10  15
ENDBRANCH   1   7
BRANCH   4  17
HETATM   17  C   UNL     1     -40.019 -49.403  11.425  1.00  0.00     0.125 C 
BRANCH  17  18
HETATM   18  C   UNL     1     -38.714 -49.382  12.221  1.00  0.00     0.024 C 
BRANCH  18  19
HETATM   19  C   UNL     1     -38.710 -48.246  13.286  1.00  0.00    -0.010 C 
HETATM   20  C   UNL     1     -37.400 -48.212  14.090  1.00  0.00     0.035 C 
HETATM   21  C   UNL     1     -37.327 -49.313  15.154  1.00  0.00     0.272 C 
HETATM   22  N   UNL     1     -38.482 -49.358  16.060  1.00  0.00     0.084 N 
HETATM   23  C   UNL     1     -38.457 -48.284  17.051  1.00  0.00     0.309 C 
HETATM   24  C   UNL     1     -39.747 -49.400  15.319  1.00  0.00     0.272 C 
HETATM   25  C   UNL     1     -39.889 -48.285  14.278  1.00  0.00     0.035 C 
ENDBRANCH  18  19
ENDBRANCH  17  18
ENDBRANCH   4  17
TORSDOF 5
ENDMDL
MODEL 7
REMARK VINA RESULT:      -5.7      2.394      8.755
REMARK  5 active torsions:
REMARK  status: ('A' for Active; 'I' for Inactive)
REMARK    1  A    between atoms: O_2  and  C_3 
REMARK    2  A    between atoms: C_6  and  N_7 
REMARK       I    between atoms: N_7  and  C_8 
REMARK       I    between atoms: C_8  and  N_10 
REMARK    3  A    between atoms: N_10  and  C_11 
REMARK    4  A    between atoms: C_11  and  C_12 
REMARK    5  A    between atoms: C_12  and  C_13 
ROOT
HETATM    1  N   UNL     1     -42.491 -51.724  12.073  1.00  0.00    -0.307 N 
HETATM    2  C   UNL     1     -42.482 -50.398  12.452  1.00  0.00     0.320 C 
HETATM    3  O   UNL     1     -42.765 -49.979  13.568  1.00  0.00    -0.247 OA
HETATM    4  N   UNL     1     -42.116 -49.531  11.429  1.00  0.00    -0.343 N 
HETATM    5  H   UNL     1     -42.644 -51.901  11.092  1.00  0.00     0.170 HD
HETATM    6  H   UNL     1     -41.416 -49.903  10.800  1.00  0.00     0.164 HD
ENDROOT
BRANCH   1   7
HETATM    7  C   UNL     1     -42.663 -52.810  12.988  1.00  0.00     0.058 A 
HETATM    8  C   UNL     1     -41.576 -53.344  13.692  1.00  0.00     0.036 A 
HETATM    9  C   UNL     1     -41.741 -54.414  14.568  1.00  0.00     0.058 A 
HETATM   10  C   UNL     1     -43.002 -54.955  14.700  1.00  0.00     0.141 A 
HETATM   11  N   UNL     1     -44.079 -54.483  14.046  1.00  0.00    -0.339 N 
HETATM   12  C   UNL     1     -43.911 -53.417  13.214  1.00  0.00     0.034 A 
ATOM     13  HN  UNL     1     -44.997 -54.911  14.170  1.00  0.00     0.168 HD
HETATM   14  C   UNL     1     -45.184 -52.962  12.567  1.00  0.00     0.070 C 
BRANCH  10  15
HETATM   15  O   UNL     1     -43.120 -56.043  15.540  1.00  0.00    -0.341 OA
HETATM   16  C   UNL     1     -42.133 -56.057  16.566  1.00  0.00     0.211 C 
ENDBRANCH  10  15
ENDBRANCH   1   7
BRANCH   4  17
HETATM   17  C   UNL     1     -41.953 -48.145  11.844  1.00  0.00     0.125 C 
BRANCH  17  18
HETATM   18  C   UNL     1     -40.684 -47.431  11.377  1.00  0.00     0.024 C 
BRANCH  18  19
HETATM   19  C   UNL     1     -41.015 -46.139  10.575  1.00  0.00    -0.010 C 
HETATM   20  C   UNL     1     -39.798 -45.208  10.450  1.00  0.00     0.035 C 
HETATM   21  C   UNL     1     -39.515 -44.426  11.739  1.00  0.00     0.272 C 
HETATM   22  N   UNL     1     -40.669 -43.690  12.268  1.00  0.00     0.084 N 
HETATM   23  C   UNL     1     -40.961 -42.480  11.500  1.00  0.00     0.309 C 
HETATM   24  C   UNL     1     -41.845 -44.557  12.404  1.00  0.00     0.272 C 
HETATM   25  C   UNL     1     -42.199 -45.321  11.125  1.00  0.00     0.035 C 
ENDBRANCH  18  19
ENDBRANCH  17  18
ENDBRANCH   4  17
TORSDOF 5
ENDMDL
MODEL 8
REMARK VINA RESULT:      -5.6      2.723      8.343
REMARK  5 active torsions:
REMARK  status: ('A' for Active; 'I' for Inactive)
REMARK    1  A    between atoms: O_2  and  C_3 
REMARK    2  A    between atoms: C_6  and  N_7 
REMARK       I    between atoms: N_7  and  C_8 
REMARK       I    between atoms: C_8  and  N_10 
REMARK    3  A    between atoms: N_10  and  C_11 
REMARK    4  A    between atoms: C_11  and  C_12 
REMARK    5  A    between atoms: C_12  and  C_13 
ROOT
HETATM    1  N   UNL     1     -40.783 -51.247  11.405  1.00  0.00    -0.307 N 
HETATM    2  C   UNL     1     -41.357 -49.997  11.501  1.00  0.00     0.320 C 
HETATM    3  O   UNL     1     -42.091 -49.624  12.409  1.00  0.00    -0.247 OA
HETATM    4  N   UNL     1     -41.034 -49.154  10.444  1.00  0.00    -0.343 N 
HETATM    5  H   UNL     1     -40.562 -51.560  10.472  1.00  0.00     0.170 HD
HETATM    6  H   UNL     1     -40.093 -49.275  10.090  1.00  0.00     0.164 HD
ENDROOT
BRANCH   1   7
HETATM    7  C   UNL     1     -40.826 -52.223  12.449  1.00  0.00     0.058 A 
HETATM    8  C   UNL     1     -41.880 -53.143  12.539  1.00  0.00     0.036 A 
HETATM    9  C   UNL     1     -41.930 -54.081  13.568  1.00  0.00     0.058 A 
HETATM   10  C   UNL     1     -40.929 -54.059  14.515  1.00  0.00     0.141 A 
HETATM   11  N   UNL     1     -39.897 -53.196  14.478  1.00  0.00    -0.339 N 
HETATM   12  C   UNL     1     -39.843 -52.302  13.450  1.00  0.00     0.034 A 
ATOM     13  HN  UNL     1     -39.175 -53.211  15.198  1.00  0.00     0.168 HD
HETATM   14  C   UNL     1     -38.635 -51.416  13.498  1.00  0.00     0.070 C 
BRANCH  10  15
HETATM   15  O   UNL     1     -41.036 -54.971  15.544  1.00  0.00    -0.341 OA
HETATM   16  C   UNL     1     -42.386 -55.322  15.832  1.00  0.00     0.211 C 
ENDBRANCH  10  15
ENDBRANCH   1   7
BRANCH   4  17
HETATM   17  C   UNL     1     -41.503 -47.785  10.600  1.00  0.00     0.125 C 
BRANCH  17  18
HETATM   18  C   UNL     1     -40.457 -46.737  10.983  1.00  0.00     0.024 C 
BRANCH  18  19
HETATM   19  C   UNL     1     -40.904 -45.304  10.573  1.00  0.00    -0.010 C 
HETATM   20  C   UNL     1     -39.916 -44.230  11.056  1.00  0.00     0.035 C 
HETATM   21  C   UNL     1     -40.054 -43.926  12.553  1.00  0.00     0.272 C 
HETATM   22  N   UNL     1     -41.419 -43.595  12.981  1.00  0.00     0.084 N 
HETATM   23  C   UNL     1     -41.817 -42.245  12.586  1.00  0.00     0.309 C 
HETATM   24  C   UNL     1     -42.383 -44.609  12.539  1.00  0.00     0.272 C 
HETATM   25  C   UNL     1     -42.319 -44.909  11.039  1.00  0.00     0.035 C 
ENDBRANCH  18  19
ENDBRANCH  17  18
ENDBRANCH   4  17
TORSDOF 5
ENDMDL
MODEL 9
REMARK VINA RESULT:      -5.5      2.214      3.036
REMARK  5 active torsions:
REMARK  status: ('A' for Active; 'I' for Inactive)
REMARK    1  A    between atoms: O_2  and  C_3 
REMARK    2  A    between atoms: C_6  and  N_7 
REMARK       I    between atoms: N_7  and  C_8 
REMARK       I    between atoms: C_8  and  N_10 
REMARK    3  A    between atoms: N_10  and  C_11 
REMARK    4  A    between atoms: C_11  and  C_12 
REMARK    5  A    between atoms: C_12  and  C_13 
ROOT
HETATM    1  N   UNL     1     -41.122 -46.886  10.382  1.00  0.00    -0.307 N 
HETATM    2  C   UNL     1     -40.521 -47.887  11.114  1.00  0.00     0.320 C 
HETATM    3  O   UNL     1     -39.846 -47.718  12.123  1.00  0.00    -0.247 OA
HETATM    4  N   UNL     1     -40.738 -49.160  10.598  1.00  0.00    -0.343 N 
HETATM    5  H   UNL     1     -41.282 -47.088   9.407  1.00  0.00     0.170 HD
HETATM    6  H   UNL     1     -41.652 -49.289  10.184  1.00  0.00     0.164 HD
ENDROOT
BRANCH   1   7
HETATM    7  C   UNL     1     -41.188 -45.522  10.806  1.00  0.00     0.058 A 
HETATM    8  C   UNL     1     -42.232 -45.066  11.622  1.00  0.00     0.036 A 
HETATM    9  C   UNL     1     -42.305 -43.732  12.020  1.00  0.00     0.058 A 
HETATM   10  C   UNL     1     -41.338 -42.865  11.561  1.00  0.00     0.141 A 
HETATM   11  N   UNL     1     -40.316 -43.250  10.773  1.00  0.00    -0.339 N 
HETATM   12  C   UNL     1     -40.238 -44.562  10.415  1.00  0.00     0.034 A 
ATOM     13  HN  UNL     1     -39.619 -42.577  10.454  1.00  0.00     0.168 HD
HETATM   14  C   UNL     1     -39.044 -44.876   9.565  1.00  0.00     0.070 C 
BRANCH  10  15
HETATM   15  O   UNL     1     -41.467 -41.544  11.935  1.00  0.00    -0.341 OA
HETATM   16  C   UNL     1     -40.297 -41.032  12.565  1.00  0.00     0.211 C 
ENDBRANCH  10  15
ENDBRANCH   1   7
BRANCH   4  17
HETATM   17  C   UNL     1     -40.241 -50.242  11.435  1.00  0.00     0.125 C 
BRANCH  17  18
HETATM   18  C   UNL     1     -41.258 -51.295  11.876  1.00  0.00     0.024 C 
BRANCH  18  19
HETATM   19  C   UNL     1     -41.063 -51.692  13.369  1.00  0.00    -0.010 C 
HETATM   20  C   UNL     1     -40.203 -52.958  13.523  1.00  0.00     0.035 C 
HETATM   21  C   UNL     1     -40.977 -54.243  13.204  1.00  0.00     0.272 C 
HETATM   22  N   UNL     1     -42.240 -54.389  13.939  1.00  0.00     0.084 N 
HETATM   23  C   UNL     1     -42.032 -54.763  15.337  1.00  0.00     0.309 C 
HETATM   24  C   UNL     1     -43.084 -53.197  13.802  1.00  0.00     0.272 C 
HETATM   25  C   UNL     1     -42.370 -51.891  14.161  1.00  0.00     0.035 C 
ENDBRANCH  18  19
ENDBRANCH  17  18
ENDBRANCH   4  17
TORSDOF 5
ENDMDL
