MODEL 1
REMARK VINA RESULT:      -6.3      0.000      0.000
REMARK  8 active torsions:
REMARK  status: ('A' for Active; 'I' for Inactive)
REMARK    1  A    between atoms: N_2  and  C_15 
REMARK    2  A    between atoms: C_4  and  N_8 
REMARK    3  A    between atoms: N_8  and  C_9 
REMARK    4  A    between atoms: C_14  and  C_15 
REMARK    5  A    between atoms: C_14  and  C_23 
REMARK    6  A    between atoms: C_20  and  O_25 
REMARK    7  A    between atoms: C_23  and  O_26 
REMARK    8  A    between atoms: O_25  and  C_27 
ROOT
HETATM    1  C   UNL     1     -40.887 -49.339  12.600  1.00  0.00     0.122 A 
HETATM    2  N   UNL     1     -40.597 -50.973  14.026  1.00  0.00    -0.326 N 
HETATM    3  C   UNL     1     -39.970 -50.290  13.020  1.00  0.00     0.140 A 
HETATM    4  C   UNL     1     -40.463 -48.434  11.594  1.00  0.00     0.135 A 
HETATM    5  N   UNL     1     -42.065 -49.472  13.319  1.00  0.00    -0.346 N 
ATOM      6  HN  UNL     1     -42.906 -48.900  13.238  1.00  0.00     0.167 HD
HETATM    7  C   UNL     1     -41.869 -50.489  14.125  1.00  0.00     0.185 A 
HETATM    8  N   UNL     1     -39.183 -48.607  11.128  1.00  0.00    -0.337 N 
ATOM      9  HN  UNL     1     -38.813 -47.979  10.414  1.00  0.00     0.168 HD
HETATM   10  N   UNL     1     -38.721 -50.489  12.571  1.00  0.00    -0.336 N 
ATOM     11  HN  UNL     1     -38.091 -51.215  12.912  1.00  0.00     0.168 HD
HETATM   12  C   UNL     1     -38.415 -49.601  11.612  1.00  0.00     0.183 A 
ENDROOT
BRANCH   4  13
HETATM   13  N   UNL     1     -41.215 -47.367  11.054  1.00  0.00    -0.365 N 
HETATM   14  C   UNL     1     -40.601 -46.045  11.074  1.00  0.00     0.151 C 
BRANCH  13  15
HETATM   15  C   UNL     1     -42.274 -47.658  10.112  1.00  0.00     0.090 C 
HETATM   16  C   UNL     1     -42.875 -46.481   9.311  1.00  0.00     0.057 C 
HETATM   17  C   UNL     1     -44.263 -47.117   9.552  1.00  0.00     0.125 C 
HETATM   18  C   UNL     1     -43.650 -47.796  10.799  1.00  0.00     0.057 C 
BRANCH  17  19
HETATM   19  O   UNL     1     -44.731 -47.992   8.500  1.00  0.00    -0.386 OA
BRANCH  19  20
HETATM   20  C   UNL     1     -46.141 -48.188   8.449  1.00  0.00     0.163 C 
HETATM   21  C   UNL     1     -46.818 -47.016   9.128  1.00  0.00     0.033 C 
ENDBRANCH  19  20
ENDBRANCH  17  19
ENDBRANCH  13  15
ENDBRANCH   4  13
BRANCH   2  22
HETATM   22  C   UNL     1     -40.002 -52.008  14.852  1.00  0.00     0.147 C 
BRANCH  22  23
HETATM   23  C   UNL     1     -40.158 -53.409  14.270  1.00  0.00     0.040 C 
HETATM   24  C   UNL     1     -40.745 -53.524  12.847  1.00  0.00     0.183 C 
HETATM   25  O   UNL     1     -41.753 -54.458  13.311  1.00  0.00    -0.389 OA
HETATM   26  C   UNL     1     -41.486 -54.073  14.684  1.00  0.00     0.183 C 
BRANCH  23  27
HETATM   27  C   UNL     1     -38.949 -54.320  14.459  1.00  0.00     0.179 C 
BRANCH  27  28
HETATM   28  O   UNL     1     -38.876 -55.235  13.371  1.00  0.00    -0.400 OA
HETATM   29  H   UNL     1     -39.778 -55.513  13.141  1.00  0.00     0.209 HD
ENDBRANCH  27  28
ENDBRANCH  23  27
ENDBRANCH  22  23
ENDBRANCH   2  22
TORSDOF 8
ENDMDL
MODEL 2
REMARK VINA RESULT:      -5.9      2.738      3.661
REMARK  8 active torsions:
REMARK  status: ('A' for Active; 'I' for Inactive)
REMARK    1  A    between atoms: N_2  and  C_15 
REMARK    2  A    between atoms: C_4  and  N_8 
REMARK    3  A    between atoms: N_8  and  C_9 
REMARK    4  A    between atoms: C_14  and  C_15 
REMARK    5  A    between atoms: C_14  and  C_23 
REMARK    6  A    between atoms: C_20  and  O_25 
REMARK    7  A    between atoms: C_23  and  O_26 
REMARK    8  A    between atoms: O_25  and  C_27 
ROOT
HETATM    1  C   UNL     1     -42.142 -50.679  13.205  1.00  0.00     0.122 A 
HETATM    2  N   UNL     1     -43.222 -52.045  14.529  1.00  0.00    -0.326 N 
HETATM    3  C   UNL     1     -42.470 -52.013  13.387  1.00  0.00     0.140 A 
HETATM    4  C   UNL     1     -41.294 -50.366  12.112  1.00  0.00     0.135 A 
HETATM    5  N   UNL     1     -42.720 -49.912  14.204  1.00  0.00    -0.346 N 
ATOM      6  HN  UNL     1     -42.638 -48.903  14.336  1.00  0.00     0.167 HD
HETATM    7  C   UNL     1     -43.397 -50.758  14.946  1.00  0.00     0.185 A 
HETATM    8  N   UNL     1     -40.897 -51.425  11.335  1.00  0.00    -0.337 N 
ATOM      9  HN  UNL     1     -40.275 -51.269  10.541  1.00  0.00     0.168 HD
HETATM   10  N   UNL     1     -42.108 -53.063  12.634  1.00  0.00    -0.336 N 
ATOM     11  HN  UNL     1     -42.389 -54.027  12.810  1.00  0.00     0.168 HD
HETATM   12  C   UNL     1     -41.325 -52.670  11.617  1.00  0.00     0.183 A 
ENDROOT
BRANCH   4  13
HETATM   13  N   UNL     1     -40.804 -49.085  11.770  1.00  0.00    -0.365 N 
HETATM   14  C   UNL     1     -39.402 -48.813  12.061  1.00  0.00     0.151 C 
BRANCH  13  15
HETATM   15  C   UNL     1     -41.497 -48.311  10.764  1.00  0.00     0.090 C 
HETATM   16  C   UNL     1     -41.200 -46.797  10.682  1.00  0.00     0.057 C 
HETATM   17  C   UNL     1     -42.717 -46.582  10.474  1.00  0.00     0.125 C 
HETATM   18  C   UNL     1     -42.930 -47.932  11.197  1.00  0.00     0.057 C 
BRANCH  17  19
HETATM   19  O   UNL     1     -43.145 -46.510   9.094  1.00  0.00    -0.386 OA
BRANCH  19  20
HETATM   20  C   UNL     1     -44.320 -45.739   8.858  1.00  0.00     0.163 C 
HETATM   21  C   UNL     1     -45.526 -46.646   8.969  1.00  0.00     0.033 C 
ENDBRANCH  19  20
ENDBRANCH  17  19
ENDBRANCH  13  15
ENDBRANCH   4  13
BRANCH   2  22
HETATM   22  C   UNL     1     -43.720 -53.239  15.187  1.00  0.00     0.147 C 
BRANCH  22  23
HETATM   23  C   UNL     1     -45.064 -53.712  14.643  1.00  0.00     0.040 C 
HETATM   24  C   UNL     1     -46.004 -52.642  14.048  1.00  0.00     0.183 C 
HETATM   25  O   UNL     1     -47.087 -53.080  14.907  1.00  0.00    -0.389 OA
HETATM   26  C   UNL     1     -46.144 -53.802  15.739  1.00  0.00     0.183 C 
BRANCH  23  27
HETATM   27  C   UNL     1     -44.998 -54.958  13.765  1.00  0.00     0.179 C 
BRANCH  27  28
HETATM   28  O   UNL     1     -46.198 -55.708  13.923  1.00  0.00    -0.400 OA
HETATM   29  H   UNL     1     -46.914 -55.097  14.161  1.00  0.00     0.209 HD
ENDBRANCH  27  28
ENDBRANCH  23  27
ENDBRANCH  22  23
ENDBRANCH   2  22
TORSDOF 8
ENDMDL
MODEL 3
REMARK VINA RESULT:      -5.9      2.551      3.856
REMARK  8 active torsions:
REMARK  status: ('A' for Active; 'I' for Inactive)
REMARK    1  A    between atoms: N_2  and  C_15 
REMARK    2  A    between atoms: C_4  and  N_8 
REMARK    3  A    between atoms: N_8  and  C_9 
REMARK    4  A    between atoms: C_14  and  C_15 
REMARK    5  A    between atoms: C_14  and  C_23 
REMARK    6  A    between atoms: C_20  and  O_25 
REMARK    7  A    between atoms: C_23  and  O_26 
REMARK    8  A    between atoms: O_25  and  C_27 
ROOT
HETATM    1  C   UNL     1     -42.100 -49.280  11.983  1.00  0.00     0.122 A 
HETATM    2  N   UNL     1     -42.529 -50.973  13.300  1.00  0.00    -0.326 N 
HETATM    3  C   UNL     1     -41.552 -50.440  12.507  1.00  0.00     0.140 A 
HETATM    4  C   UNL     1     -41.261 -48.481  11.165  1.00  0.00     0.135 A 
HETATM    5  N   UNL     1     -43.407 -49.136  12.425  1.00  0.00    -0.346 N 
ATOM      6  HN  UNL     1     -44.050 -48.372  12.216  1.00  0.00     0.167 HD
HETATM    7  C   UNL     1     -43.641 -50.192  13.169  1.00  0.00     0.185 A 
HETATM    8  N   UNL     1     -39.988 -48.953  10.966  1.00  0.00    -0.337 N 
ATOM      9  HN  UNL     1     -39.330 -48.417  10.398  1.00  0.00     0.168 HD
HETATM   10  N   UNL     1     -40.317 -50.930  12.315  1.00  0.00    -0.336 N 
ATOM     11  HN  UNL     1     -39.968 -51.798  12.720  1.00  0.00     0.168 HD
HETATM   12  C   UNL     1     -39.604 -50.119  11.517  1.00  0.00     0.183 A 
ENDROOT
BRANCH   4  13
HETATM   13  N   UNL     1     -41.601 -47.246  10.567  1.00  0.00    -0.365 N 
HETATM   14  C   UNL     1     -42.687 -47.256   9.595  1.00  0.00     0.151 C 
BRANCH  13  15
HETATM   15  C   UNL     1     -41.245 -46.016  11.241  1.00  0.00     0.090 C 
HETATM   16  C   UNL     1     -42.127 -44.772  10.991  1.00  0.00     0.057 C 
HETATM   17  C   UNL     1     -40.821 -43.949  10.917  1.00  0.00     0.125 C 
HETATM   18  C   UNL     1     -40.105 -45.262  10.523  1.00  0.00     0.057 C 
BRANCH  17  19
HETATM   19  O   UNL     1     -40.409 -43.332  12.159  1.00  0.00    -0.386 OA
BRANCH  19  20
HETATM   20  C   UNL     1     -40.315 -41.911  12.135  1.00  0.00     0.163 C 
HETATM   21  C   UNL     1     -40.130 -41.414  13.553  1.00  0.00     0.033 C 
ENDBRANCH  19  20
ENDBRANCH  17  19
ENDBRANCH  13  15
ENDBRANCH   4  13
BRANCH   2  22
HETATM   22  C   UNL     1     -42.395 -52.146  14.145  1.00  0.00     0.147 C 
BRANCH  22  23
HETATM   23  C   UNL     1     -42.667 -53.454  13.410  1.00  0.00     0.040 C 
HETATM   24  C   UNL     1     -43.599 -53.397  12.181  1.00  0.00     0.183 C 
HETATM   25  O   UNL     1     -44.432 -54.448  12.733  1.00  0.00    -0.389 OA
HETATM   26  C   UNL     1     -43.827 -54.251  14.037  1.00  0.00     0.183 C 
BRANCH  23  27
HETATM   27  C   UNL     1     -41.430 -54.307  13.143  1.00  0.00     0.179 C 
BRANCH  27  28
HETATM   28  O   UNL     1     -40.789 -53.846  11.959  1.00  0.00    -0.400 OA
HETATM   29  H   UNL     1     -41.379 -53.217  11.514  1.00  0.00     0.209 HD
ENDBRANCH  27  28
ENDBRANCH  23  27
ENDBRANCH  22  23
ENDBRANCH   2  22
TORSDOF 8
ENDMDL
MODEL 4
REMARK VINA RESULT:      -5.8      1.994      2.870
REMARK  8 active torsions:
REMARK  status: ('A' for Active; 'I' for Inactive)
REMARK    1  A    between atoms: N_2  and  C_15 
REMARK    2  A    between atoms: C_4  and  N_8 
REMARK    3  A    between atoms: N_8  and  C_9 
REMARK    4  A    between atoms: C_14  and  C_15 
REMARK    5  A    between atoms: C_14  and  C_23 
REMARK    6  A    between atoms: C_20  and  O_25 
REMARK    7  A    between atoms: C_23  and  O_26 
REMARK    8  A    between atoms: O_25  and  C_27 
ROOT
HETATM    1  C   UNL     1     -41.169 -50.491  12.564  1.00  0.00     0.122 A 
HETATM    2  N   UNL     1     -41.392 -52.569  13.212  1.00  0.00    -0.326 N 
HETATM    3  C   UNL     1     -41.358 -51.286  13.684  1.00  0.00     0.140 A 
HETATM    4  C   UNL     1     -41.165 -49.087  12.762  1.00  0.00     0.135 A 
HETATM    5  N   UNL     1     -41.054 -51.289  11.436  1.00  0.00    -0.346 N 
ATOM      6  HN  UNL     1     -40.926 -50.981  10.472  1.00  0.00     0.167 HD
HETATM    7  C   UNL     1     -41.143 -52.524  11.872  1.00  0.00     0.185 A 
HETATM    8  N   UNL     1     -41.335 -48.660  14.056  1.00  0.00    -0.337 N 
ATOM      9  HN  UNL     1     -41.355 -47.661  14.263  1.00  0.00     0.168 HD
HETATM   10  N   UNL     1     -41.510 -50.895  14.959  1.00  0.00    -0.336 N 
ATOM     11  HN  UNL     1     -41.636 -51.527  15.749  1.00  0.00     0.168 HD
HETATM   12  C   UNL     1     -41.475 -49.556  15.051  1.00  0.00     0.183 A 
ENDROOT
BRANCH   4  13
HETATM   13  N   UNL     1     -41.032 -48.099  11.761  1.00  0.00    -0.365 N 
HETATM   14  C   UNL     1     -39.691 -47.588  11.506  1.00  0.00     0.151 C 
BRANCH  13  15
HETATM   15  C   UNL     1     -42.054 -47.985  10.743  1.00  0.00     0.090 C 
HETATM   16  C   UNL     1     -42.307 -46.594  10.121  1.00  0.00     0.057 C 
HETATM   17  C   UNL     1     -43.818 -46.910  10.201  1.00  0.00     0.125 C 
HETATM   18  C   UNL     1     -43.474 -47.893  11.344  1.00  0.00     0.057 C 
BRANCH  17  19
HETATM   19  O   UNL     1     -44.392 -47.482   9.003  1.00  0.00    -0.386 OA
BRANCH  19  20
HETATM   20  C   UNL     1     -45.754 -47.146   8.756  1.00  0.00     0.163 C 
HETATM   21  C   UNL     1     -46.600 -48.389   8.933  1.00  0.00     0.033 C 
ENDBRANCH  19  20
ENDBRANCH  17  19
ENDBRANCH  13  15
ENDBRANCH   4  13
BRANCH   2  22
HETATM   22  C   UNL     1     -41.668 -53.758  13.998  1.00  0.00     0.147 C 
BRANCH  22  23
HETATM   23  C   UNL     1     -43.157 -54.056  14.140  1.00  0.00     0.040 C 
HETATM   24  C   UNL     1     -43.900 -53.407  15.327  1.00  0.00     0.183 C 
HETATM   25  O   UNL     1     -44.404 -54.699  15.750  1.00  0.00    -0.389 OA
HETATM   26  C   UNL     1     -43.424 -55.363  14.912  1.00  0.00     0.183 C 
BRANCH  23  27
HETATM   27  C   UNL     1     -43.957 -53.951  12.846  1.00  0.00     0.179 C 
BRANCH  27  28
HETATM   28  O   UNL     1     -45.161 -54.700  12.976  1.00  0.00    -0.400 OA
HETATM   29  H   UNL     1     -45.081 -55.507  12.442  1.00  0.00     0.209 HD
ENDBRANCH  27  28
ENDBRANCH  23  27
ENDBRANCH  22  23
ENDBRANCH   2  22
TORSDOF 8
ENDMDL
MODEL 5
REMARK VINA RESULT:      -5.8      4.032      6.367
REMARK  8 active torsions:
REMARK  status: ('A' for Active; 'I' for Inactive)
REMARK    1  A    between atoms: N_2  and  C_15 
REMARK    2  A    between atoms: C_4  and  N_8 
REMARK    3  A    between atoms: N_8  and  C_9 
REMARK    4  A    between atoms: C_14  and  C_15 
REMARK    5  A    between atoms: C_14  and  C_23 
REMARK    6  A    between atoms: C_20  and  O_25 
REMARK    7  A    between atoms: C_23  and  O_26 
REMARK    8  A    between atoms: O_25  and  C_27 
ROOT
HETATM    1  C   UNL     1     -42.952 -51.546  12.740  1.00  0.00     0.122 A 
HETATM    2  N   UNL     1     -41.524 -50.098  11.935  1.00  0.00    -0.326 N 
HETATM    3  C   UNL     1     -41.660 -51.420  12.256  1.00  0.00     0.140 A 
HETATM    4  C   UNL     1     -43.387 -52.850  13.088  1.00  0.00     0.135 A 
HETATM    5  N   UNL     1     -43.576 -50.307  12.745  1.00  0.00    -0.346 N 
ATOM      6  HN  UNL     1     -44.532 -50.097  13.031  1.00  0.00     0.167 HD
HETATM    7  C   UNL     1     -42.674 -49.462  12.303  1.00  0.00     0.185 A 
HETATM    8  N   UNL     1     -42.469 -53.856  12.922  1.00  0.00    -0.337 N 
ATOM      9  HN  UNL     1     -42.724 -54.819  13.141  1.00  0.00     0.168 HD
HETATM   10  N   UNL     1     -40.739 -52.383  12.099  1.00  0.00    -0.336 N 
ATOM     11  HN  UNL     1     -39.794 -52.231  11.746  1.00  0.00     0.168 HD
HETATM   12  C   UNL     1     -41.232 -53.576  12.470  1.00  0.00     0.183 A 
ENDROOT
BRANCH   4  13
HETATM   13  N   UNL     1     -44.671 -53.209  13.558  1.00  0.00    -0.365 N 
HETATM   14  C   UNL     1     -45.114 -54.574  13.299  1.00  0.00     0.151 C 
BRANCH  13  15
HETATM   15  C   UNL     1     -45.266 -52.448  14.634  1.00  0.00     0.090 C 
HETATM   16  C   UNL     1     -46.184 -53.194  15.629  1.00  0.00     0.057 C 
HETATM   17  C   UNL     1     -47.127 -51.970  15.568  1.00  0.00     0.125 C 
HETATM   18  C   UNL     1     -46.518 -51.666  14.180  1.00  0.00     0.057 C 
BRANCH  17  19
HETATM   19  O   UNL     1     -46.917 -50.979  16.600  1.00  0.00    -0.386 OA
BRANCH  19  20
HETATM   20  C   UNL     1     -47.991 -50.818  17.522  1.00  0.00     0.163 C 
HETATM   21  C   UNL     1     -47.720 -49.595  18.373  1.00  0.00     0.033 C 
ENDBRANCH  19  20
ENDBRANCH  17  19
ENDBRANCH  13  15
ENDBRANCH   4  13
BRANCH   2  22
HETATM   22  C   UNL     1     -40.371 -49.491  11.295  1.00  0.00     0.147 C 
BRANCH  22  23
HETATM   23  C   UNL     1     -39.264 -49.116  12.274  1.00  0.00     0.040 C 
HETATM   24  C   UNL     1     -39.565 -49.277  13.780  1.00  0.00     0.183 C 
HETATM   25  O   UNL     1     -39.171 -47.904  14.030  1.00  0.00    -0.389 OA
HETATM   26  C   UNL     1     -39.262 -47.613  12.612  1.00  0.00     0.183 C 
BRANCH  23  27
HETATM   27  C   UNL     1     -37.881 -49.651  11.914  1.00  0.00     0.179 C 
BRANCH  27  28
HETATM   28  O   UNL     1     -37.984 -51.031  11.580  1.00  0.00    -0.400 OA
HETATM   29  H   UNL     1     -37.125 -51.452  11.743  1.00  0.00     0.209 HD
ENDBRANCH  27  28
ENDBRANCH  23  27
ENDBRANCH  22  23
ENDBRANCH   2  22
TORSDOF 8
ENDMDL
MODEL 6
REMARK VINA RESULT:      -5.7      3.271      5.041
REMARK  8 active torsions:
REMARK  status: ('A' for Active; 'I' for Inactive)
REMARK    1  A    between atoms: N_2  and  C_15 
REMARK    2  A    between atoms: C_4  and  N_8 
REMARK    3  A    between atoms: N_8  and  C_9 
REMARK    4  A    between atoms: C_14  and  C_15 
REMARK    5  A    between atoms: C_14  and  C_23 
REMARK    6  A    between atoms: C_20  and  O_25 
REMARK    7  A    between atoms: C_23  and  O_26 
REMARK    8  A    between atoms: O_25  and  C_27 
ROOT
HETATM    1  C   UNL     1     -40.832 -47.373  12.301  1.00  0.00     0.122 A 
HETATM    2  N   UNL     1     -41.336 -49.272  13.264  1.00  0.00    -0.326 N 
HETATM    3  C   UNL     1     -41.555 -48.543  12.128  1.00  0.00     0.140 A 
HETATM    4  C   UNL     1     -40.828 -46.452  11.224  1.00  0.00     0.135 A 
HETATM    5  N   UNL     1     -40.216 -47.381  13.543  1.00  0.00    -0.346 N 
ATOM      6  HN  UNL     1     -39.608 -46.662  13.936  1.00  0.00     0.167 HD
HETATM    7  C   UNL     1     -40.581 -48.509  14.107  1.00  0.00     0.185 A 
HETATM    8  N   UNL     1     -41.558 -46.812  10.119  1.00  0.00    -0.337 N 
ATOM      9  HN  UNL     1     -41.584 -46.199   9.304  1.00  0.00     0.168 HD
HETATM   10  N   UNL     1     -42.287 -48.912  11.066  1.00  0.00    -0.336 N 
ATOM     11  HN  UNL     1     -42.810 -49.785  10.997  1.00  0.00     0.168 HD
HETATM   12  C   UNL     1     -42.239 -47.973  10.107  1.00  0.00     0.183 A 
ENDROOT
BRANCH   4  13
HETATM   13  N   UNL     1     -40.127 -45.225  11.171  1.00  0.00    -0.365 N 
HETATM   14  C   UNL     1     -39.449 -44.902   9.922  1.00  0.00     0.151 C 
BRANCH  13  15
HETATM   15  C   UNL     1     -40.484 -44.170  12.094  1.00  0.00     0.090 C 
HETATM   16  C   UNL     1     -40.610 -42.734  11.540  1.00  0.00     0.057 C 
HETATM   17  C   UNL     1     -39.884 -42.252  12.817  1.00  0.00     0.125 C 
HETATM   18  C   UNL     1     -39.274 -43.670  12.912  1.00  0.00     0.057 C 
BRANCH  17  19
HETATM   19  O   UNL     1     -40.750 -41.843  13.901  1.00  0.00    -0.386 OA
BRANCH  19  20
HETATM   20  C   UNL     1     -40.550 -40.515  14.376  1.00  0.00     0.163 C 
HETATM   21  C   UNL     1     -39.308 -39.948  13.722  1.00  0.00     0.033 C 
ENDBRANCH  19  20
ENDBRANCH  17  19
ENDBRANCH  13  15
ENDBRANCH   4  13
BRANCH   2  22
HETATM   22  C   UNL     1     -41.805 -50.623  13.512  1.00  0.00     0.147 C 
BRANCH  22  23
HETATM   23  C   UNL     1     -40.801 -51.696  13.104  1.00  0.00     0.040 C 
HETATM   24  C   UNL     1     -39.726 -52.090  14.139  1.00  0.00     0.183 C 
HETATM   25  O   UNL     1     -38.672 -51.852  13.170  1.00  0.00    -0.389 OA
HETATM   26  C   UNL     1     -39.601 -51.116  12.333  1.00  0.00     0.183 C 
BRANCH  23  27
HETATM   27  C   UNL     1     -41.412 -52.920  12.429  1.00  0.00     0.179 C 
BRANCH  27  28
HETATM   28  O   UNL     1     -40.597 -53.303  11.326  1.00  0.00    -0.400 OA
HETATM   29  H   UNL     1     -39.954 -52.595  11.157  1.00  0.00     0.209 HD
ENDBRANCH  27  28
ENDBRANCH  23  27
ENDBRANCH  22  23
ENDBRANCH   2  22
TORSDOF 8
ENDMDL
MODEL 7
REMARK VINA RESULT:      -5.7      2.993      6.756
REMARK  8 active torsions:
REMARK  status: ('A' for Active; 'I' for Inactive)
REMARK    1  A    between atoms: N_2  and  C_15 
REMARK    2  A    between atoms: C_4  and  N_8 
REMARK    3  A    between atoms: N_8  and  C_9 
REMARK    4  A    between atoms: C_14  and  C_15 
REMARK    5  A    between atoms: C_14  and  C_23 
REMARK    6  A    between atoms: C_20  and  O_25 
REMARK    7  A    between atoms: C_23  and  O_26 
REMARK    8  A    between atoms: O_25  and  C_27 
ROOT
HETATM    1  C   UNL     1     -41.542 -49.689  11.660  1.00  0.00     0.122 A 
HETATM    2  N   UNL     1     -41.442 -47.596  11.032  1.00  0.00    -0.326 N 
HETATM    3  C   UNL     1     -40.656 -48.663  11.368  1.00  0.00     0.140 A 
HETATM    4  C   UNL     1     -40.983 -50.953  11.977  1.00  0.00     0.135 A 
HETATM    5  N   UNL     1     -42.845 -49.233  11.539  1.00  0.00    -0.346 N 
ATOM      6  HN  UNL     1     -43.703 -49.769  11.675  1.00  0.00     0.167 HD
HETATM    7  C   UNL     1     -42.743 -47.966  11.210  1.00  0.00     0.185 A 
HETATM    8  N   UNL     1     -39.612 -51.024  11.975  1.00  0.00    -0.337 N 
ATOM      9  HN  UNL     1     -39.149 -51.909  12.182  1.00  0.00     0.168 HD
HETATM   10  N   UNL     1     -39.315 -48.703  11.374  1.00  0.00    -0.336 N 
ATOM     11  HN  UNL     1     -38.710 -47.910  11.159  1.00  0.00     0.168 HD
HETATM   12  C   UNL     1     -38.878 -49.930  11.702  1.00  0.00     0.183 A 
ENDROOT
BRANCH   4  13
HETATM   13  N   UNL     1     -41.698 -52.138  12.263  1.00  0.00    -0.365 N 
HETATM   14  C   UNL     1     -40.913 -53.334  12.544  1.00  0.00     0.151 C 
BRANCH  13  15
HETATM   15  C   UNL     1     -43.063 -52.042  12.733  1.00  0.00     0.090 C 
HETATM   16  C   UNL     1     -43.337 -52.323  14.227  1.00  0.00     0.057 C 
HETATM   17  C   UNL     1     -44.593 -53.105  13.777  1.00  0.00     0.125 C 
HETATM   18  C   UNL     1     -43.884 -53.312  12.419  1.00  0.00     0.057 C 
BRANCH  17  19
HETATM   19  O   UNL     1     -45.820 -52.340  13.759  1.00  0.00    -0.386 OA
BRANCH  19  20
HETATM   20  C   UNL     1     -46.788 -52.713  14.737  1.00  0.00     0.163 C 
HETATM   21  C   UNL     1     -47.088 -51.509  15.605  1.00  0.00     0.033 C 
ENDBRANCH  19  20
ENDBRANCH  17  19
ENDBRANCH  13  15
ENDBRANCH   4  13
BRANCH   2  22
HETATM   22  C   UNL     1     -40.970 -46.309  10.551  1.00  0.00     0.147 C 
BRANCH  22  23
HETATM   23  C   UNL     1     -41.053 -45.205  11.600  1.00  0.00     0.040 C 
HETATM   24  C   UNL     1     -39.870 -44.217  11.684  1.00  0.00     0.183 C 
HETATM   25  O   UNL     1     -39.727 -44.472  13.105  1.00  0.00    -0.389 OA
HETATM   26  C   UNL     1     -40.544 -45.664  12.980  1.00  0.00     0.183 C 
BRANCH  23  27
HETATM   27  C   UNL     1     -42.397 -44.485  11.666  1.00  0.00     0.179 C 
BRANCH  27  28
HETATM   28  O   UNL     1     -42.996 -44.488  10.375  1.00  0.00    -0.400 OA
HETATM   29  H   UNL     1     -43.496 -43.663  10.265  1.00  0.00     0.209 HD
ENDBRANCH  27  28
ENDBRANCH  23  27
ENDBRANCH  22  23
ENDBRANCH   2  22
TORSDOF 8
ENDMDL
MODEL 8
REMARK VINA RESULT:      -5.6      2.903      7.496
REMARK  8 active torsions:
REMARK  status: ('A' for Active; 'I' for Inactive)
REMARK    1  A    between atoms: N_2  and  C_15 
REMARK    2  A    between atoms: C_4  and  N_8 
REMARK    3  A    between atoms: N_8  and  C_9 
REMARK    4  A    between atoms: C_14  and  C_15 
REMARK    5  A    between atoms: C_14  and  C_23 
REMARK    6  A    between atoms: C_20  and  O_25 
REMARK    7  A    between atoms: C_23  and  O_26 
REMARK    8  A    between atoms: O_25  and  C_27 
ROOT
HETATM    1  C   UNL     1     -41.024 -47.548  12.175  1.00  0.00     0.122 A 
HETATM    2  N   UNL     1     -41.852 -45.596  12.715  1.00  0.00    -0.326 N 
HETATM    3  C   UNL     1     -41.863 -46.540  11.726  1.00  0.00     0.140 A 
HETATM    4  C   UNL     1     -40.905 -48.701  11.359  1.00  0.00     0.135 A 
HETATM    5  N   UNL     1     -40.485 -47.198  13.404  1.00  0.00    -0.346 N 
ATOM      6  HN  UNL     1     -39.850 -47.750  13.980  1.00  0.00     0.167 HD
HETATM    7  C   UNL     1     -40.966 -46.005  13.668  1.00  0.00     0.185 A 
HETATM    8  N   UNL     1     -41.629 -48.691  10.192  1.00  0.00    -0.337 N 
ATOM      9  HN  UNL     1     -41.597 -49.497   9.568  1.00  0.00     0.168 HD
HETATM   10  N   UNL     1     -42.568 -46.500  10.584  1.00  0.00    -0.336 N 
ATOM     11  HN  UNL     1     -43.164 -45.724  10.298  1.00  0.00     0.168 HD
HETATM   12  C   UNL     1     -42.380 -47.622   9.871  1.00  0.00     0.183 A 
ENDROOT
BRANCH   4  13
HETATM   13  N   UNL     1     -40.143 -49.857  11.645  1.00  0.00    -0.365 N 
HETATM   14  C   UNL     1     -38.694 -49.739  11.540  1.00  0.00     0.151 C 
BRANCH  13  15
HETATM   15  C   UNL     1     -40.727 -50.902  12.458  1.00  0.00     0.090 C 
HETATM   16  C   UNL     1     -41.040 -52.255  11.783  1.00  0.00     0.057 C 
HETATM   17  C   UNL     1     -42.367 -52.264  12.576  1.00  0.00     0.125 C 
HETATM   18  C   UNL     1     -42.250 -50.723  12.641  1.00  0.00     0.057 C 
BRANCH  17  19
HETATM   19  O   UNL     1     -42.327 -52.972  13.837  1.00  0.00    -0.386 OA
BRANCH  19  20
HETATM   20  C   UNL     1     -43.354 -53.940  14.028  1.00  0.00     0.163 C 
HETATM   21  C   UNL     1     -44.199 -54.005  12.774  1.00  0.00     0.033 C 
ENDBRANCH  19  20
ENDBRANCH  17  19
ENDBRANCH  13  15
ENDBRANCH   4  13
BRANCH   2  22
HETATM   22  C   UNL     1     -42.660 -44.390  12.749  1.00  0.00     0.147 C 
BRANCH  22  23
HETATM   23  C   UNL     1     -42.082 -43.252  11.915  1.00  0.00     0.040 C 
HETATM   24  C   UNL     1     -40.683 -43.465  11.297  1.00  0.00     0.183 C 
HETATM   25  O   UNL     1     -40.210 -42.225  11.882  1.00  0.00    -0.389 OA
HETATM   26  C   UNL     1     -41.353 -42.203  12.775  1.00  0.00     0.183 C 
BRANCH  23  27
HETATM   27  C   UNL     1     -43.054 -42.635  10.913  1.00  0.00     0.179 C 
BRANCH  27  28
HETATM   28  O   UNL     1     -43.596 -43.663  10.090  1.00  0.00    -0.400 OA
HETATM   29  H   UNL     1     -43.380 -44.522  10.488  1.00  0.00     0.209 HD
ENDBRANCH  27  28
ENDBRANCH  23  27
ENDBRANCH  22  23
ENDBRANCH   2  22
TORSDOF 8
ENDMDL
MODEL 9
REMARK VINA RESULT:      -5.5      3.725      6.656
REMARK  8 active torsions:
REMARK  status: ('A' for Active; 'I' for Inactive)
REMARK    1  A    between atoms: N_2  and  C_15 
REMARK    2  A    between atoms: C_4  and  N_8 
REMARK    3  A    between atoms: N_8  and  C_9 
REMARK    4  A    between atoms: C_14  and  C_15 
REMARK    5  A    between atoms: C_14  and  C_23 
REMARK    6  A    between atoms: C_20  and  O_25 
REMARK    7  A    between atoms: C_23  and  O_26 
REMARK    8  A    between atoms: O_25  and  C_27 
ROOT
HETATM    1  C   UNL     1     -40.739 -52.113  13.245  1.00  0.00     0.122 A 
HETATM    2  N   UNL     1     -42.515 -53.343  12.900  1.00  0.00    -0.326 N 
HETATM    3  C   UNL     1     -42.022 -52.080  12.720  1.00  0.00     0.140 A 
HETATM    4  C   UNL     1     -39.963 -50.933  13.126  1.00  0.00     0.135 A 
HETATM    5  N   UNL     1     -40.478 -53.370  13.769  1.00  0.00    -0.346 N 
ATOM      6  HN  UNL     1     -39.612 -53.691  14.204  1.00  0.00     0.167 HD
HETATM    7  C   UNL     1     -41.580 -54.060  13.588  1.00  0.00     0.185 A 
HETATM    8  N   UNL     1     -40.573 -49.869  12.510  1.00  0.00    -0.337 N 
ATOM      9  HN  UNL     1     -40.063 -48.995  12.380  1.00  0.00     0.168 HD
HETATM   10  N   UNL     1     -42.646 -51.050  12.129  1.00  0.00    -0.336 N 
ATOM     11  HN  UNL     1     -43.600 -51.080  11.768  1.00  0.00     0.168 HD
HETATM   12  C   UNL     1     -41.843 -49.976  12.077  1.00  0.00     0.183 A 
ENDROOT
BRANCH   4  13
HETATM   13  N   UNL     1     -38.625 -50.761  13.550  1.00  0.00    -0.365 N 
HETATM   14  C   UNL     1     -37.589 -50.844  12.528  1.00  0.00     0.151 C 
BRANCH  13  15
HETATM   15  C   UNL     1     -38.364 -50.064  14.790  1.00  0.00     0.090 C 
HETATM   16  C   UNL     1     -38.202 -48.528  14.738  1.00  0.00     0.057 C 
HETATM   17  C   UNL     1     -37.028 -48.688  15.732  1.00  0.00     0.125 C 
HETATM   18  C   UNL     1     -36.877 -50.133  15.202  1.00  0.00     0.057 C 
BRANCH  17  19
HETATM   19  O   UNL     1     -37.379 -48.542  17.127  1.00  0.00    -0.386 OA
BRANCH  19  20
HETATM   20  C   UNL     1     -36.709 -47.493  17.820  1.00  0.00     0.163 C 
HETATM   21  C   UNL     1     -37.657 -46.321  17.960  1.00  0.00     0.033 C 
ENDBRANCH  19  20
ENDBRANCH  17  19
ENDBRANCH  13  15
ENDBRANCH   4  13
BRANCH   2  22
HETATM   22  C   UNL     1     -43.796 -53.832  12.422  1.00  0.00     0.147 C 
BRANCH  22  23
HETATM   23  C   UNL     1     -44.918 -53.686  13.444  1.00  0.00     0.040 C 
HETATM   24  C   UNL     1     -44.517 -53.622  14.934  1.00  0.00     0.183 C 
HETATM   25  O   UNL     1     -45.433 -54.701  15.252  1.00  0.00    -0.389 OA
HETATM   26  C   UNL     1     -45.529 -55.042  13.846  1.00  0.00     0.183 C 
BRANCH  23  27
HETATM   27  C   UNL     1     -45.969 -52.636  13.096  1.00  0.00     0.179 C 
BRANCH  27  28
HETATM   28  O   UNL     1     -46.271 -52.717  11.707  1.00  0.00    -0.400 OA
HETATM   29  H   UNL     1     -45.787 -52.013  11.246  1.00  0.00     0.209 HD
ENDBRANCH  27  28
ENDBRANCH  23  27
ENDBRANCH  22  23
ENDBRANCH   2  22
TORSDOF 8
ENDMDL
