MODEL 1
REMARK VINA RESULT:      -6.2      0.000      0.000
REMARK  6 active torsions:
REMARK  status: ('A' for Active; 'I' for Inactive)
REMARK    1  A    between atoms: N_6  and  C_7 
REMARK    2  A    between atoms: C_7  and  C_8 
REMARK    3  A    between atoms: C_8  and  N_9 
REMARK    4  A    between atoms: N_9  and  C_10 
REMARK    5  A    between atoms: C_10  and  C_11 
REMARK       I    between atoms: C_11  and  N_13 
REMARK    6  A    between atoms: N_13  and  C_14 
ROOT
HETATM    1  C   UNL     1     -40.144 -50.868  12.824  1.00  0.00     0.246 C 
HETATM    2  O   UNL     1     -40.004 -50.317  13.914  1.00  0.00    -0.272 OA
HETATM    3  N   UNL     1     -40.859 -52.029  12.663  1.00  0.00    -0.346 N 
HETATM    4  H   UNL     1     -41.146 -52.270  11.712  1.00  0.00     0.163 HD
ENDROOT
BRANCH   1   5
HETATM    5  C   UNL     1     -39.492 -50.316  11.558  1.00  0.00     0.371 C 
BRANCH   5   6
HETATM    6  N   UNL     1     -40.502 -49.843  10.587  1.00  0.00     0.093 N 
HETATM    7  H   UNL     1     -40.018 -49.390   9.811  1.00  0.00     0.316 HD
BRANCH   6   8
HETATM    8  C   UNL     1     -41.438 -48.893  11.214  1.00  0.00     0.291 C 
BRANCH   8   9
HETATM    9  C   UNL     1     -41.629 -47.588  10.434  1.00  0.00     0.178 C 
BRANCH   9  10
HETATM   10  N   UNL     1     -42.855 -47.600   9.665  1.00  0.00    -0.302 N 
HETATM   11  N   UNL     1     -42.822 -47.907   8.357  1.00  0.00    -0.310 N 
HETATM   12  C   UNL     1     -44.103 -47.852   7.989  1.00  0.00     0.115 A 
ATOM     13  HN  UNL     1     -42.010 -48.129   7.781  1.00  0.00     0.186 HD
HETATM   14  C   UNL     1     -44.962 -47.506   9.061  1.00  0.00    -0.028 A 
HETATM   15  C   UNL     1     -46.430 -47.349   9.037  1.00  0.00     0.051 C 
HETATM   16  C   UNL     1     -44.113 -47.351  10.135  1.00  0.00     0.118 A 
ENDBRANCH   9  10
ENDBRANCH   8   9
ENDBRANCH   6   8
ENDBRANCH   5   6
ENDBRANCH   1   5
BRANCH   3  17
HETATM   17  C   UNL     1     -41.529 -52.663  13.787  1.00  0.00     0.176 C 
HETATM   18  C   UNL     1     -41.208 -54.164  13.798  1.00  0.00     0.035 C 
HETATM   19  C   UNL     1     -41.478 -54.781  15.164  1.00  0.00     0.004 C 
HETATM   20  C   UNL     1     -42.931 -55.180  15.414  1.00  0.00     0.020 C 
HETATM   21  C   UNL     1     -44.006 -54.391  14.671  1.00  0.00     0.122 C 
HETATM   22  N   UNL     1     -43.829 -52.955  14.684  1.00  0.00    -0.359 N 
HETATM   23  C   UNL     1     -43.037 -52.361  13.719  1.00  0.00     0.240 C 
HETATM   24  H   UNL     1     -43.675 -52.578  15.611  1.00  0.00     0.162 HD
HETATM   25  O   UNL     1     -43.508 -51.530  12.944  1.00  0.00    -0.271 OA
ENDBRANCH   3  17
TORSDOF 6
ENDMDL
MODEL 2
REMARK VINA RESULT:      -6.2      2.361      2.831
REMARK  6 active torsions:
REMARK  status: ('A' for Active; 'I' for Inactive)
REMARK    1  A    between atoms: N_6  and  C_7 
REMARK    2  A    between atoms: C_7  and  C_8 
REMARK    3  A    between atoms: C_8  and  N_9 
REMARK    4  A    between atoms: N_9  and  C_10 
REMARK    5  A    between atoms: C_10  and  C_11 
REMARK       I    between atoms: C_11  and  N_13 
REMARK    6  A    between atoms: N_13  and  C_14 
ROOT
HETATM    1  C   UNL     1     -42.792 -50.042  13.208  1.00  0.00     0.246 C 
HETATM    2  O   UNL     1     -43.356 -49.024  13.603  1.00  0.00    -0.272 OA
HETATM    3  N   UNL     1     -43.410 -51.268  13.167  1.00  0.00    -0.346 N 
HETATM    4  H   UNL     1     -42.974 -51.989  12.590  1.00  0.00     0.163 HD
ENDROOT
BRANCH   1   5
HETATM    5  C   UNL     1     -41.331 -50.027  12.765  1.00  0.00     0.371 C 
BRANCH   5   6
HETATM    6  N   UNL     1     -41.186 -50.437  11.352  1.00  0.00     0.093 N 
HETATM    7  H   UNL     1     -40.470 -51.163  11.296  1.00  0.00     0.316 HD
BRANCH   6   8
HETATM    8  C   UNL     1     -40.803 -49.294  10.504  1.00  0.00     0.291 C 
BRANCH   8   9
HETATM    9  C   UNL     1     -41.532 -47.987  10.837  1.00  0.00     0.178 C 
BRANCH   9  10
HETATM   10  N   UNL     1     -42.696 -47.798   9.999  1.00  0.00    -0.302 N 
HETATM   11  N   UNL     1     -42.593 -47.934   8.666  1.00  0.00    -0.310 N 
HETATM   12  C   UNL     1     -43.836 -47.725   8.231  1.00  0.00     0.115 A 
ATOM     13  HN  UNL     1     -41.760 -48.146   8.116  1.00  0.00     0.186 HD
HETATM   14  C   UNL     1     -44.741 -47.451   9.285  1.00  0.00    -0.028 A 
HETATM   15  C   UNL     1     -46.189 -47.170   9.192  1.00  0.00     0.051 C 
HETATM   16  C   UNL     1     -43.963 -47.507  10.419  1.00  0.00     0.118 A 
ENDBRANCH   9  10
ENDBRANCH   8   9
ENDBRANCH   6   8
ENDBRANCH   5   6
ENDBRANCH   1   5
BRANCH   3  17
HETATM   17  C   UNL     1     -44.801 -51.423  13.563  1.00  0.00     0.176 C 
HETATM   18  C   UNL     1     -44.907 -51.374  15.094  1.00  0.00     0.035 C 
HETATM   19  C   UNL     1     -46.330 -51.065  15.543  1.00  0.00     0.004 C 
HETATM   20  C   UNL     1     -47.262 -52.274  15.604  1.00  0.00     0.020 C 
HETATM   21  C   UNL     1     -46.960 -53.433  14.658  1.00  0.00     0.122 C 
HETATM   22  N   UNL     1     -46.662 -53.047  13.295  1.00  0.00    -0.359 N 
HETATM   23  C   UNL     1     -45.365 -52.718  12.953  1.00  0.00     0.240 C 
HETATM   24  H   UNL     1     -47.350 -52.421  12.897  1.00  0.00     0.162 HD
HETATM   25  O   UNL     1     -44.759 -53.360  12.096  1.00  0.00    -0.271 OA
ENDBRANCH   3  17
TORSDOF 6
ENDMDL
MODEL 3
REMARK VINA RESULT:      -6.0      2.453      4.680
REMARK  6 active torsions:
REMARK  status: ('A' for Active; 'I' for Inactive)
REMARK    1  A    between atoms: N_6  and  C_7 
REMARK    2  A    between atoms: C_7  and  C_8 
REMARK    3  A    between atoms: C_8  and  N_9 
REMARK    4  A    between atoms: N_9  and  C_10 
REMARK    5  A    between atoms: C_10  and  C_11 
REMARK       I    between atoms: C_11  and  N_13 
REMARK    6  A    between atoms: N_13  and  C_14 
ROOT
HETATM    1  C   UNL     1     -43.445 -49.951  13.247  1.00  0.00     0.246 C 
HETATM    2  O   UNL     1     -42.693 -50.115  14.206  1.00  0.00    -0.272 OA
HETATM    3  N   UNL     1     -44.383 -50.880  12.870  1.00  0.00    -0.346 N 
HETATM    4  H   UNL     1     -45.129 -50.562  12.248  1.00  0.00     0.163 HD
ENDROOT
BRANCH   1   5
HETATM    5  C   UNL     1     -43.365 -48.704  12.370  1.00  0.00     0.371 C 
BRANCH   5   6
HETATM    6  N   UNL     1     -42.526 -48.932  11.174  1.00  0.00     0.093 N 
HETATM    7  H   UNL     1     -42.611 -49.912  10.900  1.00  0.00     0.316 HD
BRANCH   6   8
HETATM    8  C   UNL     1     -41.114 -48.610  11.445  1.00  0.00     0.291 C 
BRANCH   8   9
HETATM    9  C   UNL     1     -40.123 -49.694  11.008  1.00  0.00     0.178 C 
BRANCH   9  10
HETATM   10  N   UNL     1     -40.270 -50.900  11.795  1.00  0.00    -0.302 N 
HETATM   11  N   UNL     1     -41.028 -51.911  11.337  1.00  0.00    -0.310 N 
HETATM   12  C   UNL     1     -40.912 -52.844  12.282  1.00  0.00     0.115 A 
ATOM     13  HN  UNL     1     -41.565 -51.955  10.471  1.00  0.00     0.186 HD
HETATM   14  C   UNL     1     -40.080 -52.432  13.353  1.00  0.00    -0.028 A 
HETATM   15  C   UNL     1     -39.720 -53.189  14.569  1.00  0.00     0.051 C 
HETATM   16  C   UNL     1     -39.682 -51.162  12.999  1.00  0.00     0.118 A 
ENDBRANCH   9  10
ENDBRANCH   8   9
ENDBRANCH   6   8
ENDBRANCH   5   6
ENDBRANCH   1   5
BRANCH   3  17
HETATM   17  C   UNL     1     -44.563 -52.115  13.617  1.00  0.00     0.176 C 
HETATM   18  C   UNL     1     -44.438 -53.314  12.668  1.00  0.00     0.035 C 
HETATM   19  C   UNL     1     -44.152 -54.601  13.431  1.00  0.00     0.004 C 
HETATM   20  C   UNL     1     -45.386 -55.296  14.004  1.00  0.00     0.020 C 
HETATM   21  C   UNL     1     -46.583 -54.414  14.349  1.00  0.00     0.122 C 
HETATM   22  N   UNL     1     -46.260 -53.202  15.071  1.00  0.00    -0.359 N 
HETATM   23  C   UNL     1     -45.907 -52.067  14.366  1.00  0.00     0.240 C 
HETATM   24  H   UNL     1     -45.679 -53.362  15.884  1.00  0.00     0.162 HD
HETATM   25  O   UNL     1     -46.573 -51.037  14.459  1.00  0.00    -0.271 OA
ENDBRANCH   3  17
TORSDOF 6
ENDMDL
MODEL 4
REMARK VINA RESULT:      -5.9      2.387      6.436
REMARK  6 active torsions:
REMARK  status: ('A' for Active; 'I' for Inactive)
REMARK    1  A    between atoms: N_6  and  C_7 
REMARK    2  A    between atoms: C_7  and  C_8 
REMARK    3  A    between atoms: C_8  and  N_9 
REMARK    4  A    between atoms: N_9  and  C_10 
REMARK    5  A    between atoms: C_10  and  C_11 
REMARK       I    between atoms: C_11  and  N_13 
REMARK    6  A    between atoms: N_13  and  C_14 
ROOT
HETATM    1  C   UNL     1     -38.753 -51.566  13.820  1.00  0.00     0.246 C 
HETATM    2  O   UNL     1     -37.835 -51.674  13.010  1.00  0.00    -0.272 OA
HETATM    3  N   UNL     1     -39.731 -50.607  13.714  1.00  0.00    -0.346 N 
HETATM    4  H   UNL     1     -40.583 -50.750  14.259  1.00  0.00     0.163 HD
ENDROOT
BRANCH   1   5
HETATM    5  C   UNL     1     -38.855 -52.477  15.042  1.00  0.00     0.371 C 
BRANCH   5   6
HETATM    6  N   UNL     1     -39.096 -53.883  14.654  1.00  0.00     0.093 N 
HETATM    7  H   UNL     1     -38.689 -54.040  13.732  1.00  0.00     0.316 HD
BRANCH   6   8
HETATM    8  C   UNL     1     -40.538 -54.185  14.620  1.00  0.00     0.291 C 
BRANCH   8   9
HETATM    9  C   UNL     1     -41.136 -54.256  13.210  1.00  0.00     0.178 C 
BRANCH   9  10
HETATM   10  N   UNL     1     -42.575 -54.112  13.233  1.00  0.00    -0.302 N 
HETATM   11  N   UNL     1     -43.201 -53.472  12.231  1.00  0.00    -0.310 N 
HETATM   12  C   UNL     1     -44.490 -53.556  12.561  1.00  0.00     0.115 A 
ATOM     13  HN  UNL     1     -42.788 -53.026  11.412  1.00  0.00     0.186 HD
HETATM   14  C   UNL     1     -44.696 -54.249  13.779  1.00  0.00    -0.028 A 
HETATM   15  C   UNL     1     -45.975 -54.537  14.459  1.00  0.00     0.051 C 
HETATM   16  C   UNL     1     -43.426 -54.595  14.186  1.00  0.00     0.118 A 
ENDBRANCH   9  10
ENDBRANCH   8   9
ENDBRANCH   6   8
ENDBRANCH   5   6
ENDBRANCH   1   5
BRANCH   3  17
HETATM   17  C   UNL     1     -39.751 -49.673  12.599  1.00  0.00     0.176 C 
HETATM   18  C   UNL     1     -40.083 -48.266  13.114  1.00  0.00     0.035 C 
HETATM   19  C   UNL     1     -39.670 -47.195  12.112  1.00  0.00     0.004 C 
HETATM   20  C   UNL     1     -40.682 -46.931  10.999  1.00  0.00     0.020 C 
HETATM   21  C   UNL     1     -41.591 -48.090  10.596  1.00  0.00     0.122 C 
HETATM   22  N   UNL     1     -40.920 -49.361  10.429  1.00  0.00    -0.359 N 
HETATM   23  C   UNL     1     -40.733 -50.179  11.527  1.00  0.00     0.240 C 
HETATM   24  H   UNL     1     -40.107 -49.310   9.828  1.00  0.00     0.162 HD
HETATM   25  O   UNL     1     -41.222 -51.307  11.561  1.00  0.00    -0.271 OA
ENDBRANCH   3  17
TORSDOF 6
ENDMDL
MODEL 5
REMARK VINA RESULT:      -5.9      2.959      4.594
REMARK  6 active torsions:
REMARK  status: ('A' for Active; 'I' for Inactive)
REMARK    1  A    between atoms: N_6  and  C_7 
REMARK    2  A    between atoms: C_7  and  C_8 
REMARK    3  A    between atoms: C_8  and  N_9 
REMARK    4  A    between atoms: N_9  and  C_10 
REMARK    5  A    between atoms: C_10  and  C_11 
REMARK       I    between atoms: C_11  and  N_13 
REMARK    6  A    between atoms: N_13  and  C_14 
ROOT
HETATM    1  C   UNL     1     -41.343 -53.856  13.612  1.00  0.00     0.246 C 
HETATM    2  O   UNL     1     -41.301 -53.382  12.478  1.00  0.00    -0.272 OA
HETATM    3  N   UNL     1     -42.490 -53.882  14.366  1.00  0.00    -0.346 N 
HETATM    4  H   UNL     1     -42.506 -54.517  15.167  1.00  0.00     0.163 HD
ENDROOT
BRANCH   1   5
HETATM    5  C   UNL     1     -40.097 -54.424  14.290  1.00  0.00     0.371 C 
BRANCH   5   6
HETATM    6  N   UNL     1     -38.930 -53.533  14.119  1.00  0.00     0.093 N 
HETATM    7  H   UNL     1     -38.102 -54.010  14.477  1.00  0.00     0.316 HD
BRANCH   6   8
HETATM    8  C   UNL     1     -39.123 -52.261  14.839  1.00  0.00     0.291 C 
BRANCH   8   9
HETATM    9  C   UNL     1     -38.625 -51.025  14.083  1.00  0.00     0.178 C 
BRANCH   9  10
HETATM   10  N   UNL     1     -39.632 -50.510  13.181  1.00  0.00    -0.302 N 
HETATM   11  N   UNL     1     -39.536 -50.747  11.861  1.00  0.00    -0.310 N 
HETATM   12  C   UNL     1     -40.624 -50.165  11.356  1.00  0.00     0.115 A 
ATOM     13  HN  UNL     1     -38.803 -51.254  11.364  1.00  0.00     0.186 HD
HETATM   14  C   UNL     1     -41.421 -49.548  12.351  1.00  0.00    -0.028 A 
HETATM   15  C   UNL     1     -42.689 -48.811  12.175  1.00  0.00     0.051 C 
HETATM   16  C   UNL     1     -40.743 -49.794  13.525  1.00  0.00     0.118 A 
ENDBRANCH   9  10
ENDBRANCH   8   9
ENDBRANCH   6   8
ENDBRANCH   5   6
ENDBRANCH   1   5
BRANCH   3  17
HETATM   17  C   UNL     1     -43.747 -53.372  13.842  1.00  0.00     0.176 C 
HETATM   18  C   UNL     1     -44.033 -51.991  14.447  1.00  0.00     0.035 C 
HETATM   19  C   UNL     1     -45.051 -51.219  13.616  1.00  0.00     0.004 C 
HETATM   20  C   UNL     1     -46.510 -51.554  13.914  1.00  0.00     0.020 C 
HETATM   21  C   UNL     1     -46.809 -52.957  14.437  1.00  0.00     0.122 C 
HETATM   22  N   UNL     1     -46.141 -54.028  13.729  1.00  0.00    -0.359 N 
HETATM   23  C   UNL     1     -44.865 -54.397  14.106  1.00  0.00     0.240 C 
HETATM   24  H   UNL     1     -46.261 -53.980  12.725  1.00  0.00     0.162 HD
HETATM   25  O   UNL     1     -44.631 -55.539  14.499  1.00  0.00    -0.271 OA
ENDBRANCH   3  17
TORSDOF 6
ENDMDL
MODEL 6
REMARK VINA RESULT:      -5.9      2.423      6.697
REMARK  6 active torsions:
REMARK  status: ('A' for Active; 'I' for Inactive)
REMARK    1  A    between atoms: N_6  and  C_7 
REMARK    2  A    between atoms: C_7  and  C_8 
REMARK    3  A    between atoms: C_8  and  N_9 
REMARK    4  A    between atoms: N_9  and  C_10 
REMARK    5  A    between atoms: C_10  and  C_11 
REMARK       I    between atoms: C_11  and  N_13 
REMARK    6  A    between atoms: N_13  and  C_14 
ROOT
HETATM    1  C   UNL     1     -41.193 -50.749  12.367  1.00  0.00     0.246 C 
HETATM    2  O   UNL     1     -41.377 -50.380  13.525  1.00  0.00    -0.272 OA
HETATM    3  N   UNL     1     -41.184 -49.883  11.301  1.00  0.00    -0.346 N 
HETATM    4  H   UNL     1     -40.768 -50.220  10.431  1.00  0.00     0.163 HD
ENDROOT
BRANCH   1   5
HETATM    5  C   UNL     1     -40.996 -52.223  12.018  1.00  0.00     0.371 C 
BRANCH   5   6
HETATM    6  N   UNL     1     -42.278 -52.881  11.689  1.00  0.00     0.093 N 
HETATM    7  H   UNL     1     -42.944 -52.165  11.396  1.00  0.00     0.316 HD
BRANCH   6   8
HETATM    8  C   UNL     1     -42.812 -53.614  12.850  1.00  0.00     0.291 C 
BRANCH   8   9
HETATM    9  C   UNL     1     -44.263 -54.079  12.691  1.00  0.00     0.178 C 
BRANCH   9  10
HETATM   10  N   UNL     1     -45.197 -53.102  13.207  1.00  0.00    -0.302 N 
HETATM   11  N   UNL     1     -45.801 -52.243  12.368  1.00  0.00    -0.310 N 
HETATM   12  C   UNL     1     -46.595 -51.529  13.166  1.00  0.00     0.115 A 
ATOM     13  HN  UNL     1     -45.681 -52.157  11.358  1.00  0.00     0.186 HD
HETATM   14  C   UNL     1     -46.501 -51.926  14.523  1.00  0.00    -0.028 A 
HETATM   15  C   UNL     1     -47.221 -51.371  15.686  1.00  0.00     0.051 C 
HETATM   16  C   UNL     1     -45.581 -52.952  14.509  1.00  0.00     0.118 A 
ENDBRANCH   9  10
ENDBRANCH   8   9
ENDBRANCH   6   8
ENDBRANCH   5   6
ENDBRANCH   1   5
BRANCH   3  17
HETATM   17  C   UNL     1     -41.362 -48.452  11.492  1.00  0.00     0.176 C 
HETATM   18  C   UNL     1     -42.262 -47.893  10.382  1.00  0.00     0.035 C 
HETATM   19  C   UNL     1     -42.856 -46.545  10.773  1.00  0.00     0.004 C 
HETATM   20  C   UNL     1     -41.947 -45.345  10.519  1.00  0.00     0.020 C 
HETATM   21  C   UNL     1     -40.441 -45.592  10.558  1.00  0.00     0.122 C 
HETATM   22  N   UNL     1     -39.983 -46.393  11.673  1.00  0.00    -0.359 N 
HETATM   23  C   UNL     1     -39.984 -47.770  11.563  1.00  0.00     0.240 C 
HETATM   24  H   UNL     1     -40.322 -46.065  12.569  1.00  0.00     0.162 HD
HETATM   25  O   UNL     1     -38.937 -48.410  11.660  1.00  0.00    -0.271 OA
ENDBRANCH   3  17
TORSDOF 6
ENDMDL
MODEL 7
REMARK VINA RESULT:      -5.8      3.110      4.316
REMARK  6 active torsions:
REMARK  status: ('A' for Active; 'I' for Inactive)
REMARK    1  A    between atoms: N_6  and  C_7 
REMARK    2  A    between atoms: C_7  and  C_8 
REMARK    3  A    between atoms: C_8  and  N_9 
REMARK    4  A    between atoms: N_9  and  C_10 
REMARK    5  A    between atoms: C_10  and  C_11 
REMARK       I    between atoms: C_11  and  N_13 
REMARK    6  A    between atoms: N_13  and  C_14 
ROOT
HETATM    1  C   UNL     1     -42.042 -51.833  12.524  1.00  0.00     0.246 C 
HETATM    2  O   UNL     1     -42.342 -50.682  12.213  1.00  0.00    -0.272 OA
HETATM    3  N   UNL     1     -42.916 -52.687  13.150  1.00  0.00    -0.346 N 
HETATM    4  H   UNL     1     -42.686 -53.683  13.132  1.00  0.00     0.163 HD
ENDROOT
BRANCH   1   5
HETATM    5  C   UNL     1     -40.644 -52.393  12.269  1.00  0.00     0.371 C 
BRANCH   5   6
HETATM    6  N   UNL     1     -39.814 -52.362  13.492  1.00  0.00     0.093 N 
HETATM    7  H   UNL     1     -40.417 -52.532  14.298  1.00  0.00     0.316 HD
BRANCH   6   8
HETATM    8  C   UNL     1     -39.135 -51.063  13.641  1.00  0.00     0.291 C 
BRANCH   8   9
HETATM    9  C   UNL     1     -38.689 -50.427  12.320  1.00  0.00     0.178 C 
BRANCH   9  10
HETATM   10  N   UNL     1     -39.243 -49.102  12.151  1.00  0.00    -0.302 N 
HETATM   11  N   UNL     1     -40.090 -48.853  11.137  1.00  0.00    -0.310 N 
HETATM   12  C   UNL     1     -40.415 -47.571  11.306  1.00  0.00     0.115 A 
ATOM     13  HN  UNL     1     -40.409 -49.494  10.410  1.00  0.00     0.186 HD
HETATM   14  C   UNL     1     -39.775 -46.991  12.429  1.00  0.00    -0.028 A 
HETATM   15  C   UNL     1     -39.888 -45.606  12.927  1.00  0.00     0.051 C 
HETATM   16  C   UNL     1     -39.021 -48.018  12.952  1.00  0.00     0.118 A 
ENDBRANCH   9  10
ENDBRANCH   8   9
ENDBRANCH   6   8
ENDBRANCH   5   6
ENDBRANCH   1   5
BRANCH   3  17
HETATM   17  C   UNL     1     -44.279 -52.281  13.453  1.00  0.00     0.176 C 
HETATM   18  C   UNL     1     -44.374 -51.859  14.926  1.00  0.00     0.035 C 
HETATM   19  C   UNL     1     -45.608 -51.004  15.183  1.00  0.00     0.004 C 
HETATM   20  C   UNL     1     -46.897 -51.790  15.416  1.00  0.00     0.020 C 
HETATM   21  C   UNL     1     -47.003 -53.164  14.758  1.00  0.00     0.122 C 
HETATM   22  N   UNL     1     -46.581 -53.213  13.375  1.00  0.00    -0.359 N 
HETATM   23  C   UNL     1     -45.247 -53.417  13.080  1.00  0.00     0.240 C 
HETATM   24  H   UNL     1     -47.011 -52.499  12.799  1.00  0.00     0.162 HD
HETATM   25  O   UNL     1     -44.891 -54.398  12.428  1.00  0.00    -0.271 OA
ENDBRANCH   3  17
TORSDOF 6
ENDMDL
MODEL 8
REMARK VINA RESULT:      -5.7      2.693      3.767
REMARK  6 active torsions:
REMARK  status: ('A' for Active; 'I' for Inactive)
REMARK    1  A    between atoms: N_6  and  C_7 
REMARK    2  A    between atoms: C_7  and  C_8 
REMARK    3  A    between atoms: C_8  and  N_9 
REMARK    4  A    between atoms: N_9  and  C_10 
REMARK    5  A    between atoms: C_10  and  C_11 
REMARK       I    between atoms: C_11  and  N_13 
REMARK    6  A    between atoms: N_13  and  C_14 
ROOT
HETATM    1  C   UNL     1     -41.550 -51.396  12.181  1.00  0.00     0.246 C 
HETATM    2  O   UNL     1     -41.618 -52.465  11.579  1.00  0.00    -0.272 OA
HETATM    3  N   UNL     1     -42.503 -50.986  13.081  1.00  0.00    -0.346 N 
HETATM    4  H   UNL     1     -42.245 -50.232  13.721  1.00  0.00     0.163 HD
ENDROOT
BRANCH   1   5
HETATM    5  C   UNL     1     -40.406 -50.413  11.942  1.00  0.00     0.371 C 
BRANCH   5   6
HETATM    6  N   UNL     1     -40.479 -49.808  10.595  1.00  0.00     0.093 N 
HETATM    7  H   UNL     1     -39.542 -49.513  10.320  1.00  0.00     0.316 HD
BRANCH   6   8
HETATM    8  C   UNL     1     -41.390 -48.650  10.581  1.00  0.00     0.291 C 
BRANCH   8   9
HETATM    9  C   UNL     1     -41.260 -47.729  11.798  1.00  0.00     0.178 C 
BRANCH   9  10
HETATM   10  N   UNL     1     -40.773 -46.418  11.426  1.00  0.00    -0.302 N 
HETATM   11  N   UNL     1     -39.959 -46.282  10.365  1.00  0.00    -0.310 N 
HETATM   12  C   UNL     1     -39.742 -44.968  10.302  1.00  0.00     0.115 A 
ATOM     13  HN  UNL     1     -39.593 -47.011   9.753  1.00  0.00     0.186 HD
HETATM   14  C   UNL     1     -40.414 -44.256  11.326  1.00  0.00    -0.028 A 
HETATM   15  C   UNL     1     -40.412 -42.800  11.576  1.00  0.00     0.051 C 
HETATM   16  C   UNL     1     -41.074 -45.234  12.037  1.00  0.00     0.118 A 
ENDBRANCH   9  10
ENDBRANCH   8   9
ENDBRANCH   6   8
ENDBRANCH   5   6
ENDBRANCH   1   5
BRANCH   3  17
HETATM   17  C   UNL     1     -43.647 -51.825  13.400  1.00  0.00     0.176 C 
HETATM   18  C   UNL     1     -44.916 -50.965  13.454  1.00  0.00     0.035 C 
HETATM   19  C   UNL     1     -46.173 -51.817  13.319  1.00  0.00     0.004 C 
HETATM   20  C   UNL     1     -46.657 -52.458  14.618  1.00  0.00     0.020 C 
HETATM   21  C   UNL     1     -45.604 -52.756  15.682  1.00  0.00     0.122 C 
HETATM   22  N   UNL     1     -44.396 -53.381  15.187  1.00  0.00    -0.359 N 
HETATM   23  C   UNL     1     -43.371 -52.590  14.708  1.00  0.00     0.240 C 
HETATM   24  H   UNL     1     -44.574 -54.195  14.611  1.00  0.00     0.162 HD
HETATM   25  O   UNL     1     -42.258 -52.616  15.232  1.00  0.00    -0.271 OA
ENDBRANCH   3  17
TORSDOF 6
ENDMDL
MODEL 9
REMARK VINA RESULT:      -5.6      2.457      7.232
REMARK  6 active torsions:
REMARK  status: ('A' for Active; 'I' for Inactive)
REMARK    1  A    between atoms: N_6  and  C_7 
REMARK    2  A    between atoms: C_7  and  C_8 
REMARK    3  A    between atoms: C_8  and  N_9 
REMARK    4  A    between atoms: N_9  and  C_10 
REMARK    5  A    between atoms: C_10  and  C_11 
REMARK       I    between atoms: C_11  and  N_13 
REMARK    6  A    between atoms: N_13  and  C_14 
ROOT
HETATM    1  C   UNL     1     -42.624 -49.353  12.483  1.00  0.00     0.246 C 
HETATM    2  O   UNL     1     -43.258 -48.876  13.423  1.00  0.00    -0.272 OA
HETATM    3  N   UNL     1     -42.701 -48.856  11.205  1.00  0.00    -0.346 N 
HETATM    4  H   UNL     1     -41.961 -49.127  10.555  1.00  0.00     0.163 HD
ENDROOT
BRANCH   1   5
HETATM    5  C   UNL     1     -41.723 -50.573  12.661  1.00  0.00     0.371 C 
BRANCH   5   6
HETATM    6  N   UNL     1     -42.239 -51.744  11.921  1.00  0.00     0.093 N 
HETATM    7  H   UNL     1     -42.991 -51.433  11.304  1.00  0.00     0.316 HD
BRANCH   6   8
HETATM    8  C   UNL     1     -42.746 -52.774  12.844  1.00  0.00     0.291 C 
BRANCH   8   9
HETATM    9  C   UNL     1     -44.064 -53.423  12.406  1.00  0.00     0.178 C 
BRANCH   9  10
HETATM   10  N   UNL     1     -45.134 -53.138  13.337  1.00  0.00    -0.302 N 
HETATM   11  N   UNL     1     -46.044 -54.085  13.623  1.00  0.00    -0.310 N 
HETATM   12  C   UNL     1     -46.839 -53.497  14.517  1.00  0.00     0.115 A 
ATOM     13  HN  UNL     1     -46.110 -55.030  13.245  1.00  0.00     0.186 HD
HETATM   14  C   UNL     1     -46.444 -52.168  14.805  1.00  0.00    -0.028 A 
HETATM   15  C   UNL     1     -47.076 -51.211  15.736  1.00  0.00     0.051 C 
HETATM   16  C   UNL     1     -45.331 -51.971  14.019  1.00  0.00     0.118 A 
ENDBRANCH   9  10
ENDBRANCH   8   9
ENDBRANCH   6   8
ENDBRANCH   5   6
ENDBRANCH   1   5
BRANCH   3  17
HETATM   17  C   UNL     1     -43.525 -47.698  10.896  1.00  0.00     0.176 C 
HETATM   18  C   UNL     1     -44.331 -47.966   9.618  1.00  0.00     0.035 C 
HETATM   19  C   UNL     1     -45.523 -47.024   9.503  1.00  0.00     0.004 C 
HETATM   20  C   UNL     1     -45.204 -45.654   8.908  1.00  0.00     0.020 C 
HETATM   21  C   UNL     1     -43.785 -45.123   9.105  1.00  0.00     0.122 C 
HETATM   22  N   UNL     1     -43.260 -45.268  10.445  1.00  0.00    -0.359 N 
HETATM   23  C   UNL     1     -42.633 -46.446  10.804  1.00  0.00     0.240 C 
HETATM   24  H   UNL     1     -43.883 -44.915  11.161  1.00  0.00     0.162 HD
HETATM   25  O   UNL     1     -41.457 -46.448  11.163  1.00  0.00    -0.271 OA
ENDBRANCH   3  17
TORSDOF 6
ENDMDL
