MODEL 1
REMARK VINA RESULT:      -7.1      0.000      0.000
REMARK  7 active torsions:
REMARK  status: ('A' for Active; 'I' for Inactive)
REMARK    1  A    between atoms: N_2  and  C_13 
REMARK    2  A    between atoms: C_3  and  N_7 
REMARK    3  A    between atoms: C_13  and  C_15 
REMARK    4  A    between atoms: C_14  and  C_17 
REMARK    5  A    between atoms: C_15  and  C_18 
REMARK    6  A    between atoms: C_15  and  O_22 
REMARK    7  A    between atoms: C_17  and  C_24 
ROOT
HETATM    1  C   UNL     1     -40.307 -49.230  12.447  1.00  0.00     0.122 A 
HETATM    2  N   UNL     1     -40.652 -51.227  13.277  1.00  0.00    -0.325 N 
HETATM    3  C   UNL     1     -39.488 -48.226  11.866  1.00  0.00     0.136 A 
HETATM    4  C   UNL     1     -39.777 -50.517  12.501  1.00  0.00     0.140 A 
HETATM    5  N   UNL     1     -41.546 -49.209  13.064  1.00  0.00    -0.346 N 
ATOM      6  HN  UNL     1     -42.178 -48.413  13.153  1.00  0.00     0.167 HD
HETATM    7  C   UNL     1     -41.736 -50.432  13.514  1.00  0.00     0.185 C 
HETATM    8  N   UNL     1     -38.307 -48.660  11.320  1.00  0.00    -0.337 N 
ATOM      9  HN  UNL     1     -37.688 -47.993  10.858  1.00  0.00     0.168 HD
HETATM   10  N   UNL     1     -38.615 -50.954  11.998  1.00  0.00    -0.336 N 
ATOM     11  HN  UNL     1     -38.276 -51.913  12.071  1.00  0.00     0.168 HD
HETATM   12  C   UNL     1     -37.958 -49.959  11.387  1.00  0.00     0.183 A 
ENDROOT
BRANCH   3  13
HETATM   13  N   UNL     1     -39.771 -46.869  11.797  1.00  0.00    -0.356 N 
HETATM   14  C   UNL     1     -40.555 -46.252  10.698  1.00  0.00     0.110 C 
HETATM   15  C   UNL     1     -40.064 -44.782  10.586  1.00  0.00     0.193 C 
HETATM   16  O   UNL     1     -40.268 -44.063  11.816  1.00  0.00    -0.388 OA
HETATM   17  C   UNL     1     -39.474 -44.652  12.858  1.00  0.00     0.187 C 
HETATM   18  C   UNL     1     -39.794 -46.138  13.077  1.00  0.00     0.151 C 
BRANCH  14  19
HETATM   19  C   UNL     1     -42.077 -46.335  10.980  1.00  0.00     0.032 C 
BRANCH  19  20
HETATM   20  C   UNL     1     -42.824 -47.150   9.924  1.00  0.00    -0.013 C 
HETATM   21  C   UNL     1     -43.416 -46.354   8.725  1.00  0.00     0.005 C 
HETATM   22  C   UNL     1     -44.578 -47.370   8.724  1.00  0.00     0.001 C 
HETATM   23  C   UNL     1     -44.283 -47.592  10.223  1.00  0.00     0.005 C 
ENDBRANCH  19  20
ENDBRANCH  14  19
ENDBRANCH   3  13
BRANCH   2  24
HETATM   24  C   UNL     1     -40.401 -52.527  13.861  1.00  0.00     0.165 C 
BRANCH  24  25
HETATM   25  C   UNL     1     -40.806 -53.732  12.990  1.00  0.00     0.165 C 
BRANCH  25  26
HETATM   26  C   UNL     1     -42.253 -54.245  13.131  1.00  0.00     0.151 C 
HETATM   27  O   UNL     1     -43.157 -53.382  12.411  1.00  0.00    -0.383 OA
HETATM   28  C   UNL     1     -44.449 -53.478  13.038  1.00  0.00     0.168 C 
HETATM   29  C   UNL     1     -44.322 -54.421  14.220  1.00  0.00     0.029 C 
HETATM   30  C   UNL     1     -42.843 -54.393  14.518  1.00  0.00     0.036 C 
ENDBRANCH  25  26
BRANCH  25  31
HETATM   31  O   UNL     1     -40.629 -53.331  11.611  1.00  0.00    -0.391 OA
HETATM   32  H   UNL     1     -40.444 -52.370  11.620  1.00  0.00     0.210 HD
ENDBRANCH  25  31
ENDBRANCH  24  25
ENDBRANCH   2  24
TORSDOF 7
ENDMDL
MODEL 2
REMARK VINA RESULT:      -6.9      1.837      2.468
REMARK  7 active torsions:
REMARK  status: ('A' for Active; 'I' for Inactive)
REMARK    1  A    between atoms: N_2  and  C_13 
REMARK    2  A    between atoms: C_3  and  N_7 
REMARK    3  A    between atoms: C_13  and  C_15 
REMARK    4  A    between atoms: C_14  and  C_17 
REMARK    5  A    between atoms: C_15  and  C_18 
REMARK    6  A    between atoms: C_15  and  O_22 
REMARK    7  A    between atoms: C_17  and  C_24 
ROOT
HETATM    1  C   UNL     1     -42.320 -49.606  11.976  1.00  0.00     0.122 A 
HETATM    2  N   UNL     1     -42.276 -51.302  13.361  1.00  0.00    -0.325 N 
HETATM    3  C   UNL     1     -41.711 -48.688  11.079  1.00  0.00     0.136 A 
HETATM    4  C   UNL     1     -41.560 -50.708  12.357  1.00  0.00     0.140 A 
HETATM    5  N   UNL     1     -43.532 -49.621  12.645  1.00  0.00    -0.346 N 
ATOM      6  HN  UNL     1     -44.300 -48.956  12.547  1.00  0.00     0.167 HD
HETATM    7  C   UNL     1     -43.485 -50.674  13.435  1.00  0.00     0.185 C 
HETATM    8  N   UNL     1     -40.478 -49.051  10.600  1.00  0.00    -0.337 N 
ATOM      9  HN  UNL     1     -40.001 -48.450   9.927  1.00  0.00     0.168 HD
HETATM   10  N   UNL     1     -40.343 -51.064  11.921  1.00  0.00    -0.336 N 
ATOM     11  HN  UNL     1     -39.831 -51.886  12.239  1.00  0.00     0.168 HD
HETATM   12  C   UNL     1     -39.892 -50.192  11.009  1.00  0.00     0.183 A 
ENDROOT
BRANCH   3  13
HETATM   13  N   UNL     1     -42.242 -47.481  10.647  1.00  0.00    -0.356 N 
HETATM   14  C   UNL     1     -43.225 -47.370   9.540  1.00  0.00     0.110 C 
HETATM   15  C   UNL     1     -43.023 -45.959   8.921  1.00  0.00     0.193 C 
HETATM   16  O   UNL     1     -43.240 -44.920   9.894  1.00  0.00    -0.388 OA
HETATM   17  C   UNL     1     -42.259 -45.023  10.938  1.00  0.00     0.187 C 
HETATM   18  C   UNL     1     -42.281 -46.390  11.638  1.00  0.00     0.151 C 
BRANCH  14  19
HETATM   19  C   UNL     1     -44.673 -47.577  10.051  1.00  0.00     0.032 C 
BRANCH  19  20
HETATM   20  C   UNL     1     -45.676 -47.752   8.911  1.00  0.00    -0.013 C 
HETATM   21  C   UNL     1     -46.706 -48.907   9.067  1.00  0.00     0.005 C 
HETATM   22  C   UNL     1     -46.628 -49.081   7.535  1.00  0.00     0.001 C 
HETATM   23  C   UNL     1     -45.210 -48.475   7.617  1.00  0.00     0.005 C 
ENDBRANCH  19  20
ENDBRANCH  14  19
ENDBRANCH   3  13
BRANCH   2  24
HETATM   24  C   UNL     1     -41.778 -52.311  14.271  1.00  0.00     0.165 C 
BRANCH  24  25
HETATM   25  C   UNL     1     -42.029 -53.770  13.842  1.00  0.00     0.165 C 
BRANCH  25  26
HETATM   26  C   UNL     1     -43.432 -54.348  14.109  1.00  0.00     0.151 C 
HETATM   27  O   UNL     1     -44.310 -54.054  13.003  1.00  0.00    -0.383 OA
HETATM   28  C   UNL     1     -45.658 -54.020  13.506  1.00  0.00     0.168 C 
HETATM   29  C   UNL     1     -45.600 -54.273  15.002  1.00  0.00     0.029 C 
HETATM   30  C   UNL     1     -44.179 -53.909  15.352  1.00  0.00     0.036 C 
ENDBRANCH  25  26
BRANCH  25  31
HETATM   31  O   UNL     1     -41.809 -53.830  12.413  1.00  0.00    -0.391 OA
HETATM   32  H   UNL     1     -42.658 -54.102  12.009  1.00  0.00     0.210 HD
ENDBRANCH  25  31
ENDBRANCH  24  25
ENDBRANCH   2  24
TORSDOF 7
ENDMDL
MODEL 3
REMARK VINA RESULT:      -6.9      2.076      7.589
REMARK  7 active torsions:
REMARK  status: ('A' for Active; 'I' for Inactive)
REMARK    1  A    between atoms: N_2  and  C_13 
REMARK    2  A    between atoms: C_3  and  N_7 
REMARK    3  A    between atoms: C_13  and  C_15 
REMARK    4  A    between atoms: C_14  and  C_17 
REMARK    5  A    between atoms: C_15  and  C_18 
REMARK    6  A    between atoms: C_15  and  O_22 
REMARK    7  A    between atoms: C_17  and  C_24 
ROOT
HETATM    1  C   UNL     1     -41.150 -49.501  12.558  1.00  0.00     0.122 A 
HETATM    2  N   UNL     1     -40.705 -47.620  11.529  1.00  0.00    -0.325 N 
HETATM    3  C   UNL     1     -40.921 -50.478  13.562  1.00  0.00     0.136 A 
HETATM    4  C   UNL     1     -40.490 -48.284  12.706  1.00  0.00     0.140 A 
HETATM    5  N   UNL     1     -41.860 -49.506  11.369  1.00  0.00    -0.346 N 
ATOM      6  HN  UNL     1     -42.458 -50.251  11.010  1.00  0.00     0.167 HD
HETATM    7  C   UNL     1     -41.601 -48.347  10.800  1.00  0.00     0.185 C 
HETATM    8  N   UNL     1     -40.161 -50.072  14.629  1.00  0.00    -0.337 N 
ATOM      9  HN  UNL     1     -39.986 -50.716  15.401  1.00  0.00     0.168 HD
HETATM   10  N   UNL     1     -39.721 -47.879  13.726  1.00  0.00    -0.336 N 
ATOM     11  HN  UNL     1     -39.260 -46.971  13.779  1.00  0.00     0.168 HD
HETATM   12  C   UNL     1     -39.643 -48.830  14.667  1.00  0.00     0.183 A 
ENDROOT
BRANCH   3  13
HETATM   13  N   UNL     1     -41.393 -51.784  13.566  1.00  0.00    -0.356 N 
HETATM   14  C   UNL     1     -42.696 -52.180  14.156  1.00  0.00     0.110 C 
HETATM   15  C   UNL     1     -42.541 -53.663  14.595  1.00  0.00     0.193 C 
HETATM   16  O   UNL     1     -42.213 -54.511  13.479  1.00  0.00    -0.388 OA
HETATM   17  C   UNL     1     -40.935 -54.135  12.945  1.00  0.00     0.187 C 
HETATM   18  C   UNL     1     -40.888 -52.667  12.499  1.00  0.00     0.151 C 
BRANCH  14  19
HETATM   19  C   UNL     1     -43.852 -51.995  13.141  1.00  0.00     0.032 C 
BRANCH  19  20
HETATM   20  C   UNL     1     -45.034 -51.228  13.734  1.00  0.00    -0.013 C 
HETATM   21  C   UNL     1     -45.448 -51.608  15.184  1.00  0.00     0.005 C 
HETATM   22  C   UNL     1     -46.904 -51.312  14.764  1.00  0.00     0.001 C 
HETATM   23  C   UNL     1     -46.472 -51.644  13.319  1.00  0.00     0.005 C 
ENDBRANCH  19  20
ENDBRANCH  14  19
ENDBRANCH   3  13
BRANCH   2  24
HETATM   24  C   UNL     1     -39.995 -46.441  11.082  1.00  0.00     0.165 C 
BRANCH  24  25
HETATM   25  C   UNL     1     -40.854 -45.388  10.354  1.00  0.00     0.165 C 
BRANCH  25  26
HETATM   26  C   UNL     1     -41.386 -44.213  11.197  1.00  0.00     0.151 C 
HETATM   27  O   UNL     1     -42.587 -43.679  10.605  1.00  0.00    -0.383 OA
HETATM   28  C   UNL     1     -42.693 -42.297  10.990  1.00  0.00     0.168 C 
HETATM   29  C   UNL     1     -41.478 -41.957  11.834  1.00  0.00     0.029 C 
HETATM   30  C   UNL     1     -40.483 -43.020  11.438  1.00  0.00     0.036 C 
ENDBRANCH  25  26
BRANCH  25  31
HETATM   31  O   UNL     1     -40.028 -44.823   9.309  1.00  0.00    -0.391 OA
HETATM   32  H   UNL     1     -39.132 -45.198   9.426  1.00  0.00     0.210 HD
ENDBRANCH  25  31
ENDBRANCH  24  25
ENDBRANCH   2  24
TORSDOF 7
ENDMDL
MODEL 4
REMARK VINA RESULT:      -6.8      2.659      7.228
REMARK  7 active torsions:
REMARK  status: ('A' for Active; 'I' for Inactive)
REMARK    1  A    between atoms: N_2  and  C_13 
REMARK    2  A    between atoms: C_3  and  N_7 
REMARK    3  A    between atoms: C_13  and  C_15 
REMARK    4  A    between atoms: C_14  and  C_17 
REMARK    5  A    between atoms: C_15  and  C_18 
REMARK    6  A    between atoms: C_15  and  O_22 
REMARK    7  A    between atoms: C_17  and  C_24 
ROOT
HETATM    1  C   UNL     1     -42.318 -51.515  13.795  1.00  0.00     0.122 A 
HETATM    2  N   UNL     1     -42.085 -49.733  12.543  1.00  0.00    -0.325 N 
HETATM    3  C   UNL     1     -42.292 -52.917  14.018  1.00  0.00     0.136 A 
HETATM    4  C   UNL     1     -41.747 -51.058  12.611  1.00  0.00     0.140 A 
HETATM    5  N   UNL     1     -42.869 -50.451  14.490  1.00  0.00    -0.346 N 
ATOM      6  HN  UNL     1     -43.328 -50.479  15.400  1.00  0.00     0.167 HD
HETATM    7  C   UNL     1     -42.674 -49.395  13.727  1.00  0.00     0.185 C 
HETATM    8  N   UNL     1     -41.606 -53.657  13.089  1.00  0.00    -0.337 N 
ATOM      9  HN  UNL     1     -41.523 -54.667  13.208  1.00  0.00     0.168 HD
HETATM   10  N   UNL     1     -41.097 -51.768  11.679  1.00  0.00    -0.336 N 
ATOM     11  HN  UNL     1     -40.699 -51.377  10.825  1.00  0.00     0.168 HD
HETATM   12  C   UNL     1     -41.040 -53.062  12.022  1.00  0.00     0.183 A 
ENDROOT
BRANCH   3  13
HETATM   13  N   UNL     1     -42.885 -53.596  15.074  1.00  0.00    -0.356 N 
HETATM   14  C   UNL     1     -44.268 -53.332  15.542  1.00  0.00     0.110 C 
HETATM   15  C   UNL     1     -44.296 -53.710  17.049  1.00  0.00     0.193 C 
HETATM   16  O   UNL     1     -43.950 -55.092  17.253  1.00  0.00    -0.388 OA
HETATM   17  C   UNL     1     -42.598 -55.319  16.827  1.00  0.00     0.187 C 
HETATM   18  C   UNL     1     -42.370 -54.949  15.354  1.00  0.00     0.151 C 
BRANCH  14  19
HETATM   19  C   UNL     1     -45.303 -54.144  14.722  1.00  0.00     0.032 C 
BRANCH  19  20
HETATM   20  C   UNL     1     -46.219 -53.249  13.886  1.00  0.00    -0.013 C 
HETATM   21  C   UNL     1     -45.653 -52.759  12.524  1.00  0.00     0.005 C 
HETATM   22  C   UNL     1     -46.441 -51.452  12.754  1.00  0.00     0.001 C 
HETATM   23  C   UNL     1     -46.338 -51.747  14.266  1.00  0.00     0.005 C 
ENDBRANCH  19  20
ENDBRANCH  14  19
ENDBRANCH   3  13
BRANCH   2  24
HETATM   24  C   UNL     1     -41.971 -48.891  11.372  1.00  0.00     0.165 C 
BRANCH  24  25
HETATM   25  C   UNL     1     -40.995 -47.706  11.502  1.00  0.00     0.165 C 
BRANCH  25  26
HETATM   26  C   UNL     1     -39.534 -48.037  11.866  1.00  0.00     0.151 C 
HETATM   27  O   UNL     1     -39.159 -49.310  11.303  1.00  0.00    -0.383 OA
HETATM   28  C   UNL     1     -38.115 -49.865  12.124  1.00  0.00     0.168 C 
HETATM   29  C   UNL     1     -37.862 -48.899  13.267  1.00  0.00     0.029 C 
HETATM   30  C   UNL     1     -39.143 -48.104  13.328  1.00  0.00     0.036 C 
ENDBRANCH  25  26
BRANCH  25  31
HETATM   31  O   UNL     1     -40.973 -47.038  10.219  1.00  0.00    -0.391 OA
HETATM   32  H   UNL     1     -41.800 -47.286   9.759  1.00  0.00     0.210 HD
ENDBRANCH  25  31
ENDBRANCH  24  25
ENDBRANCH   2  24
TORSDOF 7
ENDMDL
MODEL 5
REMARK VINA RESULT:      -6.7      2.716      7.336
REMARK  7 active torsions:
REMARK  status: ('A' for Active; 'I' for Inactive)
REMARK    1  A    between atoms: N_2  and  C_13 
REMARK    2  A    between atoms: C_3  and  N_7 
REMARK    3  A    between atoms: C_13  and  C_15 
REMARK    4  A    between atoms: C_14  and  C_17 
REMARK    5  A    between atoms: C_15  and  C_18 
REMARK    6  A    between atoms: C_15  and  O_22 
REMARK    7  A    between atoms: C_17  and  C_24 
ROOT
HETATM    1  C   UNL     1     -42.087 -51.141  14.048  1.00  0.00     0.122 A 
HETATM    2  N   UNL     1     -41.751 -49.176  13.142  1.00  0.00    -0.325 N 
HETATM    3  C   UNL     1     -42.259 -52.549  13.987  1.00  0.00     0.136 A 
HETATM    4  C   UNL     1     -41.628 -50.516  12.892  1.00  0.00     0.140 A 
HETATM    5  N   UNL     1     -42.350 -50.191  15.020  1.00  0.00    -0.346 N 
ATOM      6  HN  UNL     1     -42.671 -50.356  15.974  1.00  0.00     0.167 HD
HETATM    7  C   UNL     1     -42.098 -49.029  14.453  1.00  0.00     0.185 C 
HETATM    8  N   UNL     1     -41.846 -53.152  12.827  1.00  0.00    -0.337 N 
ATOM      9  HN  UNL     1     -41.912 -54.166  12.732  1.00  0.00     0.168 HD
HETATM   10  N   UNL     1     -41.245 -51.085  11.740  1.00  0.00    -0.336 N 
ATOM     11  HN  UNL     1     -40.917 -50.572  10.922  1.00  0.00     0.168 HD
HETATM   12  C   UNL     1     -41.352 -52.418  11.812  1.00  0.00     0.183 A 
ENDROOT
BRANCH   3  13
HETATM   13  N   UNL     1     -42.795 -53.359  14.980  1.00  0.00    -0.356 N 
HETATM   14  C   UNL     1     -44.205 -53.270  15.434  1.00  0.00     0.110 C 
HETATM   15  C   UNL     1     -44.217 -53.756  16.910  1.00  0.00     0.193 C 
HETATM   16  O   UNL     1     -43.734 -55.107  17.024  1.00  0.00    -0.388 OA
HETATM   17  C   UNL     1     -42.359 -55.166  16.613  1.00  0.00     0.187 C 
HETATM   18  C   UNL     1     -42.149 -54.670  15.176  1.00  0.00     0.151 C 
BRANCH  14  19
HETATM   19  C   UNL     1     -45.139 -54.121  14.537  1.00  0.00     0.032 C 
BRANCH  19  20
HETATM   20  C   UNL     1     -46.150 -53.268  13.770  1.00  0.00    -0.013 C 
HETATM   21  C   UNL     1     -45.670 -52.676  12.415  1.00  0.00     0.005 C 
HETATM   22  C   UNL     1     -46.551 -51.447  12.727  1.00  0.00     0.001 C 
HETATM   23  C   UNL     1     -46.374 -51.798  14.220  1.00  0.00     0.005 C 
ENDBRANCH  19  20
ENDBRANCH  14  19
ENDBRANCH   3  13
BRANCH   2  24
HETATM   24  C   UNL     1     -41.673 -48.121  12.154  1.00  0.00     0.165 C 
BRANCH  24  25
HETATM   25  C   UNL     1     -42.534 -48.331  10.893  1.00  0.00     0.165 C 
BRANCH  25  26
HETATM   26  C   UNL     1     -43.454 -47.169  10.471  1.00  0.00     0.151 C 
HETATM   27  O   UNL     1     -44.691 -47.683   9.938  1.00  0.00    -0.383 OA
HETATM   28  C   UNL     1     -45.217 -46.705   9.022  1.00  0.00     0.168 C 
HETATM   29  C   UNL     1     -44.235 -45.549   8.966  1.00  0.00     0.029 C 
HETATM   30  C   UNL     1     -42.949 -46.173   9.447  1.00  0.00     0.036 C 
ENDBRANCH  25  26
BRANCH  25  31
HETATM   31  O   UNL     1     -41.621 -48.571   9.797  1.00  0.00    -0.391 OA
HETATM   32  H   UNL     1     -41.885 -49.422   9.393  1.00  0.00     0.210 HD
ENDBRANCH  25  31
ENDBRANCH  24  25
ENDBRANCH   2  24
TORSDOF 7
ENDMDL
MODEL 6
REMARK VINA RESULT:      -6.7      1.236      2.124
REMARK  7 active torsions:
REMARK  status: ('A' for Active; 'I' for Inactive)
REMARK    1  A    between atoms: N_2  and  C_13 
REMARK    2  A    between atoms: C_3  and  N_7 
REMARK    3  A    between atoms: C_13  and  C_15 
REMARK    4  A    between atoms: C_14  and  C_17 
REMARK    5  A    between atoms: C_15  and  C_18 
REMARK    6  A    between atoms: C_15  and  O_22 
REMARK    7  A    between atoms: C_17  and  C_24 
ROOT
HETATM    1  C   UNL     1     -40.904 -48.995  12.159  1.00  0.00     0.122 A 
HETATM    2  N   UNL     1     -40.566 -51.157  12.060  1.00  0.00    -0.325 N 
HETATM    3  C   UNL     1     -41.736 -47.846  12.198  1.00  0.00     0.136 A 
HETATM    4  C   UNL     1     -41.526 -50.226  12.351  1.00  0.00     0.140 A 
HETATM    5  N   UNL     1     -39.559 -49.188  11.893  1.00  0.00    -0.346 N 
ATOM      6  HN  UNL     1     -38.851 -48.470  11.738  1.00  0.00     0.167 HD
HETATM    7  C   UNL     1     -39.387 -50.494  11.882  1.00  0.00     0.185 C 
HETATM    8  N   UNL     1     -43.048 -48.068  12.533  1.00  0.00    -0.337 N 
ATOM      9  HN  UNL     1     -43.691 -47.280  12.610  1.00  0.00     0.168 HD
HETATM   10  N   UNL     1     -42.810 -50.465  12.652  1.00  0.00    -0.336 N 
ATOM     11  HN  UNL     1     -43.212 -51.394  12.779  1.00  0.00     0.168 HD
HETATM   12  C   UNL     1     -43.494 -49.318  12.761  1.00  0.00     0.183 A 
ENDROOT
BRANCH   3  13
HETATM   13  N   UNL     1     -41.350 -46.538  11.937  1.00  0.00    -0.356 N 
HETATM   14  C   UNL     1     -41.323 -45.951  10.574  1.00  0.00     0.110 C 
HETATM   15  C   UNL     1     -40.236 -44.840  10.603  1.00  0.00     0.193 C 
HETATM   16  O   UNL     1     -40.541 -43.829  11.581  1.00  0.00    -0.388 OA
HETATM   17  C   UNL     1     -40.529 -44.409  12.895  1.00  0.00     0.187 C 
HETATM   18  C   UNL     1     -41.520 -45.572  13.038  1.00  0.00     0.151 C 
BRANCH  14  19
HETATM   19  C   UNL     1     -42.712 -45.392  10.175  1.00  0.00     0.032 C 
BRANCH  19  20
HETATM   20  C   UNL     1     -43.323 -46.137   8.987  1.00  0.00    -0.013 C 
HETATM   21  C   UNL     1     -44.857 -46.384   9.041  1.00  0.00     0.005 C 
HETATM   22  C   UNL     1     -44.591 -47.717   8.309  1.00  0.00     0.001 C 
HETATM   23  C   UNL     1     -43.175 -47.682   8.925  1.00  0.00     0.005 C 
ENDBRANCH  19  20
ENDBRANCH  14  19
ENDBRANCH   3  13
BRANCH   2  24
HETATM   24  C   UNL     1     -40.797 -52.567  11.837  1.00  0.00     0.165 C 
BRANCH  24  25
HETATM   25  C   UNL     1     -40.880 -53.434  13.110  1.00  0.00     0.165 C 
BRANCH  25  26
HETATM   26  C   UNL     1     -42.172 -54.246  13.322  1.00  0.00     0.151 C 
HETATM   27  O   UNL     1     -43.291 -53.567  12.717  1.00  0.00    -0.383 OA
HETATM   28  C   UNL     1     -44.481 -53.959  13.425  1.00  0.00     0.168 C 
HETATM   29  C   UNL     1     -44.066 -54.899  14.542  1.00  0.00     0.029 C 
HETATM   30  C   UNL     1     -42.607 -54.570  14.737  1.00  0.00     0.036 C 
ENDBRANCH  25  26
BRANCH  25  31
HETATM   31  O   UNL     1     -39.788 -54.380  13.044  1.00  0.00    -0.391 OA
HETATM   32  H   UNL     1     -39.627 -54.558  12.095  1.00  0.00     0.210 HD
ENDBRANCH  25  31
ENDBRANCH  24  25
ENDBRANCH   2  24
TORSDOF 7
ENDMDL
MODEL 7
REMARK VINA RESULT:      -6.6      1.958      6.798
REMARK  7 active torsions:
REMARK  status: ('A' for Active; 'I' for Inactive)
REMARK    1  A    between atoms: N_2  and  C_13 
REMARK    2  A    between atoms: C_3  and  N_7 
REMARK    3  A    between atoms: C_13  and  C_15 
REMARK    4  A    between atoms: C_14  and  C_17 
REMARK    5  A    between atoms: C_15  and  C_18 
REMARK    6  A    between atoms: C_15  and  O_22 
REMARK    7  A    between atoms: C_17  and  C_24 
ROOT
HETATM    1  C   UNL     1     -41.037 -49.539  13.252  1.00  0.00     0.122 A 
HETATM    2  N   UNL     1     -40.960 -47.351  13.218  1.00  0.00    -0.325 N 
HETATM    3  C   UNL     1     -41.027 -50.815  12.629  1.00  0.00     0.136 A 
HETATM    4  C   UNL     1     -40.667 -48.454  12.462  1.00  0.00     0.140 A 
HETATM    5  N   UNL     1     -41.413 -49.096  14.509  1.00  0.00    -0.346 N 
ATOM      6  HN  UNL     1     -41.705 -49.666  15.303  1.00  0.00     0.167 HD
HETATM    7  C   UNL     1     -41.316 -47.784  14.462  1.00  0.00     0.185 C 
HETATM    8  N   UNL     1     -40.546 -50.850  11.345  1.00  0.00    -0.337 N 
ATOM      9  HN  UNL     1     -40.483 -51.742  10.853  1.00  0.00     0.168 HD
HETATM   10  N   UNL     1     -40.222 -48.465  11.198  1.00  0.00    -0.336 N 
ATOM     11  HN  UNL     1     -39.967 -47.633  10.667  1.00  0.00     0.168 HD
HETATM   12  C   UNL     1     -40.156 -49.718  10.729  1.00  0.00     0.183 A 
ENDROOT
BRANCH   3  13
HETATM   13  N   UNL     1     -41.449 -52.012  13.193  1.00  0.00    -0.356 N 
HETATM   14  C   UNL     1     -42.730 -52.163  13.927  1.00  0.00     0.110 C 
HETATM   15  C   UNL     1     -42.514 -53.319  14.943  1.00  0.00     0.193 C 
HETATM   16  O   UNL     1     -42.166 -54.547  14.279  1.00  0.00    -0.388 OA
HETATM   17  C   UNL     1     -40.908 -54.392  13.604  1.00  0.00     0.187 C 
HETATM   18  C   UNL     1     -40.922 -53.246  12.582  1.00  0.00     0.151 C 
BRANCH  14  19
HETATM   19  C   UNL     1     -43.902 -52.456  12.957  1.00  0.00     0.032 C 
BRANCH  19  20
HETATM   20  C   UNL     1     -45.147 -51.628  13.276  1.00  0.00    -0.013 C 
HETATM   21  C   UNL     1     -45.321 -51.180  14.756  1.00  0.00     0.005 C 
HETATM   22  C   UNL     1     -46.842 -51.334  14.543  1.00  0.00     0.001 C 
HETATM   23  C   UNL     1     -46.506 -52.363  13.442  1.00  0.00     0.005 C 
ENDBRANCH  19  20
ENDBRANCH  14  19
ENDBRANCH   3  13
BRANCH   2  24
HETATM   24  C   UNL     1     -41.023 -45.989  12.735  1.00  0.00     0.165 C 
BRANCH  24  25
HETATM   25  C   UNL     1     -42.359 -45.579  12.084  1.00  0.00     0.165 C 
BRANCH  25  26
HETATM   26  C   UNL     1     -42.678 -46.178  10.701  1.00  0.00     0.151 C 
HETATM   27  O   UNL     1     -43.193 -45.155   9.824  1.00  0.00    -0.383 OA
HETATM   28  C   UNL     1     -44.030 -45.796   8.843  1.00  0.00     0.168 C 
HETATM   29  C   UNL     1     -44.056 -47.281   9.156  1.00  0.00     0.029 C 
HETATM   30  C   UNL     1     -43.661 -47.328  10.611  1.00  0.00     0.036 C 
ENDBRANCH  25  26
BRANCH  25  31
HETATM   31  O   UNL     1     -43.411 -46.002  12.984  1.00  0.00    -0.391 OA
HETATM   32  H   UNL     1     -43.418 -46.981  12.966  1.00  0.00     0.210 HD
ENDBRANCH  25  31
ENDBRANCH  24  25
ENDBRANCH   2  24
TORSDOF 7
ENDMDL
MODEL 8
REMARK VINA RESULT:      -6.6      2.356      7.357
REMARK  7 active torsions:
REMARK  status: ('A' for Active; 'I' for Inactive)
REMARK    1  A    between atoms: N_2  and  C_13 
REMARK    2  A    between atoms: C_3  and  N_7 
REMARK    3  A    between atoms: C_13  and  C_15 
REMARK    4  A    between atoms: C_14  and  C_17 
REMARK    5  A    between atoms: C_15  and  C_18 
REMARK    6  A    between atoms: C_15  and  O_22 
REMARK    7  A    between atoms: C_17  and  C_24 
ROOT
HETATM    1  C   UNL     1     -41.753 -51.695  14.553  1.00  0.00     0.122 A 
HETATM    2  N   UNL     1     -40.882 -49.996  13.481  1.00  0.00    -0.325 N 
HETATM    3  C   UNL     1     -42.171 -53.048  14.652  1.00  0.00     0.136 A 
HETATM    4  C   UNL     1     -40.965 -51.361  13.454  1.00  0.00     0.140 A 
HETATM    5  N   UNL     1     -42.019 -50.559  15.299  1.00  0.00    -0.346 N 
ATOM      6  HN  UNL     1     -42.547 -50.502  16.170  1.00  0.00     0.167 HD
HETATM    7  C   UNL     1     -41.447 -49.568  14.647  1.00  0.00     0.185 C 
HETATM    8  N   UNL     1     -41.657 -53.903  13.710  1.00  0.00    -0.337 N 
ATOM      9  HN  UNL     1     -41.893 -54.895  13.745  1.00  0.00     0.168 HD
HETATM   10  N   UNL     1     -40.477 -52.177  12.509  1.00  0.00    -0.336 N 
ATOM     11  HN  UNL     1     -39.904 -51.873  11.722  1.00  0.00     0.168 HD
HETATM   12  C   UNL     1     -40.844 -53.444  12.740  1.00  0.00     0.183 A 
ENDROOT
BRANCH   3  13
HETATM   13  N   UNL     1     -43.034 -53.578  15.601  1.00  0.00    -0.356 N 
HETATM   14  C   UNL     1     -44.472 -53.220  15.690  1.00  0.00     0.110 C 
HETATM   15  C   UNL     1     -44.877 -53.413  17.178  1.00  0.00     0.193 C 
HETATM   16  O   UNL     1     -44.668 -54.770  17.609  1.00  0.00    -0.388 OA
HETATM   17  C   UNL     1     -43.269 -55.086  17.550  1.00  0.00     0.187 C 
HETATM   18  C   UNL     1     -42.679 -54.902  16.144  1.00  0.00     0.151 C 
BRANCH  14  19
HETATM   19  C   UNL     1     -45.328 -54.093  14.738  1.00  0.00     0.032 C 
BRANCH  19  20
HETATM   20  C   UNL     1     -46.205 -53.257  13.806  1.00  0.00    -0.013 C 
HETATM   21  C   UNL     1     -45.525 -52.719  12.514  1.00  0.00     0.005 C 
HETATM   22  C   UNL     1     -46.421 -51.469  12.655  1.00  0.00     0.001 C 
HETATM   23  C   UNL     1     -46.467 -51.769  14.169  1.00  0.00     0.005 C 
ENDBRANCH  19  20
ENDBRANCH  14  19
ENDBRANCH   3  13
BRANCH   2  24
HETATM   24  C   UNL     1     -40.414 -49.157  12.399  1.00  0.00     0.165 C 
BRANCH  24  25
HETATM   25  C   UNL     1     -41.288 -49.165  11.129  1.00  0.00     0.165 C 
BRANCH  25  26
HETATM   26  C   UNL     1     -41.691 -47.797  10.546  1.00  0.00     0.151 C 
HETATM   27  O   UNL     1     -40.582 -46.879  10.622  1.00  0.00    -0.383 OA
HETATM   28  C   UNL     1     -41.118 -45.544  10.683  1.00  0.00     0.168 C 
HETATM   29  C   UNL     1     -42.632 -45.653  10.676  1.00  0.00     0.029 C 
HETATM   30  C   UNL     1     -42.872 -47.065  11.150  1.00  0.00     0.036 C 
ENDBRANCH  25  26
BRANCH  25  31
HETATM   31  O   UNL     1     -40.535 -49.859  10.107  1.00  0.00    -0.391 OA
HETATM   32  H   UNL     1     -41.188 -50.210   9.468  1.00  0.00     0.210 HD
ENDBRANCH  25  31
ENDBRANCH  24  25
ENDBRANCH   2  24
TORSDOF 7
ENDMDL
MODEL 9
REMARK VINA RESULT:      -6.4      1.589      3.314
REMARK  7 active torsions:
REMARK  status: ('A' for Active; 'I' for Inactive)
REMARK    1  A    between atoms: N_2  and  C_13 
REMARK    2  A    between atoms: C_3  and  N_7 
REMARK    3  A    between atoms: C_13  and  C_15 
REMARK    4  A    between atoms: C_14  and  C_17 
REMARK    5  A    between atoms: C_15  and  C_18 
REMARK    6  A    between atoms: C_15  and  O_22 
REMARK    7  A    between atoms: C_17  and  C_24 
ROOT
HETATM    1  C   UNL     1     -40.615 -49.332  12.660  1.00  0.00     0.122 A 
HETATM    2  N   UNL     1     -40.707 -51.382  13.424  1.00  0.00    -0.325 N 
HETATM    3  C   UNL     1     -39.945 -48.237  12.052  1.00  0.00     0.136 A 
HETATM    4  C   UNL     1     -39.976 -50.567  12.602  1.00  0.00     0.140 A 
HETATM    5  N   UNL     1     -41.785 -49.444  13.392  1.00  0.00    -0.346 N 
ATOM      6  HN  UNL     1     -42.470 -48.712  13.578  1.00  0.00     0.167 HD
HETATM    7  C   UNL     1     -41.825 -50.696  13.799  1.00  0.00     0.185 C 
HETATM    8  N   UNL     1     -38.792 -48.543  11.376  1.00  0.00    -0.337 N 
ATOM      9  HN  UNL     1     -38.279 -47.806  10.890  1.00  0.00     0.168 HD
HETATM   10  N   UNL     1     -38.835 -50.880  11.972  1.00  0.00    -0.336 N 
ATOM     11  HN  UNL     1     -38.411 -51.807  11.966  1.00  0.00     0.168 HD
HETATM   12  C   UNL     1     -38.328 -49.807  11.349  1.00  0.00     0.183 A 
ENDROOT
BRANCH   3  13
HETATM   13  N   UNL     1     -40.347 -46.908  12.074  1.00  0.00    -0.356 N 
HETATM   14  C   UNL     1     -40.532 -46.132  13.325  1.00  0.00     0.110 C 
HETATM   15  C   UNL     1     -41.597 -45.045  13.007  1.00  0.00     0.193 C 
HETATM   16  O   UNL     1     -41.167 -44.183  11.938  1.00  0.00    -0.388 OA
HETATM   17  C   UNL     1     -41.027 -44.945  10.729  1.00  0.00     0.187 C 
HETATM   18  C   UNL     1     -40.036 -46.109  10.875  1.00  0.00     0.151 C 
BRANCH  14  19
HETATM   19  C   UNL     1     -39.196 -45.511  13.805  1.00  0.00     0.032 C 
BRANCH  19  20
HETATM   20  C   UNL     1     -38.574 -46.287  14.966  1.00  0.00    -0.013 C 
HETATM   21  C   UNL     1     -37.542 -47.388  14.589  1.00  0.00     0.005 C 
HETATM   22  C   UNL     1     -38.069 -48.188  15.799  1.00  0.00     0.001 C 
HETATM   23  C   UNL     1     -39.400 -47.426  15.625  1.00  0.00     0.005 C 
ENDBRANCH  19  20
ENDBRANCH  14  19
ENDBRANCH   3  13
BRANCH   2  24
HETATM   24  C   UNL     1     -40.290 -52.676  13.919  1.00  0.00     0.165 C 
BRANCH  24  25
HETATM   25  C   UNL     1     -40.703 -53.881  13.050  1.00  0.00     0.165 C 
BRANCH  25  26
HETATM   26  C   UNL     1     -42.127 -54.434  13.249  1.00  0.00     0.151 C 
HETATM   27  O   UNL     1     -43.082 -53.615  12.545  1.00  0.00    -0.383 OA
HETATM   28  C   UNL     1     -44.349 -53.738  13.217  1.00  0.00     0.168 C 
HETATM   29  C   UNL     1     -44.152 -54.652  14.412  1.00  0.00     0.029 C 
HETATM   30  C   UNL     1     -42.666 -54.572  14.659  1.00  0.00     0.036 C 
ENDBRANCH  25  26
BRANCH  25  31
HETATM   31  O   UNL     1     -40.600 -53.457  11.670  1.00  0.00    -0.391 OA
HETATM   32  H   UNL     1     -41.506 -53.227  11.379  1.00  0.00     0.210 HD
ENDBRANCH  25  31
ENDBRANCH  24  25
ENDBRANCH   2  24
TORSDOF 7
ENDMDL
