MODEL 1
REMARK VINA RESULT:      -5.1      0.000      0.000
REMARK  6 active torsions:
REMARK  status: ('A' for Active; 'I' for Inactive)
REMARK    1  A    between atoms: O_2  and  C_3 
REMARK    2  A    between atoms: C_3  and  C_4 
REMARK    3  A    between atoms: C_4  and  O_5 
REMARK    4  A    between atoms: O_5  and  C_6 
REMARK    5  A    between atoms: C_12  and  N_13 
REMARK    6  A    between atoms: N_13  and  C_14 
ROOT
HETATM    1  C   UNL     1     -40.652 -49.313  11.286  1.00  0.00     0.169 A 
HETATM    2  N   UNL     1     -39.386 -48.821  11.194  1.00  0.00    -0.345 N 
ATOM      3  HN  UNL     1     -39.204 -47.929  10.734  1.00  0.00     0.167 HD
HETATM    4  C   UNL     1     -38.381 -49.539  11.723  1.00  0.00     0.090 A 
HETATM    5  C   UNL     1     -38.572 -50.732  12.383  1.00  0.00     0.019 A 
HETATM    6  C   UNL     1     -39.869 -51.233  12.465  1.00  0.00     0.035 A 
HETATM    7  C   UNL     1     -40.959 -50.566  11.869  1.00  0.00     0.080 A 
ENDROOT
BRANCH   7   8
HETATM    8  N   UNL     1     -42.209 -51.184  12.022  1.00  0.00    -0.382 N 
HETATM    9  H   UNL     1     -42.921 -50.777  11.422  1.00  0.00     0.160 HD
BRANCH   8  10
HETATM   10  C   UNL     1     -42.717 -51.720  13.285  1.00  0.00     0.083 C 
HETATM   11  C   UNL     1     -42.921 -53.244  13.152  1.00  0.00     0.035 C 
HETATM   12  C   UNL     1     -44.226 -53.721  12.532  1.00  0.00     0.076 C 
HETATM   13  S   UNL     1     -45.664 -53.052  13.396  1.00  0.00    -0.169 SA
HETATM   14  C   UNL     1     -45.280 -51.303  13.153  1.00  0.00     0.076 C 
HETATM   15  C   UNL     1     -43.945 -50.937  13.778  1.00  0.00     0.035 C 
ENDBRANCH   8  10
ENDBRANCH   7   8
BRANCH   1  16
HETATM   16  O   UNL     1     -41.659 -48.490  10.813  1.00  0.00    -0.332 OA
BRANCH  16  17
HETATM   17  C   UNL     1     -41.294 -47.109  10.694  1.00  0.00     0.203 C 
BRANCH  17  18
HETATM   18  C   UNL     1     -42.515 -46.187  10.587  1.00  0.00     0.193 C 
BRANCH  18  19
HETATM   19  O   UNL     1     -42.686 -45.682   9.260  1.00  0.00    -0.394 OA
HETATM   20  C   UNL     1     -43.544 -46.512   8.487  1.00  0.00     0.201 C 
ENDBRANCH  18  19
ENDBRANCH  17  18
ENDBRANCH  16  17
ENDBRANCH   1  16
TORSDOF 6
ENDMDL
MODEL 2
REMARK VINA RESULT:      -5.0      2.713      4.867
REMARK  6 active torsions:
REMARK  status: ('A' for Active; 'I' for Inactive)
REMARK    1  A    between atoms: O_2  and  C_3 
REMARK    2  A    between atoms: C_3  and  C_4 
REMARK    3  A    between atoms: C_4  and  O_5 
REMARK    4  A    between atoms: O_5  and  C_6 
REMARK    5  A    between atoms: C_12  and  N_13 
REMARK    6  A    between atoms: N_13  and  C_14 
ROOT
HETATM    1  C   UNL     1     -42.693 -45.897   9.757  1.00  0.00     0.169 A 
HETATM    2  N   UNL     1     -43.751 -45.096   9.449  1.00  0.00    -0.345 N 
ATOM      3  HN  UNL     1     -43.680 -44.082   9.534  1.00  0.00     0.167 HD
HETATM    4  C   UNL     1     -44.889 -45.675   9.032  1.00  0.00     0.090 A 
HETATM    5  C   UNL     1     -45.030 -47.034   8.868  1.00  0.00     0.019 A 
HETATM    6  C   UNL     1     -43.946 -47.846   9.195  1.00  0.00     0.035 A 
HETATM    7  C   UNL     1     -42.747 -47.311   9.707  1.00  0.00     0.080 A 
ENDROOT
BRANCH   7   8
HETATM    8  N   UNL     1     -41.739 -48.242   9.999  1.00  0.00    -0.382 N 
HETATM    9  H   UNL     1     -41.863 -49.119   9.499  1.00  0.00     0.160 HD
BRANCH   8  10
HETATM   10  C   UNL     1     -41.090 -48.375  11.302  1.00  0.00     0.083 C 
HETATM   11  C   UNL     1     -40.296 -49.697  11.350  1.00  0.00     0.035 C 
HETATM   12  C   UNL     1     -41.065 -50.960  11.708  1.00  0.00     0.076 C 
HETATM   13  S   UNL     1     -41.937 -50.792  13.281  1.00  0.00    -0.169 SA
HETATM   14  C   UNL     1     -42.949 -49.365  12.827  1.00  0.00     0.076 C 
HETATM   15  C   UNL     1     -42.088 -48.171  12.455  1.00  0.00     0.035 C 
ENDBRANCH   8  10
ENDBRANCH   7   8
BRANCH   1  16
HETATM   16  O   UNL     1     -41.516 -45.248  10.087  1.00  0.00    -0.332 OA
BRANCH  16  17
HETATM   17  C   UNL     1     -41.532 -44.596  11.363  1.00  0.00     0.203 C 
BRANCH  17  18
HETATM   18  C   UNL     1     -41.307 -43.083  11.251  1.00  0.00     0.193 C 
BRANCH  18  19
HETATM   19  O   UNL     1     -42.345 -42.444  10.504  1.00  0.00    -0.394 OA
HETATM   20  C   UNL     1     -43.414 -42.022  11.342  1.00  0.00     0.201 C 
ENDBRANCH  18  19
ENDBRANCH  17  18
ENDBRANCH  16  17
ENDBRANCH   1  16
TORSDOF 6
ENDMDL
MODEL 3
REMARK VINA RESULT:      -5.0      3.475      5.593
REMARK  6 active torsions:
REMARK  status: ('A' for Active; 'I' for Inactive)
REMARK    1  A    between atoms: O_2  and  C_3 
REMARK    2  A    between atoms: C_3  and  C_4 
REMARK    3  A    between atoms: C_4  and  O_5 
REMARK    4  A    between atoms: O_5  and  C_6 
REMARK    5  A    between atoms: C_12  and  N_13 
REMARK    6  A    between atoms: N_13  and  C_14 
ROOT
HETATM    1  C   UNL     1     -42.590 -45.744   9.869  1.00  0.00     0.169 A 
HETATM    2  N   UNL     1     -43.674 -44.999   9.517  1.00  0.00    -0.345 N 
ATOM      3  HN  UNL     1     -43.659 -43.982   9.600  1.00  0.00     0.167 HD
HETATM    4  C   UNL     1     -44.765 -45.636   9.059  1.00  0.00     0.090 A 
HETATM    5  C   UNL     1     -44.829 -47.001   8.895  1.00  0.00     0.019 A 
HETATM    6  C   UNL     1     -43.718 -47.756   9.267  1.00  0.00     0.035 A 
HETATM    7  C   UNL     1     -42.569 -47.159   9.822  1.00  0.00     0.080 A 
ENDROOT
BRANCH   7   8
HETATM    8  N   UNL     1     -41.527 -48.036  10.157  1.00  0.00    -0.382 N 
HETATM    9  H   UNL     1     -41.127 -48.494   9.342  1.00  0.00     0.160 HD
BRANCH   8  10
HETATM   10  C   UNL     1     -41.478 -48.831  11.383  1.00  0.00     0.083 C 
HETATM   11  C   UNL     1     -41.385 -47.890  12.603  1.00  0.00     0.035 C 
HETATM   12  C   UNL     1     -40.004 -47.381  12.988  1.00  0.00     0.076 C 
HETATM   13  S   UNL     1     -38.840 -48.736  13.255  1.00  0.00    -0.169 SA
HETATM   14  C   UNL     1     -38.968 -49.473  11.610  1.00  0.00     0.076 C 
HETATM   15  C   UNL     1     -40.390 -49.916  11.312  1.00  0.00     0.035 C 
ENDBRANCH   8  10
ENDBRANCH   7   8
BRANCH   1  16
HETATM   16  O   UNL     1     -41.462 -45.034  10.241  1.00  0.00    -0.332 OA
BRANCH  16  17
HETATM   17  C   UNL     1     -41.587 -44.319  11.477  1.00  0.00     0.203 C 
BRANCH  17  18
HETATM   18  C   UNL     1     -41.373 -42.810  11.305  1.00  0.00     0.193 C 
BRANCH  18  19
HETATM   19  O   UNL     1     -42.411 -42.209  10.528  1.00  0.00    -0.394 OA
HETATM   20  C   UNL     1     -43.533 -41.858  11.329  1.00  0.00     0.201 C 
ENDBRANCH  18  19
ENDBRANCH  17  18
ENDBRANCH  16  17
ENDBRANCH   1  16
TORSDOF 6
ENDMDL
MODEL 4
REMARK VINA RESULT:      -4.9      3.372      5.793
REMARK  6 active torsions:
REMARK  status: ('A' for Active; 'I' for Inactive)
REMARK    1  A    between atoms: O_2  and  C_3 
REMARK    2  A    between atoms: C_3  and  C_4 
REMARK    3  A    between atoms: C_4  and  O_5 
REMARK    4  A    between atoms: O_5  and  C_6 
REMARK    5  A    between atoms: C_12  and  N_13 
REMARK    6  A    between atoms: N_13  and  C_14 
ROOT
HETATM    1  C   UNL     1     -40.940 -52.788  12.816  1.00  0.00     0.169 A 
HETATM    2  N   UNL     1     -41.138 -53.972  13.459  1.00  0.00    -0.345 N 
ATOM      3  HN  UNL     1     -40.351 -54.575  13.697  1.00  0.00     0.167 HD
HETATM    4  C   UNL     1     -42.396 -54.326  13.772  1.00  0.00     0.090 A 
HETATM    5  C   UNL     1     -43.491 -53.536  13.505  1.00  0.00     0.019 A 
HETATM    6  C   UNL     1     -43.280 -52.332  12.838  1.00  0.00     0.035 A 
HETATM    7  C   UNL     1     -41.996 -51.933  12.416  1.00  0.00     0.080 A 
ENDROOT
BRANCH   7   8
HETATM    8  N   UNL     1     -41.927 -50.700  11.751  1.00  0.00    -0.382 N 
HETATM    9  H   UNL     1     -41.264 -50.710  10.981  1.00  0.00     0.160 HD
BRANCH   8  10
HETATM   10  C   UNL     1     -42.078 -49.400  12.403  1.00  0.00     0.083 C 
HETATM   11  C   UNL     1     -42.853 -48.444  11.473  1.00  0.00     0.035 C 
HETATM   12  C   UNL     1     -42.055 -47.711  10.404  1.00  0.00     0.076 C 
HETATM   13  S   UNL     1     -40.677 -46.783  11.113  1.00  0.00    -0.169 SA
HETATM   14  C   UNL     1     -39.838 -48.182  11.890  1.00  0.00     0.076 C 
HETATM   15  C   UNL     1     -40.730 -48.863  12.914  1.00  0.00     0.035 C 
ENDBRANCH   8  10
ENDBRANCH   7   8
BRANCH   1  16
HETATM   16  O   UNL     1     -39.621 -52.426  12.605  1.00  0.00    -0.332 OA
BRANCH  16  17
HETATM   17  C   UNL     1     -38.917 -52.022  13.786  1.00  0.00     0.203 C 
BRANCH  17  18
HETATM   18  C   UNL     1     -37.756 -51.069  13.479  1.00  0.00     0.193 C 
BRANCH  18  19
HETATM   19  O   UNL     1     -37.005 -51.492  12.338  1.00  0.00    -0.394 OA
HETATM   20  C   UNL     1     -37.108 -50.563  11.266  1.00  0.00     0.201 C 
ENDBRANCH  18  19
ENDBRANCH  17  18
ENDBRANCH  16  17
ENDBRANCH   1  16
TORSDOF 6
ENDMDL
MODEL 5
REMARK VINA RESULT:      -4.9      1.504      2.089
REMARK  6 active torsions:
REMARK  status: ('A' for Active; 'I' for Inactive)
REMARK    1  A    between atoms: O_2  and  C_3 
REMARK    2  A    between atoms: C_3  and  C_4 
REMARK    3  A    between atoms: C_4  and  O_5 
REMARK    4  A    between atoms: O_5  and  C_6 
REMARK    5  A    between atoms: C_12  and  N_13 
REMARK    6  A    between atoms: N_13  and  C_14 
ROOT
HETATM    1  C   UNL     1     -39.944 -50.125  11.482  1.00  0.00     0.169 A 
HETATM    2  N   UNL     1     -38.820 -49.584  10.934  1.00  0.00    -0.345 N 
ATOM      3  HN  UNL     1     -38.883 -48.932  10.152  1.00  0.00     0.167 HD
HETATM    4  C   UNL     1     -37.629 -49.930  11.449  1.00  0.00     0.090 A 
HETATM    5  C   UNL     1     -37.489 -50.778  12.525  1.00  0.00     0.019 A 
HETATM    6  C   UNL     1     -38.642 -51.334  13.073  1.00  0.00     0.035 A 
HETATM    7  C   UNL     1     -39.919 -51.070  12.536  1.00  0.00     0.080 A 
ENDROOT
BRANCH   7   8
HETATM    8  N   UNL     1     -40.993 -51.700  13.181  1.00  0.00    -0.382 N 
HETATM    9  H   UNL     1     -40.902 -51.686  14.193  1.00  0.00     0.160 HD
BRANCH   8  10
HETATM   10  C   UNL     1     -41.708 -52.862  12.653  1.00  0.00     0.083 C 
HETATM   11  C   UNL     1     -43.227 -52.596  12.699  1.00  0.00     0.035 C 
HETATM   12  C   UNL     1     -43.944 -52.869  14.014  1.00  0.00     0.076 C 
HETATM   13  S   UNL     1     -43.668 -54.558  14.590  1.00  0.00    -0.169 SA
HETATM   14  C   UNL     1     -41.866 -54.473  14.689  1.00  0.00     0.076 C 
HETATM   15  C   UNL     1     -41.252 -54.163  13.334  1.00  0.00     0.035 C 
ENDBRANCH   8  10
ENDBRANCH   7   8
BRANCH   1  16
HETATM   16  O   UNL     1     -41.147 -49.661  10.981  1.00  0.00    -0.332 OA
BRANCH  16  17
HETATM   17  C   UNL     1     -41.259 -48.233  10.922  1.00  0.00     0.203 C 
BRANCH  17  18
HETATM   18  C   UNL     1     -42.646 -47.772  10.458  1.00  0.00     0.193 C 
BRANCH  18  19
HETATM   19  O   UNL     1     -42.794 -47.873   9.039  1.00  0.00    -0.394 OA
HETATM   20  C   UNL     1     -44.085 -47.454   8.613  1.00  0.00     0.201 C 
ENDBRANCH  18  19
ENDBRANCH  17  18
ENDBRANCH  16  17
ENDBRANCH   1  16
TORSDOF 6
ENDMDL
MODEL 6
REMARK VINA RESULT:      -4.9      2.878      4.922
REMARK  6 active torsions:
REMARK  status: ('A' for Active; 'I' for Inactive)
REMARK    1  A    between atoms: O_2  and  C_3 
REMARK    2  A    between atoms: C_3  and  C_4 
REMARK    3  A    between atoms: C_4  and  O_5 
REMARK    4  A    between atoms: O_5  and  C_6 
REMARK    5  A    between atoms: C_12  and  N_13 
REMARK    6  A    between atoms: N_13  and  C_14 
ROOT
HETATM    1  C   UNL     1     -41.601 -51.385  12.048  1.00  0.00     0.169 A 
HETATM    2  N   UNL     1     -40.726 -50.724  11.241  1.00  0.00    -0.345 N 
ATOM      3  HN  UNL     1     -39.990 -51.228  10.746  1.00  0.00     0.167 HD
HETATM    4  C   UNL     1     -40.855 -49.393  11.113  1.00  0.00     0.090 A 
HETATM    5  C   UNL     1     -41.849 -48.668  11.730  1.00  0.00     0.019 A 
HETATM    6  C   UNL     1     -42.734 -49.350  12.561  1.00  0.00     0.035 A 
HETATM    7  C   UNL     1     -42.612 -50.734  12.797  1.00  0.00     0.080 A 
ENDROOT
BRANCH   7   8
HETATM    8  N   UNL     1     -43.566 -51.293  13.660  1.00  0.00    -0.382 N 
HETATM    9  H   UNL     1     -43.150 -51.902  14.359  1.00  0.00     0.160 HD
BRANCH   8  10
HETATM   10  C   UNL     1     -44.922 -51.669  13.260  1.00  0.00     0.083 C 
HETATM   11  C   UNL     1     -45.886 -51.459  14.447  1.00  0.00     0.035 C 
HETATM   12  C   UNL     1     -45.979 -52.577  15.475  1.00  0.00     0.076 C 
HETATM   13  S   UNL     1     -46.393 -54.160  14.709  1.00  0.00    -0.169 SA
HETATM   14  C   UNL     1     -44.977 -54.248  13.590  1.00  0.00     0.076 C 
HETATM   15  C   UNL     1     -44.958 -53.071  12.629  1.00  0.00     0.035 C 
ENDBRANCH   8  10
ENDBRANCH   7   8
BRANCH   1  16
HETATM   16  O   UNL     1     -41.486 -52.763  12.068  1.00  0.00    -0.332 OA
BRANCH  16  17
HETATM   17  C   UNL     1     -40.590 -53.273  13.065  1.00  0.00     0.203 C 
BRANCH  17  18
HETATM   18  C   UNL     1     -41.304 -54.151  14.100  1.00  0.00     0.193 C 
BRANCH  18  19
HETATM   19  O   UNL     1     -41.871 -53.373  15.158  1.00  0.00    -0.394 OA
HETATM   20  C   UNL     1     -40.902 -52.533  15.772  1.00  0.00     0.201 C 
ENDBRANCH  18  19
ENDBRANCH  17  18
ENDBRANCH  16  17
ENDBRANCH   1  16
TORSDOF 6
ENDMDL
MODEL 7
REMARK VINA RESULT:      -4.8      2.166      4.412
REMARK  6 active torsions:
REMARK  status: ('A' for Active; 'I' for Inactive)
REMARK    1  A    between atoms: O_2  and  C_3 
REMARK    2  A    between atoms: C_3  and  C_4 
REMARK    3  A    between atoms: C_4  and  O_5 
REMARK    4  A    between atoms: O_5  and  C_6 
REMARK    5  A    between atoms: C_12  and  N_13 
REMARK    6  A    between atoms: N_13  and  C_14 
ROOT
HETATM    1  C   UNL     1     -40.968 -49.028  11.134  1.00  0.00     0.169 A 
HETATM    2  N   UNL     1     -41.050 -47.884  10.399  1.00  0.00    -0.345 N 
ATOM      3  HN  UNL     1     -40.279 -47.593   9.798  1.00  0.00     0.167 HD
HETATM    4  C   UNL     1     -42.170 -47.148  10.487  1.00  0.00     0.090 A 
HETATM    5  C   UNL     1     -43.253 -47.510  11.256  1.00  0.00     0.019 A 
HETATM    6  C   UNL     1     -43.157 -48.676  12.012  1.00  0.00     0.035 A 
HETATM    7  C   UNL     1     -41.983 -49.457  12.023  1.00  0.00     0.080 A 
ENDROOT
BRANCH   7   8
HETATM    8  N   UNL     1     -42.020 -50.602  12.832  1.00  0.00    -0.382 N 
HETATM    9  H   UNL     1     -41.390 -50.538  13.626  1.00  0.00     0.160 HD
BRANCH   8  10
HETATM   10  C   UNL     1     -42.227 -51.960  12.331  1.00  0.00     0.083 C 
HETATM   11  C   UNL     1     -43.536 -52.531  12.918  1.00  0.00     0.035 C 
HETATM   12  C   UNL     1     -43.466 -53.152  14.305  1.00  0.00     0.076 C 
HETATM   13  S   UNL     1     -42.215 -54.453  14.396  1.00  0.00    -0.169 SA
HETATM   14  C   UNL     1     -40.797 -53.436  13.925  1.00  0.00     0.076 C 
HETATM   15  C   UNL     1     -40.981 -52.837  12.542  1.00  0.00     0.035 C 
ENDBRANCH   8  10
ENDBRANCH   7   8
BRANCH   1  16
HETATM   16  O   UNL     1     -39.836 -49.798  10.933  1.00  0.00    -0.332 OA
BRANCH  16  17
HETATM   17  C   UNL     1     -38.705 -49.415  11.727  1.00  0.00     0.203 C 
BRANCH  17  18
HETATM   18  C   UNL     1     -37.418 -50.131  11.297  1.00  0.00     0.193 C 
BRANCH  18  19
HETATM   19  O   UNL     1     -37.155 -51.283  12.102  1.00  0.00    -0.394 OA
HETATM   20  C   UNL     1     -37.735 -51.166  13.395  1.00  0.00     0.201 C 
ENDBRANCH  18  19
ENDBRANCH  17  18
ENDBRANCH  16  17
ENDBRANCH   1  16
TORSDOF 6
ENDMDL
MODEL 8
REMARK VINA RESULT:      -4.7      3.057      5.796
REMARK  6 active torsions:
REMARK  status: ('A' for Active; 'I' for Inactive)
REMARK    1  A    between atoms: O_2  and  C_3 
REMARK    2  A    between atoms: C_3  and  C_4 
REMARK    3  A    between atoms: C_4  and  O_5 
REMARK    4  A    between atoms: O_5  and  C_6 
REMARK    5  A    between atoms: C_12  and  N_13 
REMARK    6  A    between atoms: N_13  and  C_14 
ROOT
HETATM    1  C   UNL     1     -42.069 -49.923  12.052  1.00  0.00     0.169 A 
HETATM    2  N   UNL     1     -43.306 -49.366  12.172  1.00  0.00    -0.345 N 
ATOM      3  HN  UNL     1     -44.030 -49.818  12.730  1.00  0.00     0.167 HD
HETATM    4  C   UNL     1     -43.548 -48.206  11.538  1.00  0.00     0.090 A 
HETATM    5  C   UNL     1     -42.599 -47.536  10.801  1.00  0.00     0.019 A 
HETATM    6  C   UNL     1     -41.339 -48.118  10.675  1.00  0.00     0.035 A 
HETATM    7  C   UNL     1     -41.040 -49.368  11.254  1.00  0.00     0.080 A 
ENDROOT
BRANCH   7   8
HETATM    8  N   UNL     1     -39.736 -49.840  11.044  1.00  0.00    -0.382 N 
HETATM    9  H   UNL     1     -39.695 -50.853  10.978  1.00  0.00     0.160 HD
BRANCH   8  10
HETATM   10  C   UNL     1     -38.533 -49.221  11.601  1.00  0.00     0.083 C 
HETATM   11  C   UNL     1     -37.406 -50.271  11.687  1.00  0.00     0.035 C 
HETATM   12  C   UNL     1     -37.390 -51.179  12.908  1.00  0.00     0.076 C 
HETATM   13  S   UNL     1     -37.374 -50.234  14.447  1.00  0.00    -0.169 SA
HETATM   14  C   UNL     1     -38.911 -49.325  14.171  1.00  0.00     0.076 C 
HETATM   15  C   UNL     1     -38.835 -48.478  12.913  1.00  0.00     0.035 C 
ENDBRANCH   8  10
ENDBRANCH   7   8
BRANCH   1  16
HETATM   16  O   UNL     1     -41.842 -51.063  12.802  1.00  0.00    -0.332 OA
BRANCH  16  17
HETATM   17  C   UNL     1     -42.225 -52.286  12.161  1.00  0.00     0.203 C 
BRANCH  17  18
HETATM   18  C   UNL     1     -43.262 -53.073  12.971  1.00  0.00     0.193 C 
BRANCH  18  19
HETATM   19  O   UNL     1     -44.399 -53.428  12.181  1.00  0.00    -0.394 OA
HETATM   20  C   UNL     1     -45.557 -52.695  12.564  1.00  0.00     0.201 C 
ENDBRANCH  18  19
ENDBRANCH  17  18
ENDBRANCH  16  17
ENDBRANCH   1  16
TORSDOF 6
ENDMDL
MODEL 9
REMARK VINA RESULT:      -4.7      3.056      5.327
REMARK  6 active torsions:
REMARK  status: ('A' for Active; 'I' for Inactive)
REMARK    1  A    between atoms: O_2  and  C_3 
REMARK    2  A    between atoms: C_3  and  C_4 
REMARK    3  A    between atoms: C_4  and  O_5 
REMARK    4  A    between atoms: O_5  and  C_6 
REMARK    5  A    between atoms: C_12  and  N_13 
REMARK    6  A    between atoms: N_13  and  C_14 
ROOT
HETATM    1  C   UNL     1     -40.447 -51.682  12.276  1.00  0.00     0.169 A 
HETATM    2  N   UNL     1     -39.286 -51.022  12.008  1.00  0.00    -0.345 N 
ATOM      3  HN  UNL     1     -38.386 -51.498  12.080  1.00  0.00     0.167 HD
HETATM    4  C   UNL     1     -39.354 -49.729  11.647  1.00  0.00     0.090 A 
HETATM    5  C   UNL     1     -40.541 -49.048  11.503  1.00  0.00     0.019 A 
HETATM    6  C   UNL     1     -41.723 -49.727  11.788  1.00  0.00     0.035 A 
HETATM    7  C   UNL     1     -41.720 -51.062  12.241  1.00  0.00     0.080 A 
ENDROOT
BRANCH   7   8
HETATM    8  N   UNL     1     -42.979 -51.623  12.496  1.00  0.00    -0.382 N 
HETATM    9  H   UNL     1     -43.690 -51.296  11.847  1.00  0.00     0.160 HD
BRANCH   8  10
HETATM   10  C   UNL     1     -43.482 -51.952  13.830  1.00  0.00     0.083 C 
HETATM   11  C   UNL     1     -43.713 -53.475  13.932  1.00  0.00     0.035 C 
HETATM   12  C   UNL     1     -45.032 -54.017  13.402  1.00  0.00     0.076 C 
HETATM   13  S   UNL     1     -46.450 -53.199  14.165  1.00  0.00    -0.169 SA
HETATM   14  C   UNL     1     -46.040 -51.514  13.657  1.00  0.00     0.076 C 
HETATM   15  C   UNL     1     -44.693 -51.082  14.208  1.00  0.00     0.035 C 
ENDBRANCH   8  10
ENDBRANCH   7   8
BRANCH   1  16
HETATM   16  O   UNL     1     -40.328 -53.033  12.546  1.00  0.00    -0.332 OA
BRANCH  16  17
HETATM   17  C   UNL     1     -39.960 -53.341  13.897  1.00  0.00     0.203 C 
BRANCH  17  18
HETATM   18  C   UNL     1     -39.057 -54.578  13.991  1.00  0.00     0.193 C 
BRANCH  18  19
HETATM   19  O   UNL     1     -39.394 -55.400  15.111  1.00  0.00    -0.394 OA
HETATM   20  C   UNL     1     -38.300 -55.544  16.008  1.00  0.00     0.201 C 
ENDBRANCH  18  19
ENDBRANCH  17  18
ENDBRANCH  16  17
ENDBRANCH   1  16
TORSDOF 6
ENDMDL
