MODEL 1
REMARK VINA RESULT:      -6.0      0.000      0.000
REMARK  8 active torsions:
REMARK  status: ('A' for Active; 'I' for Inactive)
REMARK    1  A    between atoms: C_2  and  C_3 
REMARK    2  A    between atoms: C_2  and  N_11 
REMARK    3  A    between atoms: C_3  and  N_4 
REMARK    4  A    between atoms: N_11  and  C_12 
REMARK    5  A    between atoms: C_12  and  C_13 
REMARK    6  A    between atoms: C_13  and  O_14 
REMARK    7  A    between atoms: C_13  and  C_15 
REMARK    8  A    between atoms: C_15  and  N_16 
ROOT
HETATM    1  N   UNL     1     -41.923 -50.184  11.487  1.00  0.00     0.091 N 
HETATM    2  H   UNL     1     -41.710 -50.349  10.502  1.00  0.00     0.316 HD
ENDROOT
BRANCH   1   3
HETATM    3  C   UNL     1     -41.740 -48.777  11.878  1.00  0.00     0.236 C 
HETATM    4  C   UNL     1     -40.518 -48.601  12.792  1.00  0.00     0.044 C 
BRANCH   3   5
HETATM    5  C   UNL     1     -41.557 -47.876  10.639  1.00  0.00     0.183 C 
BRANCH   5   6
HETATM    6  N   UNL     1     -42.755 -47.734   9.836  1.00  0.00    -0.301 N 
HETATM    7  C   UNL     1     -44.012 -47.452  10.294  1.00  0.00     0.118 A 
HETATM    8  C   UNL     1     -44.840 -47.456   9.194  1.00  0.00    -0.028 A 
HETATM    9  C   UNL     1     -46.290 -47.178   9.138  1.00  0.00     0.051 C 
HETATM   10  C   UNL     1     -43.978 -47.791   8.122  1.00  0.00     0.115 A 
HETATM   11  N   UNL     1     -42.712 -47.975   8.512  1.00  0.00    -0.310 N 
ATOM     12  HN  UNL     1     -41.907 -48.236   7.942  1.00  0.00     0.186 HD
ENDBRANCH   5   6
ENDBRANCH   3   5
ENDBRANCH   1   3
BRANCH   1  13
HETATM   13  C   UNL     1     -41.194 -51.142  12.317  1.00  0.00     0.303 C 
BRANCH  13  14
HETATM   14  C   UNL     1     -41.607 -52.596  11.981  1.00  0.00     0.174 C 
BRANCH  14  15
HETATM   15  O   UNL     1     -40.454 -53.261  11.433  1.00  0.00    -0.392 OA
HETATM   16  H   UNL     1     -40.542 -53.252  10.465  1.00  0.00     0.210 HD
ENDBRANCH  14  15
BRANCH  14  17
HETATM   17  C   UNL     1     -42.092 -53.274  13.289  1.00  0.00     0.305 C 
BRANCH  17  18
HETATM   18  N   UNL     1     -43.260 -54.175  13.213  1.00  0.00     0.095 N 
HETATM   19  C   UNL     1     -44.384 -53.501  12.514  1.00  0.00     0.298 C 
HETATM   20  C   UNL     1     -45.059 -52.393  13.347  1.00  0.00     0.198 C 
HETATM   21  O   UNL     1     -45.491 -52.871  14.627  1.00  0.00    -0.388 OA
HETATM   22  C   UNL     1     -44.414 -53.488  15.346  1.00  0.00     0.198 C 
HETATM   23  C   UNL     1     -43.775 -54.621  14.526  1.00  0.00     0.298 C 
ENDBRANCH  17  18
ENDBRANCH  14  17
ENDBRANCH  13  14
ENDBRANCH   1  13
TORSDOF 8
ENDMDL
MODEL 2
REMARK VINA RESULT:      -5.7      2.059      2.571
REMARK  8 active torsions:
REMARK  status: ('A' for Active; 'I' for Inactive)
REMARK    1  A    between atoms: C_2  and  C_3 
REMARK    2  A    between atoms: C_2  and  N_11 
REMARK    3  A    between atoms: C_3  and  N_4 
REMARK    4  A    between atoms: N_11  and  C_12 
REMARK    5  A    between atoms: C_12  and  C_13 
REMARK    6  A    between atoms: C_13  and  O_14 
REMARK    7  A    between atoms: C_13  and  C_15 
REMARK    8  A    between atoms: C_15  and  N_16 
ROOT
HETATM    1  N   UNL     1     -41.093 -49.701  10.858  1.00  0.00     0.091 N 
HETATM    2  H   UNL     1     -40.491 -49.557  10.045  1.00  0.00     0.316 HD
ENDROOT
BRANCH   1   3
HETATM    3  C   UNL     1     -41.539 -48.437  11.465  1.00  0.00     0.236 C 
HETATM    4  C   UNL     1     -40.536 -47.931  12.513  1.00  0.00     0.044 C 
BRANCH   3   5
HETATM    5  C   UNL     1     -41.720 -47.341  10.393  1.00  0.00     0.183 C 
BRANCH   5   6
HETATM    6  N   UNL     1     -42.944 -47.468   9.628  1.00  0.00    -0.301 N 
HETATM    7  C   UNL     1     -44.217 -47.304  10.096  1.00  0.00     0.118 A 
HETATM    8  C   UNL     1     -45.060 -47.562   9.038  1.00  0.00    -0.028 A 
HETATM    9  C   UNL     1     -46.536 -47.493   9.005  1.00  0.00     0.051 C 
HETATM   10  C   UNL     1     -44.184 -47.911   7.984  1.00  0.00     0.115 A 
HETATM   11  N   UNL     1     -42.896 -47.869   8.343  1.00  0.00    -0.310 N 
ATOM     12  HN  UNL     1     -42.075 -48.088   7.778  1.00  0.00     0.186 HD
ENDBRANCH   5   6
ENDBRANCH   3   5
ENDBRANCH   1   3
BRANCH   1  13
HETATM   13  C   UNL     1     -40.450 -50.626  11.790  1.00  0.00     0.303 C 
BRANCH  13  14
HETATM   14  C   UNL     1     -41.361 -51.843  12.085  1.00  0.00     0.174 C 
BRANCH  14  15
HETATM   15  O   UNL     1     -41.214 -52.771  10.993  1.00  0.00    -0.392 OA
HETATM   16  H   UNL     1     -42.097 -53.115  10.780  1.00  0.00     0.210 HD
ENDBRANCH  14  15
BRANCH  14  17
HETATM   17  C   UNL     1     -40.912 -52.467  13.432  1.00  0.00     0.305 C 
BRANCH  17  18
HETATM   18  N   UNL     1     -40.826 -53.940  13.520  1.00  0.00     0.095 N 
HETATM   19  C   UNL     1     -41.788 -54.451  14.530  1.00  0.00     0.298 C 
HETATM   20  C   UNL     1     -41.377 -54.154  15.986  1.00  0.00     0.198 C 
HETATM   21  O   UNL     1     -40.056 -54.628  16.279  1.00  0.00    -0.388 OA
HETATM   22  C   UNL     1     -39.097 -54.113  15.345  1.00  0.00     0.198 C 
HETATM   23  C   UNL     1     -39.491 -54.452  13.899  1.00  0.00     0.298 C 
ENDBRANCH  17  18
ENDBRANCH  14  17
ENDBRANCH  13  14
ENDBRANCH   1  13
TORSDOF 8
ENDMDL
MODEL 3
REMARK VINA RESULT:      -5.6      3.259      6.356
REMARK  8 active torsions:
REMARK  status: ('A' for Active; 'I' for Inactive)
REMARK    1  A    between atoms: C_2  and  C_3 
REMARK    2  A    between atoms: C_2  and  N_11 
REMARK    3  A    between atoms: C_3  and  N_4 
REMARK    4  A    between atoms: N_11  and  C_12 
REMARK    5  A    between atoms: C_12  and  C_13 
REMARK    6  A    between atoms: C_13  and  O_14 
REMARK    7  A    between atoms: C_13  and  C_15 
REMARK    8  A    between atoms: C_15  and  N_16 
ROOT
HETATM    1  N   UNL     1     -41.160 -51.983  11.531  1.00  0.00     0.091 N 
HETATM    2  H   UNL     1     -41.309 -51.605  10.593  1.00  0.00     0.316 HD
ENDROOT
BRANCH   1   3
HETATM    3  C   UNL     1     -42.420 -52.327  12.209  1.00  0.00     0.236 C 
HETATM    4  C   UNL     1     -42.248 -53.539  13.138  1.00  0.00     0.044 C 
BRANCH   3   5
HETATM    5  C   UNL     1     -42.941 -51.140  13.047  1.00  0.00     0.183 C 
BRANCH   5   6
HETATM    6  N   UNL     1     -44.333 -51.262  13.431  1.00  0.00    -0.301 N 
HETATM    7  C   UNL     1     -44.835 -51.213  14.701  1.00  0.00     0.118 A 
HETATM    8  C   UNL     1     -46.193 -51.417  14.595  1.00  0.00    -0.028 A 
HETATM    9  C   UNL     1     -47.204 -51.426  15.671  1.00  0.00     0.051 C 
HETATM   10  C   UNL     1     -46.398 -51.615  13.209  1.00  0.00     0.115 A 
HETATM   11  N   UNL     1     -45.267 -51.537  12.499  1.00  0.00    -0.310 N 
ATOM     12  HN  UNL     1     -45.141 -51.656  11.494  1.00  0.00     0.186 HD
ENDBRANCH   5   6
ENDBRANCH   3   5
ENDBRANCH   1   3
BRANCH   1  13
HETATM   13  C   UNL     1     -40.288 -51.088  12.291  1.00  0.00     0.303 C 
BRANCH  13  14
HETATM   14  C   UNL     1     -39.882 -49.857  11.445  1.00  0.00     0.174 C 
BRANCH  14  15
HETATM   15  O   UNL     1     -40.479 -50.007  10.143  1.00  0.00    -0.392 OA
HETATM   16  H   UNL     1     -39.759 -50.040   9.492  1.00  0.00     0.210 HD
ENDBRANCH  14  15
BRANCH  14  17
HETATM   17  C   UNL     1     -40.397 -48.584  12.167  1.00  0.00     0.305 C 
BRANCH  17  18
HETATM   18  N   UNL     1     -39.732 -47.299  11.868  1.00  0.00     0.095 N 
HETATM   19  C   UNL     1     -39.552 -46.511  13.113  1.00  0.00     0.298 C 
HETATM   20  C   UNL     1     -40.862 -45.917  13.668  1.00  0.00     0.198 C 
HETATM   21  O   UNL     1     -41.555 -45.135  12.686  1.00  0.00    -0.388 OA
HETATM   22  C   UNL     1     -41.784 -45.886  11.486  1.00  0.00     0.198 C 
HETATM   23  C   UNL     1     -40.467 -46.438  10.916  1.00  0.00     0.298 C 
ENDBRANCH  17  18
ENDBRANCH  14  17
ENDBRANCH  13  14
ENDBRANCH   1  13
TORSDOF 8
ENDMDL
MODEL 4
REMARK VINA RESULT:      -5.5      2.748      6.493
REMARK  8 active torsions:
REMARK  status: ('A' for Active; 'I' for Inactive)
REMARK    1  A    between atoms: C_2  and  C_3 
REMARK    2  A    between atoms: C_2  and  N_11 
REMARK    3  A    between atoms: C_3  and  N_4 
REMARK    4  A    between atoms: N_11  and  C_12 
REMARK    5  A    between atoms: C_12  and  C_13 
REMARK    6  A    between atoms: C_13  and  O_14 
REMARK    7  A    between atoms: C_13  and  C_15 
REMARK    8  A    between atoms: C_15  and  N_16 
ROOT
HETATM    1  N   UNL     1     -41.271 -50.919  12.797  1.00  0.00     0.091 N 
HETATM    2  H   UNL     1     -40.288 -50.949  12.520  1.00  0.00     0.316 HD
ENDROOT
BRANCH   1   3
HETATM    3  C   UNL     1     -41.932 -52.229  12.683  1.00  0.00     0.236 C 
HETATM    4  C   UNL     1     -40.925 -53.341  12.357  1.00  0.00     0.044 C 
BRANCH   3   5
HETATM    5  C   UNL     1     -42.661 -52.598  13.992  1.00  0.00     0.183 C 
BRANCH   5   6
HETATM    6  N   UNL     1     -44.044 -52.168  14.032  1.00  0.00    -0.301 N 
HETATM    7  C   UNL     1     -44.827 -52.046  15.146  1.00  0.00     0.118 A 
HETATM    8  C   UNL     1     -46.073 -51.655  14.709  1.00  0.00    -0.028 A 
HETATM    9  C   UNL     1     -47.273 -51.354  15.516  1.00  0.00     0.051 C 
HETATM   10  C   UNL     1     -45.938 -51.606  13.301  1.00  0.00     0.115 A 
HETATM   11  N   UNL     1     -44.710 -51.932  12.885  1.00  0.00    -0.310 N 
ATOM     12  HN  UNL     1     -44.360 -51.988  11.928  1.00  0.00     0.186 HD
ENDBRANCH   5   6
ENDBRANCH   3   5
ENDBRANCH   1   3
BRANCH   1  13
HETATM   13  C   UNL     1     -41.949 -49.835  12.087  1.00  0.00     0.303 C 
BRANCH  13  14
HETATM   14  C   UNL     1     -40.975 -49.097  11.136  1.00  0.00     0.174 C 
BRANCH  14  15
HETATM   15  O   UNL     1     -40.324 -50.091  10.323  1.00  0.00    -0.392 OA
HETATM   16  H   UNL     1     -40.266 -50.907  10.847  1.00  0.00     0.210 HD
ENDBRANCH  14  15
BRANCH  14  17
HETATM   17  C   UNL     1     -41.799 -48.103  10.276  1.00  0.00     0.305 C 
BRANCH  17  18
HETATM   18  N   UNL     1     -43.000 -47.491  10.882  1.00  0.00     0.095 N 
HETATM   19  C   UNL     1     -44.022 -47.224   9.838  1.00  0.00     0.298 C 
HETATM   20  C   UNL     1     -43.666 -46.049   8.905  1.00  0.00     0.198 C 
HETATM   21  O   UNL     1     -43.383 -44.849   9.636  1.00  0.00    -0.388 OA
HETATM   22  C   UNL     1     -42.365 -45.066  10.623  1.00  0.00     0.198 C 
HETATM   23  C   UNL     1     -42.748 -46.209  11.576  1.00  0.00     0.298 C 
ENDBRANCH  17  18
ENDBRANCH  14  17
ENDBRANCH  13  14
ENDBRANCH   1  13
TORSDOF 8
ENDMDL
MODEL 5
REMARK VINA RESULT:      -5.5      2.956      3.630
REMARK  8 active torsions:
REMARK  status: ('A' for Active; 'I' for Inactive)
REMARK    1  A    between atoms: C_2  and  C_3 
REMARK    2  A    between atoms: C_2  and  N_11 
REMARK    3  A    between atoms: C_3  and  N_4 
REMARK    4  A    between atoms: N_11  and  C_12 
REMARK    5  A    between atoms: C_12  and  C_13 
REMARK    6  A    between atoms: C_13  and  O_14 
REMARK    7  A    between atoms: C_13  and  C_15 
REMARK    8  A    between atoms: C_15  and  N_16 
ROOT
HETATM    1  N   UNL     1     -39.357 -51.317  12.267  1.00  0.00     0.091 N 
HETATM    2  H   UNL     1     -38.658 -51.887  12.747  1.00  0.00     0.316 HD
ENDROOT
BRANCH   1   3
HETATM    3  C   UNL     1     -38.936 -49.916  12.110  1.00  0.00     0.236 C 
HETATM    4  C   UNL     1     -37.640 -49.806  11.294  1.00  0.00     0.044 C 
BRANCH   3   5
HETATM    5  C   UNL     1     -40.029 -49.085  11.404  1.00  0.00     0.183 C 
BRANCH   5   6
HETATM    6  N   UNL     1     -39.891 -47.655  11.598  1.00  0.00    -0.301 N 
HETATM    7  C   UNL     1     -39.575 -47.018  12.765  1.00  0.00     0.118 A 
HETATM    8  C   UNL     1     -39.599 -45.669  12.495  1.00  0.00    -0.028 A 
HETATM    9  C   UNL     1     -39.297 -44.546  13.408  1.00  0.00     0.051 C 
HETATM   10  C   UNL     1     -39.979 -45.602  11.134  1.00  0.00     0.115 A 
HETATM   11  N   UNL     1     -40.173 -46.808  10.589  1.00  0.00    -0.310 N 
ATOM     12  HN  UNL     1     -40.463 -47.033   9.637  1.00  0.00     0.186 HD
ENDBRANCH   5   6
ENDBRANCH   3   5
ENDBRANCH   1   3
BRANCH   1  13
HETATM   13  C   UNL     1     -40.659 -51.490  12.912  1.00  0.00     0.303 C 
BRANCH  13  14
HETATM   14  C   UNL     1     -41.550 -52.471  12.112  1.00  0.00     0.174 C 
BRANCH  14  15
HETATM   15  O   UNL     1     -40.678 -53.321  11.342  1.00  0.00    -0.392 OA
HETATM   16  H   UNL     1     -39.768 -53.014  11.484  1.00  0.00     0.210 HD
ENDBRANCH  14  15
BRANCH  14  17
HETATM   17  C   UNL     1     -42.399 -53.286  13.123  1.00  0.00     0.305 C 
BRANCH  17  18
HETATM   18  N   UNL     1     -43.683 -52.711  13.573  1.00  0.00     0.095 N 
HETATM   19  C   UNL     1     -43.789 -52.786  15.052  1.00  0.00     0.298 C 
HETATM   20  C   UNL     1     -44.027 -54.212  15.587  1.00  0.00     0.198 C 
HETATM   21  O   UNL     1     -45.169 -54.830  14.980  1.00  0.00    -0.388 OA
HETATM   22  C   UNL     1     -45.073 -54.814  13.549  1.00  0.00     0.198 C 
HETATM   23  C   UNL     1     -44.880 -53.383  13.020  1.00  0.00     0.298 C 
ENDBRANCH  17  18
ENDBRANCH  14  17
ENDBRANCH  13  14
ENDBRANCH   1  13
TORSDOF 8
ENDMDL
MODEL 6
REMARK VINA RESULT:      -5.5      2.635      5.798
REMARK  8 active torsions:
REMARK  status: ('A' for Active; 'I' for Inactive)
REMARK    1  A    between atoms: C_2  and  C_3 
REMARK    2  A    between atoms: C_2  and  N_11 
REMARK    3  A    between atoms: C_3  and  N_4 
REMARK    4  A    between atoms: N_11  and  C_12 
REMARK    5  A    between atoms: C_12  and  C_13 
REMARK    6  A    between atoms: C_13  and  O_14 
REMARK    7  A    between atoms: C_13  and  C_15 
REMARK    8  A    between atoms: C_15  and  N_16 
ROOT
HETATM    1  N   UNL     1     -41.832 -54.200  13.448  1.00  0.00     0.091 N 
HETATM    2  H   UNL     1     -41.949 -54.311  12.439  1.00  0.00     0.316 HD
ENDROOT
BRANCH   1   3
HETATM    3  C   UNL     1     -43.096 -54.355  14.186  1.00  0.00     0.236 C 
HETATM    4  C   UNL     1     -42.958 -55.366  15.333  1.00  0.00     0.044 C 
BRANCH   3   5
HETATM    5  C   UNL     1     -43.563 -53.007  14.776  1.00  0.00     0.183 C 
BRANCH   5   6
HETATM    6  N   UNL     1     -44.768 -52.486  14.163  1.00  0.00    -0.301 N 
HETATM    7  C   UNL     1     -45.112 -52.572  12.843  1.00  0.00     0.118 A 
HETATM    8  C   UNL     1     -46.309 -51.906  12.705  1.00  0.00    -0.028 A 
HETATM    9  C   UNL     1     -47.125 -51.733  11.486  1.00  0.00     0.051 C 
HETATM   10  C   UNL     1     -46.579 -51.422  14.007  1.00  0.00     0.115 A 
HETATM   11  N   UNL     1     -45.636 -51.761  14.893  1.00  0.00    -0.310 N 
ATOM     12  HN  UNL     1     -45.587 -51.526  15.885  1.00  0.00     0.186 HD
ENDBRANCH   5   6
ENDBRANCH   3   5
ENDBRANCH   1   3
BRANCH   1  13
HETATM   13  C   UNL     1     -41.117 -52.955  13.727  1.00  0.00     0.303 C 
BRANCH  13  14
HETATM   14  C   UNL     1     -40.635 -52.285  12.418  1.00  0.00     0.174 C 
BRANCH  14  15
HETATM   15  O   UNL     1     -40.536 -53.312  11.414  1.00  0.00    -0.392 OA
HETATM   16  H   UNL     1     -41.328 -53.255  10.855  1.00  0.00     0.210 HD
ENDBRANCH  14  15
BRANCH  14  17
HETATM   17  C   UNL     1     -41.668 -51.196  12.023  1.00  0.00     0.305 C 
BRANCH  17  18
HETATM   18  N   UNL     1     -41.709 -49.956  12.825  1.00  0.00     0.095 N 
HETATM   19  C   UNL     1     -42.570 -48.944  12.161  1.00  0.00     0.298 C 
HETATM   20  C   UNL     1     -41.941 -48.326  10.896  1.00  0.00     0.198 C 
HETATM   21  O   UNL     1     -40.643 -47.775  11.156  1.00  0.00    -0.388 OA
HETATM   22  C   UNL     1     -39.774 -48.745  11.756  1.00  0.00     0.198 C 
HETATM   23  C   UNL     1     -40.389 -49.324  13.041  1.00  0.00     0.298 C 
ENDBRANCH  17  18
ENDBRANCH  14  17
ENDBRANCH  13  14
ENDBRANCH   1  13
TORSDOF 8
ENDMDL
MODEL 7
REMARK VINA RESULT:      -5.4      3.255      7.650
REMARK  8 active torsions:
REMARK  status: ('A' for Active; 'I' for Inactive)
REMARK    1  A    between atoms: C_2  and  C_3 
REMARK    2  A    between atoms: C_2  and  N_11 
REMARK    3  A    between atoms: C_3  and  N_4 
REMARK    4  A    between atoms: N_11  and  C_12 
REMARK    5  A    between atoms: C_12  and  C_13 
REMARK    6  A    between atoms: C_13  and  O_14 
REMARK    7  A    between atoms: C_13  and  C_15 
REMARK    8  A    between atoms: C_15  and  N_16 
ROOT
HETATM    1  N   UNL     1     -42.204 -51.103  11.755  1.00  0.00     0.091 N 
HETATM    2  H   UNL     1     -43.164 -51.054  11.408  1.00  0.00     0.316 HD
ENDROOT
BRANCH   1   3
HETATM    3  C   UNL     1     -42.011 -52.185  12.734  1.00  0.00     0.236 C 
HETATM    4  C   UNL     1     -43.176 -53.185  12.706  1.00  0.00     0.044 C 
BRANCH   3   5
HETATM    5  C   UNL     1     -40.701 -52.954  12.460  1.00  0.00     0.183 C 
BRANCH   5   6
HETATM    6  N   UNL     1     -39.972 -53.313  13.660  1.00  0.00    -0.301 N 
HETATM    7  C   UNL     1     -39.584 -54.570  14.032  1.00  0.00     0.118 A 
HETATM    8  C   UNL     1     -38.964 -54.444  15.255  1.00  0.00    -0.028 A 
HETATM    9  C   UNL     1     -38.336 -55.499  16.076  1.00  0.00     0.051 C 
HETATM   10  C   UNL     1     -39.067 -53.063  15.546  1.00  0.00     0.115 A 
HETATM   11  N   UNL     1     -39.693 -52.374  14.585  1.00  0.00    -0.310 N 
ATOM     12  HN  UNL     1     -39.907 -51.377  14.559  1.00  0.00     0.186 HD
ENDBRANCH   5   6
ENDBRANCH   3   5
ENDBRANCH   1   3
BRANCH   1  13
HETATM   13  C   UNL     1     -41.779 -49.783  12.219  1.00  0.00     0.303 C 
BRANCH  13  14
HETATM   14  C   UNL     1     -40.905 -49.074  11.157  1.00  0.00     0.174 C 
BRANCH  14  15
HETATM   15  O   UNL     1     -40.258 -50.095  10.374  1.00  0.00    -0.392 OA
HETATM   16  H   UNL     1     -40.488 -50.955  10.764  1.00  0.00     0.210 HD
ENDBRANCH  14  15
BRANCH  14  17
HETATM   17  C   UNL     1     -41.830 -48.184  10.286  1.00  0.00     0.305 C 
BRANCH  17  18
HETATM   18  N   UNL     1     -42.975 -47.522  10.943  1.00  0.00     0.095 N 
HETATM   19  C   UNL     1     -44.038 -47.227   9.949  1.00  0.00     0.298 C 
HETATM   20  C   UNL     1     -43.686 -46.075   8.986  1.00  0.00     0.198 C 
HETATM   21  O   UNL     1     -43.323 -44.879   9.688  1.00  0.00    -0.388 OA
HETATM   22  C   UNL     1     -42.265 -45.124  10.625  1.00  0.00     0.198 C 
HETATM   23  C   UNL     1     -42.642 -46.244  11.609  1.00  0.00     0.298 C 
ENDBRANCH  17  18
ENDBRANCH  14  17
ENDBRANCH  13  14
ENDBRANCH   1  13
TORSDOF 8
ENDMDL
MODEL 8
REMARK VINA RESULT:      -5.3      1.325      1.750
REMARK  8 active torsions:
REMARK  status: ('A' for Active; 'I' for Inactive)
REMARK    1  A    between atoms: C_2  and  C_3 
REMARK    2  A    between atoms: C_2  and  N_11 
REMARK    3  A    between atoms: C_3  and  N_4 
REMARK    4  A    between atoms: N_11  and  C_12 
REMARK    5  A    between atoms: C_12  and  C_13 
REMARK    6  A    between atoms: C_13  and  O_14 
REMARK    7  A    between atoms: C_13  and  C_15 
REMARK    8  A    between atoms: C_15  and  N_16 
ROOT
HETATM    1  N   UNL     1     -40.565 -50.181  12.789  1.00  0.00     0.091 N 
HETATM    2  H   UNL     1     -40.180 -49.716  13.613  1.00  0.00     0.316 HD
ENDROOT
BRANCH   1   3
HETATM    3  C   UNL     1     -41.642 -49.406  12.153  1.00  0.00     0.236 C 
HETATM    4  C   UNL     1     -42.638 -48.868  13.191  1.00  0.00     0.044 C 
BRANCH   3   5
HETATM    5  C   UNL     1     -41.072 -48.212  11.359  1.00  0.00     0.183 C 
BRANCH   5   6
HETATM    6  N   UNL     1     -42.007 -47.642  10.409  1.00  0.00    -0.301 N 
HETATM    7  C   UNL     1     -42.654 -46.443  10.523  1.00  0.00     0.118 A 
HETATM    8  C   UNL     1     -43.470 -46.332   9.420  1.00  0.00    -0.028 A 
HETATM    9  C   UNL     1     -44.357 -45.211   9.047  1.00  0.00     0.051 C 
HETATM   10  C   UNL     1     -43.262 -47.544   8.720  1.00  0.00     0.115 A 
HETATM   11  N   UNL     1     -42.384 -48.350   9.327  1.00  0.00    -0.310 N 
ATOM     12  HN  UNL     1     -42.073 -49.279   9.039  1.00  0.00     0.186 HD
ENDBRANCH   5   6
ENDBRANCH   3   5
ENDBRANCH   1   3
BRANCH   1  13
HETATM   13  C   UNL     1     -40.927 -51.558  13.124  1.00  0.00     0.303 C 
BRANCH  13  14
HETATM   14  C   UNL     1     -41.527 -52.290  11.899  1.00  0.00     0.174 C 
BRANCH  14  15
HETATM   15  O   UNL     1     -40.564 -53.266  11.460  1.00  0.00    -0.392 OA
HETATM   16  H   UNL     1     -39.721 -53.067  11.901  1.00  0.00     0.210 HD
ENDBRANCH  14  15
BRANCH  14  17
HETATM   17  C   UNL     1     -42.858 -52.955  12.338  1.00  0.00     0.305 C 
BRANCH  17  18
HETATM   18  N   UNL     1     -43.448 -52.542  13.628  1.00  0.00     0.095 N 
HETATM   19  C   UNL     1     -43.638 -53.723  14.508  1.00  0.00     0.298 C 
HETATM   20  C   UNL     1     -44.789 -54.649  14.066  1.00  0.00     0.198 C 
HETATM   21  O   UNL     1     -46.025 -53.938  13.921  1.00  0.00    -0.388 OA
HETATM   22  C   UNL     1     -45.884 -52.817  13.039  1.00  0.00     0.198 C 
HETATM   23  C   UNL     1     -44.764 -51.875  13.511  1.00  0.00     0.298 C 
ENDBRANCH  17  18
ENDBRANCH  14  17
ENDBRANCH  13  14
ENDBRANCH   1  13
TORSDOF 8
ENDMDL
MODEL 9
REMARK VINA RESULT:      -5.2      3.662      5.866
REMARK  8 active torsions:
REMARK  status: ('A' for Active; 'I' for Inactive)
REMARK    1  A    between atoms: C_2  and  C_3 
REMARK    2  A    between atoms: C_2  and  N_11 
REMARK    3  A    between atoms: C_3  and  N_4 
REMARK    4  A    between atoms: N_11  and  C_12 
REMARK    5  A    between atoms: C_12  and  C_13 
REMARK    6  A    between atoms: C_13  and  O_14 
REMARK    7  A    between atoms: C_13  and  C_15 
REMARK    8  A    between atoms: C_15  and  N_16 
ROOT
HETATM    1  N   UNL     1     -39.729 -50.794  11.687  1.00  0.00     0.091 N 
HETATM    2  H   UNL     1     -39.599 -51.428  10.896  1.00  0.00     0.316 HD
ENDROOT
BRANCH   1   3
HETATM    3  C   UNL     1     -38.454 -50.350  12.273  1.00  0.00     0.236 C 
HETATM    4  C   UNL     1     -37.404 -50.068  11.189  1.00  0.00     0.044 C 
BRANCH   3   5
HETATM    5  C   UNL     1     -38.646 -49.068  13.112  1.00  0.00     0.183 C 
BRANCH   5   6
HETATM    6  N   UNL     1     -37.697 -48.934  14.199  1.00  0.00    -0.301 N 
HETATM    7  C   UNL     1     -37.180 -49.947  14.957  1.00  0.00     0.118 A 
HETATM    8  C   UNL     1     -36.361 -49.357  15.894  1.00  0.00    -0.028 A 
HETATM    9  C   UNL     1     -35.539 -50.010  16.933  1.00  0.00     0.051 C 
HETATM   10  C   UNL     1     -36.488 -47.972  15.631  1.00  0.00     0.115 A 
HETATM   11  N   UNL     1     -37.312 -47.711  14.610  1.00  0.00    -0.310 N 
ATOM     12  HN  UNL     1     -37.584 -46.802  14.232  1.00  0.00     0.186 HD
ENDBRANCH   5   6
ENDBRANCH   3   5
ENDBRANCH   1   3
BRANCH   1  13
HETATM   13  C   UNL     1     -40.662 -51.387  12.645  1.00  0.00     0.303 C 
BRANCH  13  14
HETATM   14  C   UNL     1     -41.490 -52.518  11.987  1.00  0.00     0.174 C 
BRANCH  14  15
HETATM   15  O   UNL     1     -40.570 -53.388  11.301  1.00  0.00    -0.392 OA
HETATM   16  H   UNL     1     -40.067 -53.874  11.975  1.00  0.00     0.210 HD
ENDBRANCH  14  15
BRANCH  14  17
HETATM   17  C   UNL     1     -42.260 -53.266  13.107  1.00  0.00     0.305 C 
BRANCH  17  18
HETATM   18  N   UNL     1     -43.511 -52.662  13.612  1.00  0.00     0.095 N 
HETATM   19  C   UNL     1     -43.589 -52.803  15.088  1.00  0.00     0.298 C 
HETATM   20  C   UNL     1     -43.875 -54.243  15.561  1.00  0.00     0.198 C 
HETATM   21  O   UNL     1     -45.053 -54.785  14.951  1.00  0.00    -0.388 OA
HETATM   22  C   UNL     1     -44.986 -54.704  13.520  1.00  0.00     0.198 C 
HETATM   23  C   UNL     1     -44.745 -53.258  13.056  1.00  0.00     0.298 C 
ENDBRANCH  17  18
ENDBRANCH  14  17
ENDBRANCH  13  14
ENDBRANCH   1  13
TORSDOF 8
ENDMDL
