MODEL 1
REMARK VINA RESULT:      -5.9      0.000      0.000
REMARK  6 active torsions:
REMARK  status: ('A' for Active; 'I' for Inactive)
REMARK    1  A    between atoms: O_2  and  C_3 
REMARK    2  A    between atoms: C_3  and  C_4 
REMARK    3  A    between atoms: N_7  and  C_8 
REMARK    4  A    between atoms: C_8  and  C_9 
REMARK    5  A    between atoms: C_9  and  N_10 
REMARK       I    between atoms: N_10  and  C_11 
REMARK    6  A    between atoms: C_11  and  C_13 
ROOT
HETATM    1  C   UNL     1     -40.793 -48.869  11.872  1.00  0.00     0.174 C 
ENDROOT
BRANCH   1   2
HETATM    2  N   UNL     1     -41.570 -48.010  11.008  1.00  0.00    -0.233 N 
HETATM    3  N   UNL     1     -42.698 -48.444  10.376  1.00  0.00    -0.275 N 
HETATM    4  C   UNL     1     -43.047 -47.402   9.689  1.00  0.00     0.167 A 
ATOM      5  HN  UNL     1     -43.151 -49.356  10.430  1.00  0.00     0.189 HD
HETATM    6  O   UNL     1     -42.250 -46.319   9.801  1.00  0.00    -0.243 OA
HETATM    7  C   UNL     1     -41.267 -46.720  10.653  1.00  0.00     0.388 A 
HETATM    8  O   UNL     1     -40.320 -46.040  11.008  1.00  0.00    -0.236 OA
BRANCH   4   9
HETATM    9  C   UNL     1     -44.251 -47.287   8.807  1.00  0.00     0.253 C 
BRANCH   9  10
HETATM   10  O   UNL     1     -45.408 -47.758   9.485  1.00  0.00    -0.388 OA
HETATM   11  C   UNL     1     -46.569 -47.038   9.092  1.00  0.00     0.202 C 
ENDBRANCH   9  10
ENDBRANCH   4   9
ENDBRANCH   1   2
BRANCH   1  12
HETATM   12  C   UNL     1     -40.269 -50.106  11.135  1.00  0.00     0.144 C 
BRANCH  12  13
HETATM   13  N   UNL     1     -41.005 -51.324  11.441  1.00  0.00    -0.359 N 
HETATM   14  C   UNL     1     -40.523 -52.222  12.366  1.00  0.00     0.221 C 
HETATM   15  O   UNL     1     -39.419 -52.102  12.886  1.00  0.00    -0.273 OA
HETATM   16  H   UNL     1     -41.959 -51.415  11.113  1.00  0.00     0.162 HD
BRANCH  14  17
HETATM   17  C   UNL     1     -41.454 -53.386  12.660  1.00  0.00     0.078 C 
HETATM   18  C   UNL     1     -42.932 -52.994  12.564  1.00  0.00     0.014 C 
HETATM   19  C   UNL     1     -43.647 -53.697  13.718  1.00  0.00     0.001 C 
HETATM   20  C   UNL     1     -42.608 -54.586  14.385  1.00  0.00     0.001 C 
HETATM   21  C   UNL     1     -41.290 -53.900  14.091  1.00  0.00     0.014 C 
ENDBRANCH  14  17
ENDBRANCH  12  13
ENDBRANCH   1  12
TORSDOF 6
ENDMDL
MODEL 2
REMARK VINA RESULT:      -5.7      2.205      2.933
REMARK  6 active torsions:
REMARK  status: ('A' for Active; 'I' for Inactive)
REMARK    1  A    between atoms: O_2  and  C_3 
REMARK    2  A    between atoms: C_3  and  C_4 
REMARK    3  A    between atoms: N_7  and  C_8 
REMARK    4  A    between atoms: C_8  and  C_9 
REMARK    5  A    between atoms: C_9  and  N_10 
REMARK       I    between atoms: N_10  and  C_11 
REMARK    6  A    between atoms: C_11  and  C_13 
ROOT
HETATM    1  C   UNL     1     -40.947 -50.897  12.432  1.00  0.00     0.174 C 
ENDROOT
BRANCH   1   2
HETATM    2  N   UNL     1     -41.794 -49.835  11.941  1.00  0.00    -0.233 N 
HETATM    3  N   UNL     1     -41.483 -49.116  10.824  1.00  0.00    -0.275 N 
HETATM    4  C   UNL     1     -42.457 -48.262  10.766  1.00  0.00     0.167 A 
ATOM      5  HN  UNL     1     -40.687 -49.223  10.195  1.00  0.00     0.189 HD
HETATM    6  O   UNL     1     -43.381 -48.343  11.746  1.00  0.00    -0.243 OA
HETATM    7  C   UNL     1     -42.940 -49.364  12.531  1.00  0.00     0.388 A 
HETATM    8  O   UNL     1     -43.482 -49.756  13.551  1.00  0.00    -0.236 OA
BRANCH   4   9
HETATM    9  C   UNL     1     -42.656 -47.219   9.711  1.00  0.00     0.253 C 
BRANCH   9  10
HETATM   10  O   UNL     1     -43.803 -47.519   8.928  1.00  0.00    -0.388 OA
HETATM   11  C   UNL     1     -43.442 -47.927   7.614  1.00  0.00     0.202 C 
ENDBRANCH   9  10
ENDBRANCH   4   9
ENDBRANCH   1   2
BRANCH   1  12
HETATM   12  C   UNL     1     -41.225 -52.229  11.727  1.00  0.00     0.144 C 
BRANCH  12  13
HETATM   13  N   UNL     1     -42.598 -52.689  11.869  1.00  0.00    -0.359 N 
HETATM   14  C   UNL     1     -42.921 -53.667  12.782  1.00  0.00     0.221 C 
HETATM   15  O   UNL     1     -42.070 -54.268  13.430  1.00  0.00    -0.273 OA
HETATM   16  H   UNL     1     -43.340 -52.157  11.431  1.00  0.00     0.162 HD
BRANCH  14  17
HETATM   17  C   UNL     1     -44.407 -53.962  12.895  1.00  0.00     0.078 C 
HETATM   18  C   UNL     1     -45.249 -52.688  13.021  1.00  0.00     0.014 C 
HETATM   19  C   UNL     1     -46.339 -52.985  14.051  1.00  0.00     0.001 C 
HETATM   20  C   UNL     1     -46.199 -54.457  14.408  1.00  0.00     0.001 C 
HETATM   21  C   UNL     1     -44.736 -54.761  14.156  1.00  0.00     0.014 C 
ENDBRANCH  14  17
ENDBRANCH  12  13
ENDBRANCH   1  12
TORSDOF 6
ENDMDL
MODEL 3
REMARK VINA RESULT:      -5.7      4.815      7.043
REMARK  6 active torsions:
REMARK  status: ('A' for Active; 'I' for Inactive)
REMARK    1  A    between atoms: O_2  and  C_3 
REMARK    2  A    between atoms: C_3  and  C_4 
REMARK    3  A    between atoms: N_7  and  C_8 
REMARK    4  A    between atoms: C_8  and  C_9 
REMARK    5  A    between atoms: C_9  and  N_10 
REMARK       I    between atoms: N_10  and  C_11 
REMARK    6  A    between atoms: C_11  and  C_13 
ROOT
HETATM    1  C   UNL     1     -41.684 -54.414  15.610  1.00  0.00     0.174 C 
ENDROOT
BRANCH   1   2
HETATM    2  N   UNL     1     -40.650 -53.799  14.810  1.00  0.00    -0.233 N 
HETATM    3  N   UNL     1     -40.806 -52.570  14.241  1.00  0.00    -0.275 N 
HETATM    4  C   UNL     1     -39.694 -52.421  13.594  1.00  0.00     0.167 A 
ATOM      5  HN  UNL     1     -41.598 -51.930  14.308  1.00  0.00     0.189 HD
HETATM    6  O   UNL     1     -38.815 -53.443  13.675  1.00  0.00    -0.243 OA
HETATM    7  C   UNL     1     -39.448 -54.359  14.458  1.00  0.00     0.388 A 
HETATM    8  O   UNL     1     -39.003 -55.452  14.765  1.00  0.00    -0.236 OA
BRANCH   4   9
HETATM    9  C   UNL     1     -39.291 -51.224  12.791  1.00  0.00     0.253 C 
BRANCH   9  10
HETATM   10  O   UNL     1     -37.900 -51.267  12.503  1.00  0.00    -0.388 OA
HETATM   11  C   UNL     1     -37.540 -50.290  11.533  1.00  0.00     0.202 C 
ENDBRANCH   9  10
ENDBRANCH   4   9
ENDBRANCH   1   2
BRANCH   1  12
HETATM   12  C   UNL     1     -42.830 -54.958  14.751  1.00  0.00     0.144 C 
BRANCH  12  13
HETATM   13  N   UNL     1     -44.013 -54.111  14.752  1.00  0.00    -0.359 N 
HETATM   14  C   UNL     1     -45.242 -54.620  14.398  1.00  0.00     0.221 C 
HETATM   15  O   UNL     1     -45.382 -55.759  13.965  1.00  0.00    -0.273 OA
HETATM   16  H   UNL     1     -43.963 -53.201  15.192  1.00  0.00     0.162 HD
BRANCH  14  17
HETATM   17  C   UNL     1     -46.399 -53.647  14.554  1.00  0.00     0.078 C 
HETATM   18  C   UNL     1     -46.370 -52.530  13.505  1.00  0.00     0.014 C 
HETATM   19  C   UNL     1     -46.765 -51.242  14.227  1.00  0.00     0.001 C 
HETATM   20  C   UNL     1     -47.145 -51.647  15.644  1.00  0.00     0.001 C 
HETATM   21  C   UNL     1     -46.348 -52.911  15.893  1.00  0.00     0.014 C 
ENDBRANCH  14  17
ENDBRANCH  12  13
ENDBRANCH   1  12
TORSDOF 6
ENDMDL
MODEL 4
REMARK VINA RESULT:      -5.4      2.900      4.726
REMARK  6 active torsions:
REMARK  status: ('A' for Active; 'I' for Inactive)
REMARK    1  A    between atoms: O_2  and  C_3 
REMARK    2  A    between atoms: C_3  and  C_4 
REMARK    3  A    between atoms: N_7  and  C_8 
REMARK    4  A    between atoms: C_8  and  C_9 
REMARK    5  A    between atoms: C_9  and  N_10 
REMARK       I    between atoms: N_10  and  C_11 
REMARK    6  A    between atoms: C_11  and  C_13 
ROOT
HETATM    1  C   UNL     1     -42.027 -52.869  12.968  1.00  0.00     0.174 C 
ENDROOT
BRANCH   1   2
HETATM    2  N   UNL     1     -41.379 -51.674  12.478  1.00  0.00    -0.233 N 
HETATM    3  N   UNL     1     -42.071 -50.672  11.863  1.00  0.00    -0.275 N 
HETATM    4  C   UNL     1     -41.130 -49.837  11.552  1.00  0.00     0.167 A 
ATOM      5  HN  UNL     1     -43.074 -50.599  11.692  1.00  0.00     0.189 HD
HETATM    6  O   UNL     1     -39.875 -50.197  11.896  1.00  0.00    -0.243 OA
HETATM    7  C   UNL     1     -40.032 -51.412  12.489  1.00  0.00     0.388 A 
HETATM    8  O   UNL     1     -39.130 -52.103  12.931  1.00  0.00    -0.236 OA
BRANCH   4   9
HETATM    9  C   UNL     1     -41.309 -48.518  10.869  1.00  0.00     0.253 C 
BRANCH   9  10
HETATM   10  O   UNL     1     -42.661 -48.091  10.964  1.00  0.00    -0.388 OA
HETATM   11  C   UNL     1     -42.773 -46.682  10.807  1.00  0.00     0.202 C 
ENDBRANCH   9  10
ENDBRANCH   4   9
ENDBRANCH   1   2
BRANCH   1  12
HETATM   12  C   UNL     1     -43.395 -53.090  12.316  1.00  0.00     0.144 C 
BRANCH  12  13
HETATM   13  N   UNL     1     -44.515 -52.733  13.174  1.00  0.00    -0.359 N 
HETATM   14  C   UNL     1     -45.439 -53.681  13.554  1.00  0.00     0.221 C 
HETATM   15  O   UNL     1     -45.430 -54.824  13.108  1.00  0.00    -0.273 OA
HETATM   16  H   UNL     1     -44.507 -51.836  13.642  1.00  0.00     0.162 HD
BRANCH  14  17
HETATM   17  C   UNL     1     -46.485 -53.186  14.539  1.00  0.00     0.078 C 
HETATM   18  C   UNL     1     -46.724 -51.676  14.429  1.00  0.00     0.014 C 
HETATM   19  C   UNL     1     -46.874 -51.152  15.858  1.00  0.00     0.001 C 
HETATM   20  C   UNL     1     -46.854 -52.374  16.764  1.00  0.00     0.001 C 
HETATM   21  C   UNL     1     -46.048 -53.397  15.989  1.00  0.00     0.014 C 
ENDBRANCH  14  17
ENDBRANCH  12  13
ENDBRANCH   1  12
TORSDOF 6
ENDMDL
MODEL 5
REMARK VINA RESULT:      -5.3      2.462      4.082
REMARK  6 active torsions:
REMARK  status: ('A' for Active; 'I' for Inactive)
REMARK    1  A    between atoms: O_2  and  C_3 
REMARK    2  A    between atoms: C_3  and  C_4 
REMARK    3  A    between atoms: N_7  and  C_8 
REMARK    4  A    between atoms: C_8  and  C_9 
REMARK    5  A    between atoms: C_9  and  N_10 
REMARK       I    between atoms: N_10  and  C_11 
REMARK    6  A    between atoms: C_11  and  C_13 
ROOT
HETATM    1  C   UNL     1     -40.519 -51.643  12.942  1.00  0.00     0.174 C 
ENDROOT
BRANCH   1   2
HETATM    2  N   UNL     1     -39.897 -50.436  12.447  1.00  0.00    -0.233 N 
HETATM    3  N   UNL     1     -40.595 -49.276  12.279  1.00  0.00    -0.275 N 
HETATM    4  C   UNL     1     -39.695 -48.481  11.790  1.00  0.00     0.167 A 
ATOM      5  HN  UNL     1     -41.575 -49.083  12.485  1.00  0.00     0.189 HD
HETATM    6  O   UNL     1     -38.466 -49.009  11.611  1.00  0.00    -0.243 OA
HETATM    7  C   UNL     1     -38.599 -50.300  12.024  1.00  0.00     0.388 A 
HETATM    8  O   UNL     1     -37.716 -51.140  12.007  1.00  0.00    -0.236 OA
BRANCH   4   9
HETATM    9  C   UNL     1     -39.889 -47.042  11.428  1.00  0.00     0.253 C 
BRANCH   9  10
HETATM   10  O   UNL     1     -41.001 -46.897  10.554  1.00  0.00    -0.388 OA
HETATM   11  C   UNL     1     -41.530 -45.578  10.603  1.00  0.00     0.202 C 
ENDBRANCH   9  10
ENDBRANCH   4   9
ENDBRANCH   1   2
BRANCH   1  12
HETATM   12  C   UNL     1     -41.461 -52.270  11.910  1.00  0.00     0.144 C 
BRANCH  12  13
HETATM   13  N   UNL     1     -42.860 -52.252  12.310  1.00  0.00    -0.359 N 
HETATM   14  C   UNL     1     -43.379 -53.256  13.095  1.00  0.00     0.221 C 
HETATM   15  O   UNL     1     -42.734 -54.254  13.399  1.00  0.00    -0.273 OA
HETATM   16  H   UNL     1     -43.399 -51.406  12.167  1.00  0.00     0.162 HD
BRANCH  14  17
HETATM   17  C   UNL     1     -44.821 -53.042  13.524  1.00  0.00     0.078 C 
HETATM   18  C   UNL     1     -45.729 -52.653  12.351  1.00  0.00     0.014 C 
HETATM   19  C   UNL     1     -46.679 -51.574  12.874  1.00  0.00     0.001 C 
HETATM   20  C   UNL     1     -46.402 -51.448  14.364  1.00  0.00     0.001 C 
HETATM   21  C   UNL     1     -44.958 -51.883  14.511  1.00  0.00     0.014 C 
ENDBRANCH  14  17
ENDBRANCH  12  13
ENDBRANCH   1  12
TORSDOF 6
ENDMDL
MODEL 6
REMARK VINA RESULT:      -5.2      2.536      4.196
REMARK  6 active torsions:
REMARK  status: ('A' for Active; 'I' for Inactive)
REMARK    1  A    between atoms: O_2  and  C_3 
REMARK    2  A    between atoms: C_3  and  C_4 
REMARK    3  A    between atoms: N_7  and  C_8 
REMARK    4  A    between atoms: C_8  and  C_9 
REMARK    5  A    between atoms: C_9  and  N_10 
REMARK       I    between atoms: N_10  and  C_11 
REMARK    6  A    between atoms: C_11  and  C_13 
ROOT
HETATM    1  C   UNL     1     -38.766 -52.002  14.433  1.00  0.00     0.174 C 
ENDROOT
BRANCH   1   2
HETATM    2  N   UNL     1     -38.763 -51.048  13.349  1.00  0.00    -0.233 N 
HETATM    3  N   UNL     1     -39.800 -50.188  13.134  1.00  0.00    -0.275 N 
HETATM    4  C   UNL     1     -39.420 -49.557  12.068  1.00  0.00     0.167 A 
ATOM      5  HN  UNL     1     -40.656 -50.071  13.676  1.00  0.00     0.189 HD
HETATM    6  O   UNL     1     -38.229 -49.926  11.549  1.00  0.00    -0.243 OA
HETATM    7  C   UNL     1     -37.802 -50.918  12.378  1.00  0.00     0.388 A 
HETATM    8  O   UNL     1     -36.765 -51.546  12.251  1.00  0.00    -0.236 OA
BRANCH   4   9
HETATM    9  C   UNL     1     -40.165 -48.458  11.378  1.00  0.00     0.253 C 
BRANCH   9  10
HETATM   10  O   UNL     1     -41.459 -48.902  10.993  1.00  0.00    -0.388 OA
HETATM   11  C   UNL     1     -42.158 -47.898  10.268  1.00  0.00     0.202 C 
ENDBRANCH   9  10
ENDBRANCH   4   9
ENDBRANCH   1   2
BRANCH   1  12
HETATM   12  C   UNL     1     -39.417 -53.329  14.031  1.00  0.00     0.144 C 
BRANCH  12  13
HETATM   13  N   UNL     1     -40.842 -53.392  14.318  1.00  0.00    -0.359 N 
HETATM   14  C   UNL     1     -41.769 -53.102  13.343  1.00  0.00     0.221 C 
HETATM   15  O   UNL     1     -41.450 -52.676  12.238  1.00  0.00    -0.273 OA
HETATM   16  H   UNL     1     -41.150 -53.830  15.178  1.00  0.00     0.162 HD
BRANCH  14  17
HETATM   17  C   UNL     1     -43.214 -53.319  13.758  1.00  0.00     0.078 C 
HETATM   18  C   UNL     1     -43.373 -54.490  14.735  1.00  0.00     0.014 C 
HETATM   19  C   UNL     1     -44.642 -55.235  14.320  1.00  0.00     0.001 C 
HETATM   20  C   UNL     1     -45.271 -54.417  13.202  1.00  0.00     0.001 C 
HETATM   21  C   UNL     1     -44.100 -53.692  12.570  1.00  0.00     0.014 C 
ENDBRANCH  14  17
ENDBRANCH  12  13
ENDBRANCH   1  12
TORSDOF 6
ENDMDL
MODEL 7
REMARK VINA RESULT:      -5.2      3.705      6.246
REMARK  6 active torsions:
REMARK  status: ('A' for Active; 'I' for Inactive)
REMARK    1  A    between atoms: O_2  and  C_3 
REMARK    2  A    between atoms: C_3  and  C_4 
REMARK    3  A    between atoms: N_7  and  C_8 
REMARK    4  A    between atoms: C_8  and  C_9 
REMARK    5  A    between atoms: C_9  and  N_10 
REMARK       I    between atoms: N_10  and  C_11 
REMARK    6  A    between atoms: C_11  and  C_13 
ROOT
HETATM    1  C   UNL     1     -42.336 -54.079  13.346  1.00  0.00     0.174 C 
ENDROOT
BRANCH   1   2
HETATM    2  N   UNL     1     -41.206 -53.195  13.175  1.00  0.00    -0.233 N 
HETATM    3  N   UNL     1     -41.289 -52.043  12.449  1.00  0.00    -0.275 N 
HETATM    4  C   UNL     1     -40.076 -51.589  12.512  1.00  0.00     0.167 A 
ATOM      5  HN  UNL     1     -42.098 -51.641  11.976  1.00  0.00     0.189 HD
HETATM    6  O   UNL     1     -39.194 -52.338  13.207  1.00  0.00    -0.243 OA
HETATM    7  C   UNL     1     -39.929 -53.404  13.629  1.00  0.00     0.388 A 
HETATM    8  O   UNL     1     -39.502 -54.342  14.281  1.00  0.00    -0.236 OA
BRANCH   4   9
HETATM    9  C   UNL     1     -39.576 -50.315  11.907  1.00  0.00     0.253 C 
BRANCH   9  10
HETATM   10  O   UNL     1     -38.246 -50.052  12.335  1.00  0.00    -0.388 OA
HETATM   11  C   UNL     1     -37.360 -49.931  11.230  1.00  0.00     0.202 C 
ENDBRANCH   9  10
ENDBRANCH   4   9
ENDBRANCH   1   2
BRANCH   1  12
HETATM   12  C   UNL     1     -43.608 -53.519  12.700  1.00  0.00     0.144 C 
BRANCH  12  13
HETATM   13  N   UNL     1     -44.516 -52.891  13.648  1.00  0.00    -0.359 N 
HETATM   14  C   UNL     1     -44.599 -51.520  13.739  1.00  0.00     0.221 C 
HETATM   15  O   UNL     1     -43.847 -50.773  13.120  1.00  0.00    -0.273 OA
HETATM   16  H   UNL     1     -45.219 -53.460  14.104  1.00  0.00     0.162 HD
BRANCH  14  17
HETATM   17  C   UNL     1     -45.669 -51.012  14.690  1.00  0.00     0.078 C 
HETATM   18  C   UNL     1     -45.143 -50.830  16.119  1.00  0.00     0.014 C 
HETATM   19  C   UNL     1     -46.247 -51.321  17.056  1.00  0.00     0.001 C 
HETATM   20  C   UNL     1     -47.440 -51.654  16.172  1.00  0.00     0.001 C 
HETATM   21  C   UNL     1     -46.822 -52.004  14.834  1.00  0.00     0.014 C 
ENDBRANCH  14  17
ENDBRANCH  12  13
ENDBRANCH   1  12
TORSDOF 6
ENDMDL
MODEL 8
REMARK VINA RESULT:      -5.2      3.159      5.603
REMARK  6 active torsions:
REMARK  status: ('A' for Active; 'I' for Inactive)
REMARK    1  A    between atoms: O_2  and  C_3 
REMARK    2  A    between atoms: C_3  and  C_4 
REMARK    3  A    between atoms: N_7  and  C_8 
REMARK    4  A    between atoms: C_8  and  C_9 
REMARK    5  A    between atoms: C_9  and  N_10 
REMARK       I    between atoms: N_10  and  C_11 
REMARK    6  A    between atoms: C_11  and  C_13 
ROOT
HETATM    1  C   UNL     1     -40.985 -52.830  15.569  1.00  0.00     0.174 C 
ENDROOT
BRANCH   1   2
HETATM    2  N   UNL     1     -40.298 -52.212  14.458  1.00  0.00    -0.233 N 
HETATM    3  N   UNL     1     -40.599 -50.954  14.026  1.00  0.00    -0.275 N 
HETATM    4  C   UNL     1     -39.802 -50.811  13.014  1.00  0.00     0.167 A 
ATOM      5  HN  UNL     1     -41.278 -50.293  14.404  1.00  0.00     0.189 HD
HETATM    6  O   UNL     1     -39.005 -51.862  12.729  1.00  0.00    -0.243 OA
HETATM    7  C   UNL     1     -39.341 -52.793  13.665  1.00  0.00     0.388 A 
HETATM    8  O   UNL     1     -38.863 -53.911  13.750  1.00  0.00    -0.236 OA
BRANCH   4   9
HETATM    9  C   UNL     1     -39.675 -49.593  12.155  1.00  0.00     0.253 C 
BRANCH   9  10
HETATM   10  O   UNL     1     -40.489 -49.716  10.996  1.00  0.00    -0.388 OA
HETATM   11  C   UNL     1     -41.453 -48.674  10.925  1.00  0.00     0.202 C 
ENDBRANCH   9  10
ENDBRANCH   4   9
ENDBRANCH   1   2
BRANCH   1  12
HETATM   12  C   UNL     1     -41.979 -53.900  15.107  1.00  0.00     0.144 C 
BRANCH  12  13
HETATM   13  N   UNL     1     -43.275 -53.364  14.717  1.00  0.00    -0.359 N 
HETATM   14  C   UNL     1     -44.360 -54.196  14.556  1.00  0.00     0.221 C 
HETATM   15  O   UNL     1     -44.267 -55.417  14.621  1.00  0.00    -0.273 OA
HETATM   16  H   UNL     1     -43.420 -52.362  14.749  1.00  0.00     0.162 HD
BRANCH  14  17
HETATM   17  C   UNL     1     -45.667 -53.481  14.258  1.00  0.00     0.078 C 
HETATM   18  C   UNL     1     -45.727 -52.945  12.823  1.00  0.00     0.014 C 
HETATM   19  C   UNL     1     -46.385 -51.567  12.898  1.00  0.00     0.001 C 
HETATM   20  C   UNL     1     -46.816 -51.379  14.345  1.00  0.00     0.001 C 
HETATM   21  C   UNL     1     -45.852 -52.242  15.134  1.00  0.00     0.014 C 
ENDBRANCH  14  17
ENDBRANCH  12  13
ENDBRANCH   1  12
TORSDOF 6
ENDMDL
MODEL 9
REMARK VINA RESULT:      -5.1      2.434      6.842
REMARK  6 active torsions:
REMARK  status: ('A' for Active; 'I' for Inactive)
REMARK    1  A    between atoms: O_2  and  C_3 
REMARK    2  A    between atoms: C_3  and  C_4 
REMARK    3  A    between atoms: N_7  and  C_8 
REMARK    4  A    between atoms: C_8  and  C_9 
REMARK    5  A    between atoms: C_9  and  N_10 
REMARK       I    between atoms: N_10  and  C_11 
REMARK    6  A    between atoms: C_11  and  C_13 
ROOT
HETATM    1  C   UNL     1     -40.073 -50.670  12.248  1.00  0.00     0.174 C 
ENDROOT
BRANCH   1   2
HETATM    2  N   UNL     1     -41.005 -51.762  12.419  1.00  0.00    -0.233 N 
HETATM    3  N   UNL     1     -42.338 -51.624  12.169  1.00  0.00    -0.275 N 
HETATM    4  C   UNL     1     -42.800 -52.794  12.482  1.00  0.00     0.167 A 
ATOM      5  HN  UNL     1     -42.844 -50.808  11.823  1.00  0.00     0.189 HD
HETATM    6  O   UNL     1     -41.896 -53.693  12.926  1.00  0.00    -0.243 OA
HETATM    7  C   UNL     1     -40.717 -53.013  12.903  1.00  0.00     0.388 A 
HETATM    8  O   UNL     1     -39.638 -53.460  13.251  1.00  0.00    -0.236 OA
BRANCH   4   9
HETATM    9  C   UNL     1     -44.225 -53.238  12.381  1.00  0.00     0.253 C 
BRANCH   9  10
HETATM   10  O   UNL     1     -44.731 -53.578  13.666  1.00  0.00    -0.388 OA
HETATM   11  C   UNL     1     -45.245 -54.903  13.687  1.00  0.00     0.202 C 
ENDBRANCH   9  10
ENDBRANCH   4   9
ENDBRANCH   1   2
BRANCH   1  12
HETATM   12  C   UNL     1     -40.315 -49.906  10.942  1.00  0.00     0.144 C 
BRANCH  12  13
HETATM   13  N   UNL     1     -40.270 -48.460  11.095  1.00  0.00    -0.359 N 
HETATM   14  C   UNL     1     -41.395 -47.756  11.460  1.00  0.00     0.221 C 
HETATM   15  O   UNL     1     -42.497 -48.286  11.563  1.00  0.00    -0.273 OA
HETATM   16  H   UNL     1     -39.369 -47.997  11.117  1.00  0.00     0.162 HD
BRANCH  14  17
HETATM   17  C   UNL     1     -41.167 -46.272  11.689  1.00  0.00     0.078 C 
HETATM   18  C   UNL     1     -41.067 -45.485  10.377  1.00  0.00     0.014 C 
HETATM   19  C   UNL     1     -39.951 -44.458  10.568  1.00  0.00     0.001 C 
HETATM   20  C   UNL     1     -39.512 -44.570  12.020  1.00  0.00     0.001 C 
HETATM   21  C   UNL     1     -39.840 -46.001  12.396  1.00  0.00     0.014 C 
ENDBRANCH  14  17
ENDBRANCH  12  13
ENDBRANCH   1  12
TORSDOF 6
ENDMDL
