MODEL 1
REMARK VINA RESULT:      -5.6      0.000      0.000
REMARK  3 active torsions:
REMARK  status: ('A' for Active; 'I' for Inactive)
REMARK    1  A    between atoms: C_1  and  C_8 
REMARK    2  A    between atoms: C_7  and  C_14 
REMARK    3  A    between atoms: C_12  and  O_13 
ROOT
HETATM    1  C   UNL     1     -42.547 -47.070  10.358  1.00  0.00     0.131 A 
HETATM    2  N   UNL     1     -43.817 -46.623  10.456  1.00  0.00    -0.332 N 
ATOM      3  HN  UNL     1     -44.205 -45.963  11.129  1.00  0.00     0.168 HD
HETATM    4  N   UNL     1     -42.403 -47.939   9.334  1.00  0.00    -0.286 N 
ATOM      5  HN  UNL     1     -41.546 -48.412   9.050  1.00  0.00     0.188 HD
HETATM    6  N   UNL     1     -43.595 -48.053   8.772  1.00  0.00    -0.288 N 
HETATM    7  C   UNL     1     -44.446 -47.261   9.452  1.00  0.00     0.096 A 
HETATM    8  H   UNL     1     -43.812 -48.659   7.952  1.00  0.00     0.188 HD
ENDROOT
BRANCH   1   9
HETATM    9  C   UNL     1     -41.433 -46.606  11.281  1.00  0.00     0.291 C 
HETATM   10  N   UNL     1     -40.115 -46.743  10.628  1.00  0.00     0.098 N 
HETATM   11  C   UNL     1     -39.684 -45.389  10.252  1.00  0.00     0.302 C 
HETATM   12  H   UNL     1     -40.125 -47.395   9.809  1.00  0.00     0.317 HD
HETATM   13  C   UNL     1     -40.887 -44.480  10.472  1.00  0.00     0.148 C 
HETATM   14  C   UNL     1     -41.531 -45.130  11.676  1.00  0.00     0.077 C 
BRANCH  13  15
HETATM   15  O   UNL     1     -40.547 -43.131  10.662  1.00  0.00    -0.394 OA
HETATM   16  H   UNL     1     -41.163 -42.580  10.111  1.00  0.00     0.210 HD
ENDBRANCH  13  15
ENDBRANCH   1   9
BRANCH   7  17
HETATM   17  C   UNL     1     -45.905 -47.118   9.138  1.00  0.00     0.073 C 
HETATM   18  C   UNL     1     -46.509 -48.444   8.683  1.00  0.00     0.013 C 
ENDBRANCH   7  17
TORSDOF 3
ENDMDL
MODEL 2
REMARK VINA RESULT:      -5.5      4.377      5.171
REMARK  3 active torsions:
REMARK  status: ('A' for Active; 'I' for Inactive)
REMARK    1  A    between atoms: C_1  and  C_8 
REMARK    2  A    between atoms: C_7  and  C_14 
REMARK    3  A    between atoms: C_12  and  O_13 
ROOT
HETATM    1  C   UNL     1     -42.039 -49.272  11.511  1.00  0.00     0.131 A 
HETATM    2  N   UNL     1     -43.158 -48.533  11.351  1.00  0.00    -0.332 N 
ATOM      3  HN  UNL     1     -43.985 -48.500  11.947  1.00  0.00     0.168 HD
HETATM    4  N   UNL     1     -41.150 -49.048  10.519  1.00  0.00    -0.286 N 
ATOM      5  HN  UNL     1     -40.232 -49.479  10.413  1.00  0.00     0.188 HD
HETATM    6  N   UNL     1     -41.706 -48.159   9.713  1.00  0.00    -0.288 N 
HETATM    7  C   UNL     1     -42.917 -47.852  10.215  1.00  0.00     0.096 A 
HETATM    8  H   UNL     1     -41.266 -47.783   8.847  1.00  0.00     0.188 HD
ENDROOT
BRANCH   1   9
HETATM    9  C   UNL     1     -41.826 -50.204  12.690  1.00  0.00     0.291 C 
HETATM   10  N   UNL     1     -42.999 -51.080  12.889  1.00  0.00     0.098 N 
HETATM   11  C   UNL     1     -42.619 -52.416  12.409  1.00  0.00     0.302 C 
HETATM   12  H   UNL     1     -43.865 -50.724  12.420  1.00  0.00     0.317 HD
HETATM   13  C   UNL     1     -41.284 -52.250  11.693  1.00  0.00     0.148 C 
HETATM   14  C   UNL     1     -40.641 -51.158  12.519  1.00  0.00     0.077 C 
BRANCH  13  15
HETATM   15  O   UNL     1     -40.532 -53.434  11.622  1.00  0.00    -0.394 OA
HETATM   16  H   UNL     1     -39.574 -53.195  11.732  1.00  0.00     0.210 HD
ENDBRANCH  13  15
ENDBRANCH   1   9
BRANCH   7  17
HETATM   17  C   UNL     1     -43.876 -46.887   9.586  1.00  0.00     0.073 C 
HETATM   18  C   UNL     1     -45.278 -47.482   9.486  1.00  0.00     0.013 C 
ENDBRANCH   7  17
TORSDOF 3
ENDMDL
MODEL 3
REMARK VINA RESULT:      -5.3      3.393      4.683
REMARK  3 active torsions:
REMARK  status: ('A' for Active; 'I' for Inactive)
REMARK    1  A    between atoms: C_1  and  C_8 
REMARK    2  A    between atoms: C_7  and  C_14 
REMARK    3  A    between atoms: C_12  and  O_13 
ROOT
HETATM    1  C   UNL     1     -42.014 -48.348  10.787  1.00  0.00     0.131 A 
HETATM    2  N   UNL     1     -42.016 -49.104  11.906  1.00  0.00    -0.332 N 
ATOM      3  HN  UNL     1     -42.562 -48.974  12.757  1.00  0.00     0.168 HD
HETATM    4  N   UNL     1     -41.161 -48.834   9.861  1.00  0.00    -0.286 N 
ATOM      5  HN  UNL     1     -40.980 -48.447   8.935  1.00  0.00     0.188 HD
HETATM    6  N   UNL     1     -40.606 -49.911  10.393  1.00  0.00    -0.288 N 
HETATM    7  C   UNL     1     -41.121 -50.070  11.627  1.00  0.00     0.096 A 
HETATM    8  H   UNL     1     -39.895 -50.509   9.921  1.00  0.00     0.188 HD
ENDROOT
BRANCH   1   9
HETATM    9  C   UNL     1     -42.901 -47.128  10.613  1.00  0.00     0.291 C 
HETATM   10  N   UNL     1     -42.417 -46.278   9.505  1.00  0.00     0.098 N 
HETATM   11  C   UNL     1     -43.338 -46.484   8.379  1.00  0.00     0.302 C 
HETATM   12  H   UNL     1     -41.422 -46.469   9.243  1.00  0.00     0.317 HD
HETATM   13  C   UNL     1     -44.227 -47.661   8.761  1.00  0.00     0.148 C 
HETATM   14  C   UNL     1     -44.352 -47.462  10.255  1.00  0.00     0.077 C 
BRANCH  13  15
HETATM   15  O   UNL     1     -45.455 -47.684   8.080  1.00  0.00    -0.394 OA
HETATM   16  H   UNL     1     -46.094 -48.217   8.622  1.00  0.00     0.210 HD
ENDBRANCH  13  15
ENDBRANCH   1   9
BRANCH   7  17
HETATM   17  C   UNL     1     -40.740 -51.171  12.569  1.00  0.00     0.073 C 
HETATM   18  C   UNL     1     -41.174 -52.534  12.037  1.00  0.00     0.013 C 
ENDBRANCH   7  17
TORSDOF 3
ENDMDL
MODEL 4
REMARK VINA RESULT:      -5.2      1.857      2.212
REMARK  3 active torsions:
REMARK  status: ('A' for Active; 'I' for Inactive)
REMARK    1  A    between atoms: C_1  and  C_8 
REMARK    2  A    between atoms: C_7  and  C_14 
REMARK    3  A    between atoms: C_12  and  O_13 
ROOT
HETATM    1  C   UNL     1     -43.219 -46.344   9.575  1.00  0.00     0.131 A 
HETATM    2  N   UNL     1     -44.453 -46.826   9.836  1.00  0.00    -0.332 N 
ATOM      3  HN  UNL     1     -45.016 -46.703  10.677  1.00  0.00     0.168 HD
HETATM    4  N   UNL     1     -42.791 -46.711   8.348  1.00  0.00    -0.286 N 
ATOM      5  HN  UNL     1     -41.898 -46.474   7.916  1.00  0.00     0.188 HD
HETATM    6  N   UNL     1     -43.760 -47.439   7.817  1.00  0.00    -0.288 N 
HETATM    7  C   UNL     1     -44.759 -47.509   8.717  1.00  0.00     0.096 A 
HETATM    8  H   UNL     1     -43.728 -47.873   6.871  1.00  0.00     0.188 HD
ENDROOT
BRANCH   1   9
HETATM    9  C   UNL     1     -42.449 -45.473  10.551  1.00  0.00     0.291 C 
HETATM   10  N   UNL     1     -42.898 -45.712  11.939  1.00  0.00     0.098 N 
HETATM   11  C   UNL     1     -41.846 -46.502  12.595  1.00  0.00     0.302 C 
HETATM   12  H   UNL     1     -43.834 -46.176  11.996  1.00  0.00     0.317 HD
HETATM   13  C   UNL     1     -40.887 -46.936  11.494  1.00  0.00     0.148 C 
HETATM   14  C   UNL     1     -40.942 -45.742  10.568  1.00  0.00     0.077 C 
BRANCH  13  15
HETATM   15  O   UNL     1     -39.597 -47.242  11.959  1.00  0.00    -0.394 OA
HETATM   16  H   UNL     1     -39.210 -47.930  11.356  1.00  0.00     0.210 HD
ENDBRANCH  13  15
ENDBRANCH   1   9
BRANCH   7  17
HETATM   17  C   UNL     1     -46.040 -48.258   8.504  1.00  0.00     0.073 C 
HETATM   18  C   UNL     1     -47.218 -47.545   9.162  1.00  0.00     0.013 C 
ENDBRANCH   7  17
TORSDOF 3
ENDMDL
MODEL 5
REMARK VINA RESULT:      -5.1      3.338      5.227
REMARK  3 active torsions:
REMARK  status: ('A' for Active; 'I' for Inactive)
REMARK    1  A    between atoms: C_1  and  C_8 
REMARK    2  A    between atoms: C_7  and  C_14 
REMARK    3  A    between atoms: C_12  and  O_13 
ROOT
HETATM    1  C   UNL     1     -40.792 -48.150  11.036  1.00  0.00     0.131 A 
HETATM    2  N   UNL     1     -39.528 -48.119  11.511  1.00  0.00    -0.332 N 
ATOM      3  HN  UNL     1     -39.049 -47.355  11.986  1.00  0.00     0.168 HD
HETATM    4  N   UNL     1     -41.081 -49.341  10.469  1.00  0.00    -0.286 N 
ATOM      5  HN  UNL     1     -41.966 -49.615  10.042  1.00  0.00     0.188 HD
HETATM    6  N   UNL     1     -39.990 -50.080  10.578  1.00  0.00    -0.288 N 
HETATM    7  C   UNL     1     -39.055 -49.341  11.204  1.00  0.00     0.096 A 
HETATM    8  H   UNL     1     -39.896 -51.058  10.229  1.00  0.00     0.188 HD
ENDROOT
BRANCH   1   9
HETATM    9  C   UNL     1     -41.754 -46.982  11.171  1.00  0.00     0.291 C 
HETATM   10  N   UNL     1     -41.790 -46.183   9.928  1.00  0.00     0.098 N 
HETATM   11  C   UNL     1     -43.058 -46.498   9.257  1.00  0.00     0.302 C 
HETATM   12  H   UNL     1     -40.963 -46.346   9.308  1.00  0.00     0.317 HD
HETATM   13  C   UNL     1     -43.653 -47.687  10.002  1.00  0.00     0.148 C 
HETATM   14  C   UNL     1     -43.205 -47.401  11.418  1.00  0.00     0.077 C 
BRANCH  13  15
HETATM   15  O   UNL     1     -45.045 -47.805   9.853  1.00  0.00    -0.394 OA
HETATM   16  H   UNL     1     -45.247 -47.832   8.881  1.00  0.00     0.210 HD
ENDBRANCH  13  15
ENDBRANCH   1   9
BRANCH   7  17
HETATM   17  C   UNL     1     -37.665 -49.813  11.509  1.00  0.00     0.073 C 
HETATM   18  C   UNL     1     -37.661 -50.837  12.640  1.00  0.00     0.013 C 
ENDBRANCH   7  17
TORSDOF 3
ENDMDL
MODEL 6
REMARK VINA RESULT:      -5.1      2.932      3.479
REMARK  3 active torsions:
REMARK  status: ('A' for Active; 'I' for Inactive)
REMARK    1  A    between atoms: C_1  and  C_8 
REMARK    2  A    between atoms: C_7  and  C_14 
REMARK    3  A    between atoms: C_12  and  O_13 
ROOT
HETATM    1  C   UNL     1     -42.635 -48.184  10.707  1.00  0.00     0.131 A 
HETATM    2  N   UNL     1     -43.949 -47.877  10.729  1.00  0.00    -0.332 N 
ATOM      3  HN  UNL     1     -44.600 -47.935  11.512  1.00  0.00     0.168 HD
HETATM    4  N   UNL     1     -42.095 -47.974   9.487  1.00  0.00    -0.286 N 
ATOM      5  HN  UNL     1     -41.125 -48.127   9.213  1.00  0.00     0.188 HD
HETATM    6  N   UNL     1     -43.076 -47.530   8.718  1.00  0.00    -0.288 N 
HETATM    7  C   UNL     1     -44.193 -47.475   9.468  1.00  0.00     0.096 A 
HETATM    8  H   UNL     1     -42.976 -47.279   7.711  1.00  0.00     0.188 HD
ENDROOT
BRANCH   1   9
HETATM    9  C   UNL     1     -41.879 -48.672  11.931  1.00  0.00     0.291 C 
HETATM   10  N   UNL     1     -42.156 -50.101  12.186  1.00  0.00     0.098 N 
HETATM   11  C   UNL     1     -40.959 -50.846  11.773  1.00  0.00     0.302 C 
HETATM   12  H   UNL     1     -43.021 -50.446  11.708  1.00  0.00     0.317 HD
HETATM   13  C   UNL     1     -40.069 -49.852  11.035  1.00  0.00     0.148 C 
HETATM   14  C   UNL     1     -40.357 -48.578  11.797  1.00  0.00     0.077 C 
BRANCH  13  15
HETATM   15  O   UNL     1     -38.712 -50.216  11.017  1.00  0.00    -0.394 OA
HETATM   16  H   UNL     1     -38.660 -51.189  10.824  1.00  0.00     0.210 HD
ENDBRANCH  13  15
ENDBRANCH   1   9
BRANCH   7  17
HETATM   17  C   UNL     1     -45.533 -47.035   8.962  1.00  0.00     0.073 C 
HETATM   18  C   UNL     1     -46.497 -48.212   8.843  1.00  0.00     0.013 C 
ENDBRANCH   7  17
TORSDOF 3
ENDMDL
MODEL 7
REMARK VINA RESULT:      -5.0      4.558      5.172
REMARK  3 active torsions:
REMARK  status: ('A' for Active; 'I' for Inactive)
REMARK    1  A    between atoms: C_1  and  C_8 
REMARK    2  A    between atoms: C_7  and  C_14 
REMARK    3  A    between atoms: C_12  and  O_13 
ROOT
HETATM    1  C   UNL     1     -41.499 -50.442  12.033  1.00  0.00     0.131 A 
HETATM    2  N   UNL     1     -42.397 -51.121  12.779  1.00  0.00    -0.332 N 
ATOM      3  HN  UNL     1     -43.013 -50.764  13.509  1.00  0.00     0.168 HD
HETATM    4  N   UNL     1     -40.867 -51.252  11.157  1.00  0.00    -0.286 N 
ATOM      5  HN  UNL     1     -40.150 -50.982  10.484  1.00  0.00     0.188 HD
HETATM    6  N   UNL     1     -41.364 -52.464  11.345  1.00  0.00    -0.288 N 
HETATM    7  C   UNL     1     -42.284 -52.382  12.324  1.00  0.00     0.096 A 
HETATM    8  H   UNL     1     -41.073 -53.314  10.818  1.00  0.00     0.188 HD
ENDROOT
BRANCH   1   9
HETATM    9  C   UNL     1     -41.276 -48.946  12.167  1.00  0.00     0.291 C 
HETATM   10  N   UNL     1     -40.712 -48.383  10.923  1.00  0.00     0.098 N 
HETATM   11  C   UNL     1     -41.800 -47.652  10.257  1.00  0.00     0.302 C 
HETATM   12  H   UNL     1     -40.283 -49.106  10.300  1.00  0.00     0.317 HD
HETATM   13  C   UNL     1     -43.078 -48.007  11.007  1.00  0.00     0.148 C 
HETATM   14  C   UNL     1     -42.558 -48.149  12.421  1.00  0.00     0.077 C 
BRANCH  13  15
HETATM   15  O   UNL     1     -44.099 -47.053  10.864  1.00  0.00    -0.394 OA
HETATM   16  H   UNL     1     -43.672 -46.176  10.672  1.00  0.00     0.210 HD
ENDBRANCH  13  15
ENDBRANCH   1   9
BRANCH   7  17
HETATM   17  C   UNL     1     -43.070 -53.547  12.848  1.00  0.00     0.073 C 
HETATM   18  C   UNL     1     -42.298 -54.297  13.931  1.00  0.00     0.013 C 
ENDBRANCH   7  17
TORSDOF 3
ENDMDL
MODEL 8
REMARK VINA RESULT:      -5.0      6.072      7.353
REMARK  3 active torsions:
REMARK  status: ('A' for Active; 'I' for Inactive)
REMARK    1  A    between atoms: C_1  and  C_8 
REMARK    2  A    between atoms: C_7  and  C_14 
REMARK    3  A    between atoms: C_12  and  O_13 
ROOT
HETATM    1  C   UNL     1     -42.098 -52.126  12.467  1.00  0.00     0.131 A 
HETATM    2  N   UNL     1     -42.071 -50.812  12.774  1.00  0.00    -0.332 N 
ATOM      3  HN  UNL     1     -42.551 -50.329  13.533  1.00  0.00     0.168 HD
HETATM    4  N   UNL     1     -41.330 -52.401  11.391  1.00  0.00    -0.286 N 
ATOM      5  HN  UNL     1     -41.181 -53.314  10.963  1.00  0.00     0.188 HD
HETATM    6  N   UNL     1     -40.808 -51.249  11.002  1.00  0.00    -0.288 N 
HETATM    7  C   UNL     1     -41.258 -50.292  11.835  1.00  0.00     0.096 A 
HETATM    8  H   UNL     1     -40.168 -51.130  10.188  1.00  0.00     0.188 HD
ENDROOT
BRANCH   1   9
HETATM    9  C   UNL     1     -42.879 -53.147  13.274  1.00  0.00     0.291 C 
HETATM   10  N   UNL     1     -43.508 -52.518  14.454  1.00  0.00     0.098 N 
HETATM   11  C   UNL     1     -44.943 -52.401  14.158  1.00  0.00     0.302 C 
HETATM   12  H   UNL     1     -43.081 -51.597  14.708  1.00  0.00     0.317 HD
HETATM   13  C   UNL     1     -45.105 -52.743  12.682  1.00  0.00     0.148 C 
HETATM   14  C   UNL     1     -44.033 -53.795  12.504  1.00  0.00     0.077 C 
BRANCH  13  15
HETATM   15  O   UNL     1     -46.397 -53.178  12.343  1.00  0.00    -0.394 OA
HETATM   16  H   UNL     1     -46.623 -52.800  11.453  1.00  0.00     0.210 HD
ENDBRANCH  13  15
ENDBRANCH   1   9
BRANCH   7  17
HETATM   17  C   UNL     1     -40.909 -48.839  11.725  1.00  0.00     0.073 C 
HETATM   18  C   UNL     1     -41.639 -48.179  10.558  1.00  0.00     0.013 C 
ENDBRANCH   7  17
TORSDOF 3
ENDMDL
MODEL 9
REMARK VINA RESULT:      -4.9      2.722      5.103
REMARK  3 active torsions:
REMARK  status: ('A' for Active; 'I' for Inactive)
REMARK    1  A    between atoms: C_1  and  C_8 
REMARK    2  A    between atoms: C_7  and  C_14 
REMARK    3  A    between atoms: C_12  and  O_13 
ROOT
HETATM    1  C   UNL     1     -42.632 -46.556   9.994  1.00  0.00     0.131 A 
HETATM    2  N   UNL     1     -41.549 -47.359  10.055  1.00  0.00    -0.332 N 
ATOM      3  HN  UNL     1     -41.102 -47.878   9.300  1.00  0.00     0.168 HD
HETATM    4  N   UNL     1     -42.932 -46.032  11.202  1.00  0.00    -0.286 N 
ATOM      5  HN  UNL     1     -43.699 -45.397  11.419  1.00  0.00     0.188 HD
HETATM    6  N   UNL     1     -42.032 -46.507  12.048  1.00  0.00    -0.288 N 
HETATM    7  C   UNL     1     -41.201 -47.309  11.355  1.00  0.00     0.096 A 
HETATM    8  H   UNL     1     -41.998 -46.288  13.066  1.00  0.00     0.188 HD
ENDROOT
BRANCH   1   9
HETATM    9  C   UNL     1     -43.379 -46.272   8.703  1.00  0.00     0.291 C 
HETATM   10  N   UNL     1     -43.193 -47.372   7.733  1.00  0.00     0.098 N 
HETATM   11  C   UNL     1     -44.451 -48.130   7.704  1.00  0.00     0.302 C 
HETATM   12  H   UNL     1     -42.370 -47.980   7.952  1.00  0.00     0.317 HD
HETATM   13  C   UNL     1     -45.294 -47.606   8.861  1.00  0.00     0.148 C 
HETATM   14  C   UNL     1     -44.894 -46.147   8.878  1.00  0.00     0.077 C 
BRANCH  13  15
HETATM   15  O   UNL     1     -46.673 -47.821   8.696  1.00  0.00    -0.394 OA
HETATM   16  H   UNL     1     -47.122 -46.936   8.699  1.00  0.00     0.210 HD
ENDBRANCH  13  15
ENDBRANCH   1   9
BRANCH   7  17
HETATM   17  C   UNL     1     -40.048 -48.056  11.954  1.00  0.00     0.073 C 
HETATM   18  C   UNL     1     -39.430 -47.285  13.117  1.00  0.00     0.013 C 
ENDBRANCH   7  17
TORSDOF 3
ENDMDL
