MODEL 1
REMARK VINA RESULT:      -5.5      0.000      0.000
REMARK  3 active torsions:
REMARK  status: ('A' for Active; 'I' for Inactive)
REMARK       I    between atoms: C_2  and  N_4 
REMARK    1  A    between atoms: N_4  and  C_5 
REMARK    2  A    between atoms: C_5  and  C_6 
REMARK    3  A    between atoms: C_11  and  N_13 
ROOT
HETATM    1  C   UNL     1     -41.016 -53.824  13.642  1.00  0.00    -0.036 A 
HETATM    2  C   UNL     1     -40.571 -53.003  12.612  1.00  0.00     0.026 A 
HETATM    3  C   UNL     1     -41.518 -52.432  11.786  1.00  0.00     0.090 A 
HETATM    4  N   UNL     1     -42.851 -52.625  11.917  1.00  0.00    -0.352 N 
ATOM      5  HN  UNL     1     -43.506 -52.163  11.287  1.00  0.00     0.166 HD
HETATM    6  C   UNL     1     -43.300 -53.441  12.894  1.00  0.00     0.103 A 
HETATM    7  C   UNL     1     -42.394 -54.058  13.758  1.00  0.00     0.057 A 
ENDROOT
BRANCH   1   8
HETATM    8  C   UNL     1     -40.056 -54.448  14.611  1.00  0.00     0.161 C 
BRANCH   8   9
HETATM    9  N   UNL     1     -40.742 -55.018  15.745  1.00  0.00    -0.357 N 
HETATM   10  C   UNL     1     -40.141 -55.998  16.498  1.00  0.00     0.213 C 
HETATM   11  C   UNL     1     -40.981 -56.472  17.650  1.00  0.00     0.117 C 
HETATM   12  O   UNL     1     -39.028 -56.452  16.260  1.00  0.00    -0.274 OA
HETATM   13  H   UNL     1     -41.642 -54.645  16.017  1.00  0.00     0.162 HD
ENDBRANCH   8   9
ENDBRANCH   1   8
BRANCH   6  14
HETATM   14  N   UNL     1     -44.655 -53.616  13.034  1.00  0.00    -0.363 N 
HETATM   15  C   UNL     1     -45.650 -52.608  12.671  1.00  0.00     0.150 C 
HETATM   16  C   UNL     1     -46.554 -52.304  13.879  1.00  0.00     0.187 C 
HETATM   17  O   UNL     1     -47.138 -53.498  14.423  1.00  0.00    -0.388 OA
HETATM   18  C   UNL     1     -46.104 -54.395  14.869  1.00  0.00     0.187 C 
HETATM   19  C   UNL     1     -45.180 -54.805  13.715  1.00  0.00     0.150 C 
ENDBRANCH   6  14
TORSDOF 3
ENDMDL
MODEL 2
REMARK VINA RESULT:      -5.4      2.853      4.306
REMARK  3 active torsions:
REMARK  status: ('A' for Active; 'I' for Inactive)
REMARK       I    between atoms: C_2  and  N_4 
REMARK    1  A    between atoms: N_4  and  C_5 
REMARK    2  A    between atoms: C_5  and  C_6 
REMARK    3  A    between atoms: C_11  and  N_13 
ROOT
HETATM    1  C   UNL     1     -41.494 -51.705  12.300  1.00  0.00    -0.036 A 
HETATM    2  C   UNL     1     -40.624 -52.777  12.462  1.00  0.00     0.026 A 
HETATM    3  C   UNL     1     -41.163 -54.000  12.809  1.00  0.00     0.090 A 
HETATM    4  N   UNL     1     -42.484 -54.216  13.004  1.00  0.00    -0.352 N 
ATOM      5  HN  UNL     1     -42.828 -55.146  13.242  1.00  0.00     0.166 HD
HETATM    6  C   UNL     1     -43.341 -53.180  12.876  1.00  0.00     0.103 A 
HETATM    7  C   UNL     1     -42.860 -51.915  12.537  1.00  0.00     0.057 A 
ENDROOT
BRANCH   1   8
HETATM    8  C   UNL     1     -40.996 -50.353  11.880  1.00  0.00     0.161 C 
BRANCH   8   9
HETATM    9  N   UNL     1     -39.687 -50.433  11.280  1.00  0.00    -0.357 N 
HETATM   10  C   UNL     1     -38.624 -49.770  11.843  1.00  0.00     0.213 C 
HETATM   11  C   UNL     1     -37.330 -49.970  11.105  1.00  0.00     0.117 C 
HETATM   12  O   UNL     1     -38.711 -49.076  12.849  1.00  0.00    -0.274 OA
HETATM   13  H   UNL     1     -39.547 -51.033  10.477  1.00  0.00     0.162 HD
ENDBRANCH   8   9
ENDBRANCH   1   8
BRANCH   6  14
HETATM   14  N   UNL     1     -44.683 -53.412  13.054  1.00  0.00    -0.363 N 
HETATM   15  C   UNL     1     -45.725 -52.421  12.790  1.00  0.00     0.150 C 
HETATM   16  C   UNL     1     -46.592 -52.222  14.046  1.00  0.00     0.187 C 
HETATM   17  O   UNL     1     -47.114 -53.466  14.538  1.00  0.00    -0.388 OA
HETATM   18  C   UNL     1     -46.033 -54.350  14.890  1.00  0.00     0.187 C 
HETATM   19  C   UNL     1     -45.141 -54.657  13.681  1.00  0.00     0.150 C 
ENDBRANCH   6  14
TORSDOF 3
ENDMDL
MODEL 3
REMARK VINA RESULT:      -5.4      4.024      6.874
REMARK  3 active torsions:
REMARK  status: ('A' for Active; 'I' for Inactive)
REMARK       I    between atoms: C_2  and  N_4 
REMARK    1  A    between atoms: N_4  and  C_5 
REMARK    2  A    between atoms: C_5  and  C_6 
REMARK    3  A    between atoms: C_11  and  N_13 
ROOT
HETATM    1  C   UNL     1     -40.825 -49.128  11.448  1.00  0.00    -0.036 A 
HETATM    2  C   UNL     1     -39.445 -49.112  11.616  1.00  0.00     0.026 A 
HETATM    3  C   UNL     1     -38.834 -50.269  12.057  1.00  0.00     0.090 A 
HETATM    4  N   UNL     1     -39.498 -51.414  12.339  1.00  0.00    -0.352 N 
ATOM      5  HN  UNL     1     -38.992 -52.244  12.646  1.00  0.00     0.166 HD
HETATM    6  C   UNL     1     -40.842 -51.439  12.208  1.00  0.00     0.103 A 
HETATM    7  C   UNL     1     -41.521 -50.300  11.775  1.00  0.00     0.057 A 
ENDROOT
BRANCH   1   8
HETATM    8  C   UNL     1     -41.561 -47.927  10.930  1.00  0.00     0.161 C 
BRANCH   8   9
HETATM    9  N   UNL     1     -41.977 -48.110   9.562  1.00  0.00    -0.357 N 
HETATM   10  C   UNL     1     -43.200 -47.645   9.140  1.00  0.00     0.213 C 
HETATM   11  C   UNL     1     -43.472 -47.901   7.685  1.00  0.00     0.117 C 
HETATM   12  O   UNL     1     -44.001 -47.078   9.874  1.00  0.00    -0.274 OA
HETATM   13  H   UNL     1     -41.334 -48.526   8.900  1.00  0.00     0.162 HD
ENDBRANCH   8   9
ENDBRANCH   1   8
BRANCH   6  14
HETATM   14  N   UNL     1     -41.506 -52.611  12.476  1.00  0.00    -0.363 N 
HETATM   15  C   UNL     1     -42.962 -52.746  12.465  1.00  0.00     0.150 C 
HETATM   16  C   UNL     1     -43.448 -53.305  13.813  1.00  0.00     0.187 C 
HETATM   17  O   UNL     1     -42.775 -54.526  14.159  1.00  0.00    -0.388 OA
HETATM   18  C   UNL     1     -41.359 -54.295  14.269  1.00  0.00     0.187 C 
HETATM   19  C   UNL     1     -40.768 -53.788  12.948  1.00  0.00     0.150 C 
ENDBRANCH   6  14
TORSDOF 3
ENDMDL
MODEL 4
REMARK VINA RESULT:      -5.3      2.320      6.016
REMARK  3 active torsions:
REMARK  status: ('A' for Active; 'I' for Inactive)
REMARK       I    between atoms: C_2  and  N_4 
REMARK    1  A    between atoms: N_4  and  C_5 
REMARK    2  A    between atoms: C_5  and  C_6 
REMARK    3  A    between atoms: C_11  and  N_13 
ROOT
HETATM    1  C   UNL     1     -43.560 -54.802  14.495  1.00  0.00    -0.036 A 
HETATM    2  C   UNL     1     -43.134 -55.455  15.646  1.00  0.00     0.026 A 
HETATM    3  C   UNL     1     -41.805 -55.334  16.003  1.00  0.00     0.090 A 
HETATM    4  N   UNL     1     -40.895 -54.624  15.298  1.00  0.00    -0.352 N 
ATOM      5  HN  UNL     1     -39.929 -54.556  15.619  1.00  0.00     0.166 HD
HETATM    6  C   UNL     1     -41.285 -54.007  14.162  1.00  0.00     0.103 A 
HETATM    7  C   UNL     1     -42.612 -54.096  13.741  1.00  0.00     0.057 A 
ENDROOT
BRANCH   1   8
HETATM    8  C   UNL     1     -44.996 -54.845  14.061  1.00  0.00     0.161 C 
BRANCH   8   9
HETATM    9  N   UNL     1     -45.665 -53.595  14.320  1.00  0.00    -0.357 N 
HETATM   10  C   UNL     1     -46.004 -52.761  13.281  1.00  0.00     0.213 C 
HETATM   11  C   UNL     1     -46.710 -51.509  13.719  1.00  0.00     0.117 C 
HETATM   12  O   UNL     1     -45.756 -53.004  12.106  1.00  0.00    -0.274 OA
HETATM   13  H   UNL     1     -45.940 -53.367  15.266  1.00  0.00     0.162 HD
ENDBRANCH   8   9
ENDBRANCH   1   8
BRANCH   6  14
HETATM   14  N   UNL     1     -40.360 -53.270  13.464  1.00  0.00    -0.363 N 
HETATM   15  C   UNL     1     -39.010 -52.982  13.948  1.00  0.00     0.150 C 
HETATM   16  C   UNL     1     -38.768 -51.463  13.954  1.00  0.00     0.187 C 
HETATM   17  O   UNL     1     -39.040 -50.873  12.673  1.00  0.00    -0.388 OA
HETATM   18  C   UNL     1     -40.417 -51.092  12.312  1.00  0.00     0.187 C 
HETATM   19  C   UNL     1     -40.743 -52.588  12.222  1.00  0.00     0.150 C 
ENDBRANCH   6  14
TORSDOF 3
ENDMDL
MODEL 5
REMARK VINA RESULT:      -5.3      3.007      5.036
REMARK  3 active torsions:
REMARK  status: ('A' for Active; 'I' for Inactive)
REMARK       I    between atoms: C_2  and  N_4 
REMARK    1  A    between atoms: N_4  and  C_5 
REMARK    2  A    between atoms: C_5  and  C_6 
REMARK    3  A    between atoms: C_11  and  N_13 
ROOT
HETATM    1  C   UNL     1     -41.517 -51.745  12.280  1.00  0.00    -0.036 A 
HETATM    2  C   UNL     1     -40.617 -52.788  12.464  1.00  0.00     0.026 A 
HETATM    3  C   UNL     1     -41.121 -54.020  12.832  1.00  0.00     0.090 A 
HETATM    4  N   UNL     1     -42.436 -54.270  13.027  1.00  0.00    -0.352 N 
ATOM      5  HN  UNL     1     -42.753 -55.206  13.281  1.00  0.00     0.166 HD
HETATM    6  C   UNL     1     -43.322 -53.262  12.880  1.00  0.00     0.103 A 
HETATM    7  C   UNL     1     -42.877 -51.991  12.518  1.00  0.00     0.057 A 
ENDROOT
BRANCH   1   8
HETATM    8  C   UNL     1     -41.057 -50.387  11.838  1.00  0.00     0.161 C 
BRANCH   8   9
HETATM    9  N   UNL     1     -42.165 -49.558  11.431  1.00  0.00    -0.357 N 
HETATM   10  C   UNL     1     -41.945 -48.277  10.985  1.00  0.00     0.213 C 
HETATM   11  C   UNL     1     -43.201 -47.556  10.585  1.00  0.00     0.117 C 
HETATM   12  O   UNL     1     -40.835 -47.762  10.918  1.00  0.00    -0.274 OA
HETATM   13  H   UNL     1     -43.097 -49.950  11.417  1.00  0.00     0.162 HD
ENDBRANCH   8   9
ENDBRANCH   1   8
BRANCH   6  14
HETATM   14  N   UNL     1     -44.657 -53.530  13.059  1.00  0.00    -0.363 N 
HETATM   15  C   UNL     1     -45.731 -52.602  12.707  1.00  0.00     0.150 C 
HETATM   16  C   UNL     1     -46.622 -52.340  13.933  1.00  0.00     0.187 C 
HETATM   17  O   UNL     1     -47.106 -53.562  14.513  1.00  0.00    -0.388 OA
HETATM   18  C   UNL     1     -45.999 -54.375  14.945  1.00  0.00     0.187 C 
HETATM   19  C   UNL     1     -45.079 -54.740  13.774  1.00  0.00     0.150 C 
ENDBRANCH   6  14
TORSDOF 3
ENDMDL
MODEL 6
REMARK VINA RESULT:      -5.2      3.223      6.395
REMARK  3 active torsions:
REMARK  status: ('A' for Active; 'I' for Inactive)
REMARK       I    between atoms: C_2  and  N_4 
REMARK    1  A    between atoms: N_4  and  C_5 
REMARK    2  A    between atoms: C_5  and  C_6 
REMARK    3  A    between atoms: C_11  and  N_13 
ROOT
HETATM    1  C   UNL     1     -42.537 -53.397  12.875  1.00  0.00    -0.036 A 
HETATM    2  C   UNL     1     -41.770 -54.241  13.671  1.00  0.00     0.026 A 
HETATM    3  C   UNL     1     -40.450 -53.901  13.887  1.00  0.00     0.090 A 
HETATM    4  N   UNL     1     -39.858 -52.800  13.370  1.00  0.00    -0.352 N 
ATOM      5  HN  UNL     1     -38.882 -52.590  13.578  1.00  0.00     0.166 HD
HETATM    6  C   UNL     1     -40.580 -51.984  12.573  1.00  0.00     0.103 A 
HETATM    7  C   UNL     1     -41.918 -52.275  12.307  1.00  0.00     0.057 A 
ENDROOT
BRANCH   1   8
HETATM    8  C   UNL     1     -43.992 -53.670  12.626  1.00  0.00     0.161 C 
BRANCH   8   9
HETATM    9  N   UNL     1     -44.836 -52.825  13.434  1.00  0.00    -0.357 N 
HETATM   10  C   UNL     1     -46.011 -52.328  12.924  1.00  0.00     0.213 C 
HETATM   11  C   UNL     1     -46.779 -51.481  13.899  1.00  0.00     0.117 C 
HETATM   12  O   UNL     1     -46.403 -52.545  11.784  1.00  0.00    -0.274 OA
HETATM   13  H   UNL     1     -44.586 -52.655  14.400  1.00  0.00     0.162 HD
ENDBRANCH   8   9
ENDBRANCH   1   8
BRANCH   6  14
HETATM   14  N   UNL     1     -39.979 -50.856  12.069  1.00  0.00    -0.363 N 
HETATM   15  C   UNL     1     -38.561 -50.542  12.239  1.00  0.00     0.150 C 
HETATM   16  C   UNL     1     -38.404 -49.151  12.878  1.00  0.00     0.187 C 
HETATM   17  O   UNL     1     -39.118 -48.143  12.145  1.00  0.00    -0.388 OA
HETATM   18  C   UNL     1     -40.523 -48.454  12.119  1.00  0.00     0.187 C 
HETATM   19  C   UNL     1     -40.787 -49.805  11.442  1.00  0.00     0.150 C 
ENDBRANCH   6  14
TORSDOF 3
ENDMDL
MODEL 7
REMARK VINA RESULT:      -5.2      2.933      4.164
REMARK  3 active torsions:
REMARK  status: ('A' for Active; 'I' for Inactive)
REMARK       I    between atoms: C_2  and  N_4 
REMARK    1  A    between atoms: N_4  and  C_5 
REMARK    2  A    between atoms: C_5  and  C_6 
REMARK    3  A    between atoms: C_11  and  N_13 
ROOT
HETATM    1  C   UNL     1     -39.751 -52.302  14.005  1.00  0.00    -0.036 A 
HETATM    2  C   UNL     1     -39.493 -53.668  14.015  1.00  0.00     0.026 A 
HETATM    3  C   UNL     1     -40.528 -54.523  13.692  1.00  0.00     0.090 A 
HETATM    4  N   UNL     1     -41.776 -54.112  13.371  1.00  0.00    -0.352 N 
ATOM      5  HN  UNL     1     -42.498 -54.789  13.123  1.00  0.00     0.166 HD
HETATM    6  C   UNL     1     -42.052 -52.790  13.383  1.00  0.00     0.103 A 
HETATM    7  C   UNL     1     -41.053 -51.873  13.710  1.00  0.00     0.057 A 
ENDROOT
BRANCH   1   8
HETATM    8  C   UNL     1     -38.671 -51.303  14.301  1.00  0.00     0.161 C 
BRANCH   8   9
HETATM    9  N   UNL     1     -38.407 -50.456  13.165  1.00  0.00    -0.357 N 
HETATM   10  C   UNL     1     -37.482 -50.833  12.220  1.00  0.00     0.213 C 
HETATM   11  C   UNL     1     -37.338 -49.849  11.093  1.00  0.00     0.117 C 
HETATM   12  O   UNL     1     -36.830 -51.868  12.281  1.00  0.00    -0.274 OA
HETATM   13  H   UNL     1     -38.953 -49.614  13.036  1.00  0.00     0.162 HD
ENDBRANCH   8   9
ENDBRANCH   1   8
BRANCH   6  14
HETATM   14  N   UNL     1     -43.316 -52.379  13.035  1.00  0.00    -0.363 N 
HETATM   15  C   UNL     1     -43.863 -51.061  13.353  1.00  0.00     0.150 C 
HETATM   16  C   UNL     1     -45.185 -51.214  14.125  1.00  0.00     0.187 C 
HETATM   17  O   UNL     1     -46.118 -52.053  13.427  1.00  0.00    -0.388 OA
HETATM   18  C   UNL     1     -45.562 -53.369  13.252  1.00  0.00     0.187 C 
HETATM   19  C   UNL     1     -44.263 -53.327  12.438  1.00  0.00     0.150 C 
ENDBRANCH   6  14
TORSDOF 3
ENDMDL
MODEL 8
REMARK VINA RESULT:      -5.1      6.372      9.334
REMARK  3 active torsions:
REMARK  status: ('A' for Active; 'I' for Inactive)
REMARK       I    between atoms: C_2  and  N_4 
REMARK    1  A    between atoms: N_4  and  C_5 
REMARK    2  A    between atoms: C_5  and  C_6 
REMARK    3  A    between atoms: C_11  and  N_13 
ROOT
HETATM    1  C   UNL     1     -40.206 -45.820  11.658  1.00  0.00    -0.036 A 
HETATM    2  C   UNL     1     -39.663 -44.886  12.533  1.00  0.00     0.026 A 
HETATM    3  C   UNL     1     -38.955 -45.355  13.622  1.00  0.00     0.090 A 
HETATM    4  N   UNL     1     -38.762 -46.666  13.890  1.00  0.00    -0.352 N 
ATOM      5  HN  UNL     1     -38.215 -46.955  14.700  1.00  0.00     0.166 HD
HETATM    6  C   UNL     1     -39.305 -47.588  13.066  1.00  0.00     0.103 A 
HETATM    7  C   UNL     1     -40.040 -47.181  11.953  1.00  0.00     0.057 A 
ENDROOT
BRANCH   1   8
HETATM    8  C   UNL     1     -40.951 -45.395  10.427  1.00  0.00     0.161 C 
BRANCH   8   9
HETATM    9  N   UNL     1     -41.757 -46.467   9.898  1.00  0.00    -0.357 N 
HETATM   10  C   UNL     1     -42.978 -46.201   9.325  1.00  0.00     0.213 C 
HETATM   11  C   UNL     1     -43.681 -47.424   8.809  1.00  0.00     0.117 C 
HETATM   12  O   UNL     1     -43.457 -45.076   9.241  1.00  0.00    -0.274 OA
HETATM   13  H   UNL     1     -41.387 -47.409   9.895  1.00  0.00     0.162 HD
ENDBRANCH   8   9
ENDBRANCH   1   8
BRANCH   6  14
HETATM   14  N   UNL     1     -39.087 -48.918  13.333  1.00  0.00    -0.363 N 
HETATM   15  C   UNL     1     -37.760 -49.515  13.477  1.00  0.00     0.150 C 
HETATM   16  C   UNL     1     -37.606 -50.694  12.500  1.00  0.00     0.187 C 
HETATM   17  O   UNL     1     -38.668 -51.649  12.643  1.00  0.00    -0.388 OA
HETATM   18  C   UNL     1     -39.936 -51.022  12.372  1.00  0.00     0.187 C 
HETATM   19  C   UNL     1     -40.208 -49.864  13.340  1.00  0.00     0.150 C 
ENDBRANCH   6  14
TORSDOF 3
ENDMDL
MODEL 9
REMARK VINA RESULT:      -5.0      4.715      8.266
REMARK  3 active torsions:
REMARK  status: ('A' for Active; 'I' for Inactive)
REMARK       I    between atoms: C_2  and  N_4 
REMARK    1  A    between atoms: N_4  and  C_5 
REMARK    2  A    between atoms: C_5  and  C_6 
REMARK    3  A    between atoms: C_11  and  N_13 
ROOT
HETATM    1  C   UNL     1     -42.656 -48.153  11.577  1.00  0.00    -0.036 A 
HETATM    2  C   UNL     1     -42.995 -47.705  12.849  1.00  0.00     0.026 A 
HETATM    3  C   UNL     1     -42.449 -48.362  13.933  1.00  0.00     0.090 A 
HETATM    4  N   UNL     1     -41.608 -49.417  13.832  1.00  0.00    -0.352 N 
ATOM      5  HN  UNL     1     -41.221 -49.854  14.668  1.00  0.00     0.166 HD
HETATM    6  C   UNL     1     -41.289 -49.883  12.606  1.00  0.00     0.103 A 
HETATM    7  C   UNL     1     -41.814 -49.269  11.468  1.00  0.00     0.057 A 
ENDROOT
BRANCH   1   8
HETATM    8  C   UNL     1     -43.169 -47.467  10.346  1.00  0.00     0.161 C 
BRANCH   8   9
HETATM    9  N   UNL     1     -44.512 -47.886  10.026  1.00  0.00    -0.357 N 
HETATM   10  C   UNL     1     -45.325 -47.083   9.263  1.00  0.00     0.213 C 
HETATM   11  C   UNL     1     -46.684 -47.672   9.008  1.00  0.00     0.117 C 
HETATM   12  O   UNL     1     -44.986 -45.988   8.829  1.00  0.00    -0.274 OA
HETATM   13  H   UNL     1     -44.826 -48.803  10.315  1.00  0.00     0.162 HD
ENDBRANCH   8   9
ENDBRANCH   1   8
BRANCH   6  14
HETATM   14  N   UNL     1     -40.418 -50.941  12.511  1.00  0.00    -0.363 N 
HETATM   15  C   UNL     1     -40.836 -52.341  12.453  1.00  0.00     0.150 C 
HETATM   16  C   UNL     1     -40.148 -53.141  13.572  1.00  0.00     0.187 C 
HETATM   17  O   UNL     1     -38.721 -52.982  13.544  1.00  0.00    -0.388 OA
HETATM   18  C   UNL     1     -38.376 -51.596  13.725  1.00  0.00     0.187 C 
HETATM   19  C   UNL     1     -38.972 -50.719  12.616  1.00  0.00     0.150 C 
ENDBRANCH   6  14
TORSDOF 3
ENDMDL
