MODEL 1
REMARK VINA RESULT:      -6.1      0.000      0.000
REMARK  5 active torsions:
REMARK  status: ('A' for Active; 'I' for Inactive)
REMARK    1  A    between atoms: C_2  and  O_3 
REMARK    2  A    between atoms: O_3  and  C_4 
REMARK    3  A    between atoms: C_6  and  N_7 
REMARK       I    between atoms: N_7  and  C_8 
REMARK    4  A    between atoms: C_8  and  C_10 
REMARK    5  A    between atoms: C_10  and  N_11 
ROOT
HETATM    1  C   UNL     1     -39.915 -50.971  12.934  1.00  0.00     0.133 C 
HETATM    2  C   UNL     1     -41.005 -50.450  11.940  1.00  0.00     0.059 C 
HETATM    3  C   UNL     1     -42.024 -50.835  13.029  1.00  0.00     0.098 C 
HETATM    4  C   UNL     1     -41.024 -51.975  13.434  1.00  0.00     0.006 C 
HETATM    5  C   UNL     1     -41.156 -52.360  14.904  1.00  0.00     0.014 C 
HETATM    6  C   UNL     1     -41.925 -53.692  14.896  1.00  0.00     0.001 C 
HETATM    7  C   UNL     1     -42.017 -54.160  13.447  1.00  0.00     0.001 C 
HETATM    8  C   UNL     1     -41.011 -53.317  12.690  1.00  0.00     0.014 C 
ENDROOT
BRANCH   3   9
HETATM    9  N   UNL     1     -43.361 -51.279  12.600  1.00  0.00    -0.354 N 
HETATM   10  C   UNL     1     -44.462 -51.072  13.413  1.00  0.00     0.237 C 
HETATM   11  O   UNL     1     -44.405 -50.446  14.473  1.00  0.00    -0.272 OA
HETATM   12  H   UNL     1     -43.458 -51.875  11.786  1.00  0.00     0.162 HD
BRANCH  10  13
HETATM   13  C   UNL     1     -45.761 -51.663  12.931  1.00  0.00     0.249 C 
BRANCH  13  14
HETATM   14  N   UNL     1     -45.896 -53.028  13.364  1.00  0.00    -0.264 N 
HETATM   15  C   UNL     1     -46.598 -53.531  14.412  1.00  0.00     0.213 A 
HETATM   16  N   UNL     1     -46.384 -54.826  14.472  1.00  0.00    -0.281 N 
HETATM   17  N   UNL     1     -45.531 -55.111  13.433  1.00  0.00    -0.008 NA
ATOM     18  HN  UNL     1     -46.771 -55.484  15.148  1.00  0.00     0.184 HD
HETATM   19  N   UNL     1     -45.223 -54.014  12.752  1.00  0.00    -0.005 NA
ENDBRANCH  13  14
ENDBRANCH  10  13
ENDBRANCH   3   9
BRANCH   1  20
HETATM   20  O   UNL     1     -38.731 -51.576  12.377  1.00  0.00    -0.385 OA
BRANCH  20  21
HETATM   21  C   UNL     1     -37.521 -50.835  12.485  1.00  0.00     0.163 C 
HETATM   22  C   UNL     1     -37.429 -49.896  11.299  1.00  0.00     0.033 C 
ENDBRANCH  20  21
ENDBRANCH   1  20
TORSDOF 5
ENDMDL
MODEL 2
REMARK VINA RESULT:      -5.8      3.199      6.502
REMARK  5 active torsions:
REMARK  status: ('A' for Active; 'I' for Inactive)
REMARK    1  A    between atoms: C_2  and  O_3 
REMARK    2  A    between atoms: O_3  and  C_4 
REMARK    3  A    between atoms: C_6  and  N_7 
REMARK       I    between atoms: N_7  and  C_8 
REMARK    4  A    between atoms: C_8  and  C_10 
REMARK    5  A    between atoms: C_10  and  N_11 
ROOT
HETATM    1  C   UNL     1     -44.308 -54.028  13.050  1.00  0.00     0.133 C 
HETATM    2  C   UNL     1     -43.483 -52.963  12.256  1.00  0.00     0.059 C 
HETATM    3  C   UNL     1     -42.263 -53.487  13.035  1.00  0.00     0.098 C 
HETATM    4  C   UNL     1     -43.259 -53.799  14.207  1.00  0.00     0.006 C 
HETATM    5  C   UNL     1     -42.770 -54.945  15.087  1.00  0.00     0.014 C 
HETATM    6  C   UNL     1     -42.236 -54.267  16.359  1.00  0.00     0.001 C 
HETATM    7  C   UNL     1     -42.628 -52.794  16.293  1.00  0.00     0.001 C 
HETATM    8  C   UNL     1     -43.677 -52.708  15.202  1.00  0.00     0.014 C 
ENDROOT
BRANCH   3   9
HETATM    9  N   UNL     1     -41.182 -52.539  13.349  1.00  0.00    -0.354 N 
HETATM   10  C   UNL     1     -39.893 -52.992  13.573  1.00  0.00     0.237 C 
HETATM   11  O   UNL     1     -39.566 -54.173  13.441  1.00  0.00    -0.272 OA
HETATM   12  H   UNL     1     -41.403 -51.572  13.558  1.00  0.00     0.162 HD
BRANCH  10  13
HETATM   13  C   UNL     1     -38.889 -51.953  13.996  1.00  0.00     0.249 C 
BRANCH  13  14
HETATM   14  N   UNL     1     -38.314 -51.298  12.851  1.00  0.00    -0.264 N 
HETATM   15  C   UNL     1     -38.825 -50.296  12.090  1.00  0.00     0.213 A 
HETATM   16  N   UNL     1     -37.986 -50.053  11.108  1.00  0.00    -0.281 N 
HETATM   17  N   UNL     1     -36.944 -50.931  11.282  1.00  0.00    -0.008 NA
ATOM     18  HN  UNL     1     -38.088 -49.357  10.370  1.00  0.00     0.184 HD
HETATM   19  N   UNL     1     -37.139 -51.701  12.345  1.00  0.00    -0.005 NA
ENDBRANCH  13  14
ENDBRANCH  10  13
ENDBRANCH   3   9
BRANCH   1  20
HETATM   20  O   UNL     1     -45.675 -53.712  13.378  1.00  0.00    -0.385 OA
BRANCH  20  21
HETATM   21  C   UNL     1     -46.260 -52.608  12.695  1.00  0.00     0.163 C 
HETATM   22  C   UNL     1     -46.578 -51.532  13.714  1.00  0.00     0.033 C 
ENDBRANCH  20  21
ENDBRANCH   1  20
TORSDOF 5
ENDMDL
MODEL 3
REMARK VINA RESULT:      -5.5      3.446      6.648
REMARK  5 active torsions:
REMARK  status: ('A' for Active; 'I' for Inactive)
REMARK    1  A    between atoms: C_2  and  O_3 
REMARK    2  A    between atoms: O_3  and  C_4 
REMARK    3  A    between atoms: C_6  and  N_7 
REMARK       I    between atoms: N_7  and  C_8 
REMARK    4  A    between atoms: C_8  and  C_10 
REMARK    5  A    between atoms: C_10  and  N_11 
ROOT
HETATM    1  C   UNL     1     -42.770 -53.727  13.408  1.00  0.00     0.133 C 
HETATM    2  C   UNL     1     -41.360 -53.808  12.736  1.00  0.00     0.059 C 
HETATM    3  C   UNL     1     -40.897 -52.849  13.848  1.00  0.00     0.098 C 
HETATM    4  C   UNL     1     -42.353 -52.264  13.825  1.00  0.00     0.006 C 
HETATM    5  C   UNL     1     -42.754 -51.667  15.171  1.00  0.00     0.014 C 
HETATM    6  C   UNL     1     -42.653 -50.146  14.975  1.00  0.00     0.001 C 
HETATM    7  C   UNL     1     -42.427 -49.889  13.488  1.00  0.00     0.001 C 
HETATM    8  C   UNL     1     -42.762 -51.198  12.801  1.00  0.00     0.014 C 
ENDROOT
BRANCH   3   9
HETATM    9  N   UNL     1     -39.820 -51.896  13.536  1.00  0.00    -0.354 N 
HETATM   10  C   UNL     1     -38.949 -51.472  14.525  1.00  0.00     0.237 C 
HETATM   11  O   UNL     1     -38.970 -51.920  15.673  1.00  0.00    -0.272 OA
HETATM   12  H   UNL     1     -39.806 -51.425  12.638  1.00  0.00     0.162 HD
BRANCH  10  13
HETATM   13  C   UNL     1     -37.956 -50.412  14.126  1.00  0.00     0.249 C 
BRANCH  13  14
HETATM   14  N   UNL     1     -37.538 -50.590  12.760  1.00  0.00    -0.264 N 
HETATM   15  C   UNL     1     -37.727 -49.773  11.692  1.00  0.00     0.213 A 
HETATM   16  N   UNL     1     -37.234 -50.364  10.627  1.00  0.00    -0.281 N 
HETATM   17  N   UNL     1     -36.736 -51.568  11.064  1.00  0.00    -0.008 NA
ATOM     18  HN  UNL     1     -37.223 -50.004   9.672  1.00  0.00     0.184 HD
HETATM   19  N   UNL     1     -36.922 -51.716  12.370  1.00  0.00    -0.005 NA
ENDBRANCH  13  14
ENDBRANCH  10  13
ENDBRANCH   3   9
BRANCH   1  20
HETATM   20  O   UNL     1     -43.928 -53.826  12.555  1.00  0.00    -0.385 OA
BRANCH  20  21
HETATM   21  C   UNL     1     -45.198 -53.845  13.198  1.00  0.00     0.163 C 
HETATM   22  C   UNL     1     -45.379 -55.198  13.857  1.00  0.00     0.033 C 
ENDBRANCH  20  21
ENDBRANCH   1  20
TORSDOF 5
ENDMDL
MODEL 4
REMARK VINA RESULT:      -5.4      1.993      2.711
REMARK  5 active torsions:
REMARK  status: ('A' for Active; 'I' for Inactive)
REMARK    1  A    between atoms: C_2  and  O_3 
REMARK    2  A    between atoms: O_3  and  C_4 
REMARK    3  A    between atoms: C_6  and  N_7 
REMARK       I    between atoms: N_7  and  C_8 
REMARK    4  A    between atoms: C_8  and  C_10 
REMARK    5  A    between atoms: C_10  and  N_11 
ROOT
HETATM    1  C   UNL     1     -40.905 -51.164  12.258  1.00  0.00     0.133 C 
HETATM    2  C   UNL     1     -40.972 -52.721  12.131  1.00  0.00     0.059 C 
HETATM    3  C   UNL     1     -42.492 -52.562  12.318  1.00  0.00     0.098 C 
HETATM    4  C   UNL     1     -42.159 -51.310  13.204  1.00  0.00     0.006 C 
HETATM    5  C   UNL     1     -43.291 -50.287  13.202  1.00  0.00     0.014 C 
HETATM    6  C   UNL     1     -43.989 -50.466  14.559  1.00  0.00     0.001 C 
HETATM    7  C   UNL     1     -43.127 -51.405  15.398  1.00  0.00     0.001 C 
HETATM    8  C   UNL     1     -41.790 -51.464  14.686  1.00  0.00     0.014 C 
ENDROOT
BRANCH   3   9
HETATM    9  N   UNL     1     -43.224 -53.647  12.992  1.00  0.00    -0.354 N 
HETATM   10  C   UNL     1     -44.591 -53.781  12.822  1.00  0.00     0.237 C 
HETATM   11  O   UNL     1     -45.243 -53.074  12.052  1.00  0.00    -0.272 OA
HETATM   12  H   UNL     1     -42.762 -54.201  13.704  1.00  0.00     0.162 HD
BRANCH  10  13
HETATM   13  C   UNL     1     -45.259 -54.853  13.643  1.00  0.00     0.249 C 
BRANCH  13  14
HETATM   14  N   UNL     1     -45.127 -54.579  15.050  1.00  0.00    -0.264 N 
HETATM   15  C   UNL     1     -45.949 -53.871  15.867  1.00  0.00     0.213 A 
HETATM   16  N   UNL     1     -45.404 -53.823  17.062  1.00  0.00    -0.281 N 
HETATM   17  N   UNL     1     -44.224 -54.519  16.962  1.00  0.00    -0.008 NA
ATOM     18  HN  UNL     1     -45.780 -53.364  17.891  1.00  0.00     0.184 HD
HETATM   19  N   UNL     1     -44.044 -54.982  15.731  1.00  0.00    -0.005 NA
ENDBRANCH  13  14
ENDBRANCH  10  13
ENDBRANCH   3   9
BRANCH   1  20
HETATM   20  O   UNL     1     -39.730 -50.589  12.864  1.00  0.00    -0.385 OA
BRANCH  20  21
HETATM   21  C   UNL     1     -39.124 -49.499  12.179  1.00  0.00     0.163 C 
HETATM   22  C   UNL     1     -37.825 -49.984  11.566  1.00  0.00     0.033 C 
ENDBRANCH  20  21
ENDBRANCH   1  20
TORSDOF 5
ENDMDL
MODEL 5
REMARK VINA RESULT:      -5.3      1.894      2.434
REMARK  5 active torsions:
REMARK  status: ('A' for Active; 'I' for Inactive)
REMARK    1  A    between atoms: C_2  and  O_3 
REMARK    2  A    between atoms: O_3  and  C_4 
REMARK    3  A    between atoms: C_6  and  N_7 
REMARK       I    between atoms: N_7  and  C_8 
REMARK    4  A    between atoms: C_8  and  C_10 
REMARK    5  A    between atoms: C_10  and  N_11 
ROOT
HETATM    1  C   UNL     1     -39.735 -51.266  13.412  1.00  0.00     0.133 C 
HETATM    2  C   UNL     1     -41.224 -51.636  13.110  1.00  0.00     0.059 C 
HETATM    3  C   UNL     1     -41.329 -51.971  14.610  1.00  0.00     0.098 C 
HETATM    4  C   UNL     1     -39.813 -52.372  14.533  1.00  0.00     0.006 C 
HETATM    5  C   UNL     1     -39.107 -52.208  15.876  1.00  0.00     0.014 C 
HETATM    6  C   UNL     1     -38.965 -53.636  16.425  1.00  0.00     0.001 C 
HETATM    7  C   UNL     1     -39.372 -54.599  15.313  1.00  0.00     0.001 C 
HETATM    8  C   UNL     1     -39.387 -53.764  14.048  1.00  0.00     0.014 C 
ENDROOT
BRANCH   3   9
HETATM    9  N   UNL     1     -42.254 -53.041  15.017  1.00  0.00    -0.354 N 
HETATM   10  C   UNL     1     -42.886 -52.990  16.248  1.00  0.00     0.237 C 
HETATM   11  O   UNL     1     -42.782 -52.032  17.016  1.00  0.00    -0.272 OA
HETATM   12  H   UNL     1     -42.312 -53.893  14.472  1.00  0.00     0.162 HD
BRANCH  10  13
HETATM   13  C   UNL     1     -43.724 -54.188  16.613  1.00  0.00     0.249 C 
BRANCH  13  14
HETATM   14  N   UNL     1     -44.689 -54.471  15.584  1.00  0.00    -0.264 N 
HETATM   15  C   UNL     1     -45.959 -54.010  15.448  1.00  0.00     0.213 A 
HETATM   16  N   UNL     1     -46.498 -54.583  14.396  1.00  0.00    -0.281 N 
HETATM   17  N   UNL     1     -45.528 -55.411  13.884  1.00  0.00    -0.008 NA
ATOM     18  HN  UNL     1     -47.441 -54.442  14.033  1.00  0.00     0.184 HD
HETATM   19  N   UNL     1     -44.418 -55.352  14.609  1.00  0.00    -0.005 NA
ENDBRANCH  13  14
ENDBRANCH  10  13
ENDBRANCH   3   9
BRANCH   1  20
HETATM   20  O   UNL     1     -38.761 -51.498  12.374  1.00  0.00    -0.385 OA
BRANCH  20  21
HETATM   21  C   UNL     1     -37.541 -50.771  12.466  1.00  0.00     0.163 C 
HETATM   22  C   UNL     1     -37.350 -49.996  11.177  1.00  0.00     0.033 C 
ENDBRANCH  20  21
ENDBRANCH   1  20
TORSDOF 5
ENDMDL
MODEL 6
REMARK VINA RESULT:      -5.3      2.752      3.853
REMARK  5 active torsions:
REMARK  status: ('A' for Active; 'I' for Inactive)
REMARK    1  A    between atoms: C_2  and  O_3 
REMARK    2  A    between atoms: O_3  and  C_4 
REMARK    3  A    between atoms: C_6  and  N_7 
REMARK       I    between atoms: N_7  and  C_8 
REMARK    4  A    between atoms: C_8  and  C_10 
REMARK    5  A    between atoms: C_10  and  N_11 
ROOT
HETATM    1  C   UNL     1     -40.860 -47.287  11.464  1.00  0.00     0.133 C 
HETATM    2  C   UNL     1     -41.609 -48.322  10.563  1.00  0.00     0.059 C 
HETATM    3  C   UNL     1     -41.736 -49.175  11.838  1.00  0.00     0.098 C 
HETATM    4  C   UNL     1     -40.373 -48.540  12.289  1.00  0.00     0.006 C 
HETATM    5  C   UNL     1     -40.234 -48.499  13.808  1.00  0.00     0.014 C 
HETATM    6  C   UNL     1     -39.265 -49.643  14.147  1.00  0.00     0.001 C 
HETATM    7  C   UNL     1     -38.693 -50.166  12.833  1.00  0.00     0.001 C 
HETATM    8  C   UNL     1     -39.035 -49.110  11.800  1.00  0.00     0.014 C 
ENDROOT
BRANCH   3   9
HETATM    9  N   UNL     1     -41.743 -50.640  11.693  1.00  0.00    -0.354 N 
HETATM   10  C   UNL     1     -42.279 -51.441  12.687  1.00  0.00     0.237 C 
HETATM   11  O   UNL     1     -42.844 -50.985  13.683  1.00  0.00    -0.272 OA
HETATM   12  H   UNL     1     -41.217 -51.076  10.944  1.00  0.00     0.162 HD
BRANCH  10  13
HETATM   13  C   UNL     1     -42.135 -52.927  12.490  1.00  0.00     0.249 C 
BRANCH  13  14
HETATM   14  N   UNL     1     -43.295 -53.624  12.979  1.00  0.00    -0.264 N 
HETATM   15  C   UNL     1     -43.442 -54.354  14.114  1.00  0.00     0.213 A 
HETATM   16  N   UNL     1     -44.653 -54.865  14.124  1.00  0.00    -0.281 N 
HETATM   17  N   UNL     1     -45.250 -54.432  12.965  1.00  0.00    -0.008 NA
ATOM     18  HN  UNL     1     -45.064 -55.460  14.844  1.00  0.00     0.184 HD
HETATM   19  N   UNL     1     -44.423 -53.675  12.255  1.00  0.00    -0.005 NA
ENDBRANCH  13  14
ENDBRANCH  10  13
ENDBRANCH   3   9
BRANCH   1  20
HETATM   20  O   UNL     1     -39.817 -46.497  10.858  1.00  0.00    -0.385 OA
BRANCH  20  21
HETATM   21  C   UNL     1     -40.175 -45.193  10.415  1.00  0.00     0.163 C 
HETATM   22  C   UNL     1     -41.231 -44.644  11.353  1.00  0.00     0.033 C 
ENDBRANCH  20  21
ENDBRANCH   1  20
TORSDOF 5
ENDMDL
MODEL 7
REMARK VINA RESULT:      -5.2      3.431      6.885
REMARK  5 active torsions:
REMARK  status: ('A' for Active; 'I' for Inactive)
REMARK    1  A    between atoms: C_2  and  O_3 
REMARK    2  A    between atoms: O_3  and  C_4 
REMARK    3  A    between atoms: C_6  and  N_7 
REMARK       I    between atoms: N_7  and  C_8 
REMARK    4  A    between atoms: C_8  and  C_10 
REMARK    5  A    between atoms: C_10  and  N_11 
ROOT
HETATM    1  C   UNL     1     -46.825 -52.010  18.507  1.00  0.00     0.133 C 
HETATM    2  C   UNL     1     -46.552 -53.541  18.340  1.00  0.00     0.059 C 
HETATM    3  C   UNL     1     -45.292 -53.120  17.562  1.00  0.00     0.098 C 
HETATM    4  C   UNL     1     -46.104 -51.853  17.113  1.00  0.00     0.006 C 
HETATM    5  C   UNL     1     -45.194 -50.667  16.807  1.00  0.00     0.014 C 
HETATM    6  C   UNL     1     -45.147 -50.591  15.272  1.00  0.00     0.001 C 
HETATM    7  C   UNL     1     -46.189 -51.565  14.732  1.00  0.00     0.001 C 
HETATM    8  C   UNL     1     -47.066 -51.912  15.919  1.00  0.00     0.014 C 
ENDROOT
BRANCH   3   9
HETATM    9  N   UNL     1     -44.823 -53.997  16.477  1.00  0.00    -0.354 N 
HETATM   10  C   UNL     1     -43.468 -54.184  16.262  1.00  0.00     0.237 C 
HETATM   11  O   UNL     1     -42.601 -53.710  16.998  1.00  0.00    -0.272 OA
HETATM   12  H   UNL     1     -45.480 -54.342  15.786  1.00  0.00     0.162 HD
BRANCH  10  13
HETATM   13  C   UNL     1     -43.096 -55.010  15.058  1.00  0.00     0.249 C 
BRANCH  13  14
HETATM   14  N   UNL     1     -43.584 -54.403  13.848  1.00  0.00    -0.264 N 
HETATM   15  C   UNL     1     -42.970 -53.514  13.026  1.00  0.00     0.213 A 
HETATM   16  N   UNL     1     -43.813 -53.179  12.075  1.00  0.00    -0.281 N 
HETATM   17  N   UNL     1     -44.964 -53.885  12.330  1.00  0.00    -0.008 NA
ATOM     18  HN  UNL     1     -43.647 -52.530  11.306  1.00  0.00     0.184 HD
HETATM   19  N   UNL     1     -44.834 -54.634  13.418  1.00  0.00    -0.005 NA
ENDBRANCH  13  14
ENDBRANCH  10  13
ENDBRANCH   3   9
BRANCH   1  20
HETATM   20  O   UNL     1     -48.197 -51.573  18.552  1.00  0.00    -0.385 OA
BRANCH  20  21
HETATM   21  C   UNL     1     -48.489 -50.458  19.387  1.00  0.00     0.163 C 
HETATM   22  C   UNL     1     -48.163 -49.191  18.623  1.00  0.00     0.033 C 
ENDBRANCH  20  21
ENDBRANCH   1  20
TORSDOF 5
ENDMDL
MODEL 8
REMARK VINA RESULT:      -5.2     16.336     18.300
REMARK  5 active torsions:
REMARK  status: ('A' for Active; 'I' for Inactive)
REMARK    1  A    between atoms: C_2  and  O_3 
REMARK    2  A    between atoms: O_3  and  C_4 
REMARK    3  A    between atoms: C_6  and  N_7 
REMARK       I    between atoms: N_7  and  C_8 
REMARK    4  A    between atoms: C_8  and  C_10 
REMARK    5  A    between atoms: C_10  and  N_11 
ROOT
HETATM    1  C   UNL     1     -52.207 -55.742  -3.107  1.00  0.00     0.133 C 
HETATM    2  C   UNL     1     -50.827 -55.241  -3.646  1.00  0.00     0.059 C 
HETATM    3  C   UNL     1     -50.692 -54.507  -2.299  1.00  0.00     0.098 C 
HETATM    4  C   UNL     1     -52.256 -54.378  -2.315  1.00  0.00     0.006 C 
HETATM    5  C   UNL     1     -52.839 -54.285  -0.908  1.00  0.00     0.014 C 
HETATM    6  C   UNL     1     -53.195 -52.802  -0.725  1.00  0.00     0.001 C 
HETATM    7  C   UNL     1     -53.033 -52.119  -2.080  1.00  0.00     0.001 C 
HETATM    8  C   UNL     1     -52.949 -53.248  -3.088  1.00  0.00     0.014 C 
ENDROOT
BRANCH   3   9
HETATM    9  N   UNL     1     -49.945 -53.239  -2.274  1.00  0.00    -0.354 N 
HETATM   10  C   UNL     1     -48.714 -53.162  -1.644  1.00  0.00     0.237 C 
HETATM   11  O   UNL     1     -48.148 -54.142  -1.157  1.00  0.00    -0.272 OA
HETATM   12  H   UNL     1     -50.394 -52.382  -2.577  1.00  0.00     0.162 HD
BRANCH  10  13
HETATM   13  C   UNL     1     -48.088 -51.793  -1.579  1.00  0.00     0.249 C 
BRANCH  13  14
HETATM   14  N   UNL     1     -48.795 -50.949  -0.654  1.00  0.00    -0.264 N 
HETATM   15  C   UNL     1     -48.579 -49.644  -0.345  1.00  0.00     0.213 A 
HETATM   16  N   UNL     1     -49.422 -49.296   0.600  1.00  0.00    -0.281 N 
HETATM   17  N   UNL     1     -50.165 -50.420   0.869  1.00  0.00    -0.008 NA
ATOM     18  HN  UNL     1     -49.507 -48.381   1.044  1.00  0.00     0.184 HD
HETATM   19  N   UNL     1     -49.784 -51.439   0.108  1.00  0.00    -0.005 NA
ENDBRANCH  13  14
ENDBRANCH  10  13
ENDBRANCH   3   9
BRANCH   1  20
HETATM   20  O   UNL     1     -53.268 -55.946  -4.061  1.00  0.00    -0.385 OA
BRANCH  20  21
HETATM   21  C   UNL     1     -54.240 -56.935  -3.738  1.00  0.00     0.163 C 
HETATM   22  C   UNL     1     -53.576 -57.994  -2.881  1.00  0.00     0.033 C 
ENDBRANCH  20  21
ENDBRANCH   1  20
TORSDOF 5
ENDMDL
MODEL 9
REMARK VINA RESULT:      -5.2      2.589      4.287
REMARK  5 active torsions:
REMARK  status: ('A' for Active; 'I' for Inactive)
REMARK    1  A    between atoms: C_2  and  O_3 
REMARK    2  A    between atoms: O_3  and  C_4 
REMARK    3  A    between atoms: C_6  and  N_7 
REMARK       I    between atoms: N_7  and  C_8 
REMARK    4  A    between atoms: C_8  and  C_10 
REMARK    5  A    between atoms: C_10  and  N_11 
ROOT
HETATM    1  C   UNL     1     -37.343 -50.548  15.170  1.00  0.00     0.133 C 
HETATM    2  C   UNL     1     -38.780 -50.904  15.675  1.00  0.00     0.059 C 
HETATM    3  C   UNL     1     -39.014 -51.476  14.264  1.00  0.00     0.098 C 
HETATM    4  C   UNL     1     -38.014 -50.379  13.753  1.00  0.00     0.006 C 
HETATM    5  C   UNL     1     -37.303 -50.803  12.471  1.00  0.00     0.014 C 
HETATM    6  C   UNL     1     -37.999 -50.010  11.353  1.00  0.00     0.001 C 
HETATM    7  C   UNL     1     -38.920 -48.991  12.017  1.00  0.00     0.001 C 
HETATM    8  C   UNL     1     -38.487 -48.947  13.469  1.00  0.00     0.014 C 
ENDROOT
BRANCH   3   9
HETATM    9  N   UNL     1     -40.375 -51.410  13.708  1.00  0.00    -0.354 N 
HETATM   10  C   UNL     1     -40.839 -52.408  12.869  1.00  0.00     0.237 C 
HETATM   11  O   UNL     1     -40.191 -53.425  12.614  1.00  0.00    -0.272 OA
HETATM   12  H   UNL     1     -40.921 -50.561  13.807  1.00  0.00     0.162 HD
BRANCH  10  13
HETATM   13  C   UNL     1     -42.202 -52.188  12.266  1.00  0.00     0.249 C 
BRANCH  13  14
HETATM   14  N   UNL     1     -43.159 -53.117  12.808  1.00  0.00    -0.264 N 
HETATM   15  C   UNL     1     -43.113 -53.815  13.971  1.00  0.00     0.213 A 
HETATM   16  N   UNL     1     -44.170 -54.593  14.029  1.00  0.00    -0.281 N 
HETATM   17  N   UNL     1     -44.871 -54.358  12.871  1.00  0.00    -0.008 NA
ATOM     18  HN  UNL     1     -44.420 -55.239  14.779  1.00  0.00     0.184 HD
HETATM   19  N   UNL     1     -44.256 -53.458  12.114  1.00  0.00    -0.005 NA
ENDBRANCH  13  14
ENDBRANCH  10  13
ENDBRANCH   3   9
BRANCH   1  20
HETATM   20  O   UNL     1     -36.715 -49.367  15.707  1.00  0.00    -0.385 OA
BRANCH  20  21
HETATM   21  C   UNL     1     -35.485 -49.552  16.399  1.00  0.00     0.163 C 
HETATM   22  C   UNL     1     -35.714 -49.252  17.867  1.00  0.00     0.033 C 
ENDBRANCH  20  21
ENDBRANCH   1  20
TORSDOF 5
ENDMDL
