MODEL 1
REMARK VINA RESULT:      -6.1      0.000      0.000
REMARK  5 active torsions:
REMARK  status: ('A' for Active; 'I' for Inactive)
REMARK    1  A    between atoms: O_2  and  C_3 
REMARK    2  A    between atoms: C_3  and  C_4 
REMARK    3  A    between atoms: C_4  and  N_5 
REMARK    4  A    between atoms: C_10  and  N_11 
REMARK       I    between atoms: N_11  and  C_12 
REMARK       I    between atoms: C_12  and  N_14 
REMARK    5  A    between atoms: N_14  and  C_15 
ROOT
HETATM    1  N   UNL     1     -40.965 -47.030  10.865  1.00  0.00    -0.292 N 
HETATM    2  N   UNL     1     -39.755 -47.479  11.209  1.00  0.00    -0.301 N 
ATOM      3  HN  UNL     1     -38.877 -46.961  11.213  1.00  0.00     0.187 HD
HETATM    4  C   UNL     1     -39.948 -48.758  11.545  1.00  0.00     0.051 A 
HETATM    5  C   UNL     1     -38.736 -49.541  11.899  1.00  0.00     0.072 C 
HETATM    6  C   UNL     1     -41.330 -49.129  11.442  1.00  0.00     0.084 A 
HETATM    7  C   UNL     1     -41.960 -47.974  10.989  1.00  0.00     0.053 A 
HETATM    8  C   UNL     1     -43.379 -47.644  10.706  1.00  0.00     0.072 C 
ENDROOT
BRANCH   6   9
HETATM    9  N   UNL     1     -41.976 -50.350  11.694  1.00  0.00    -0.305 N 
HETATM   10  C   UNL     1     -42.656 -50.610  12.867  1.00  0.00     0.321 C 
HETATM   11  O   UNL     1     -42.902 -49.784  13.734  1.00  0.00    -0.247 OA
HETATM   12  N   UNL     1     -43.023 -51.936  13.048  1.00  0.00    -0.338 N 
HETATM   13  H   UNL     1     -43.165 -52.517  12.238  1.00  0.00     0.164 HD
HETATM   14  H   UNL     1     -42.101 -50.978  10.916  1.00  0.00     0.171 HD
BRANCH  12  15
HETATM   15  C   UNL     1     -43.705 -52.285  14.307  1.00  0.00     0.086 C 
HETATM   16  C   UNL     1     -43.129 -53.505  15.039  1.00  0.00     0.025 C 
HETATM   17  C   UNL     1     -43.546 -54.856  14.467  1.00  0.00     0.002 C 
HETATM   18  C   UNL     1     -45.028 -54.965  14.113  1.00  0.00     0.000 C 
HETATM   19  C   UNL     1     -45.585 -53.737  13.403  1.00  0.00     0.002 C 
HETATM   20  C   UNL     1     -45.221 -52.444  14.122  1.00  0.00     0.025 C 
ENDBRANCH  12  15
ENDBRANCH   6   9
BRANCH   1  21
HETATM   21  C   UNL     1     -41.056 -45.648  10.436  1.00  0.00     0.175 C 
BRANCH  21  22
HETATM   22  C   UNL     1     -39.695 -44.965  10.411  1.00  0.00     0.188 C 
BRANCH  22  23
HETATM   23  O   UNL     1     -39.537 -44.275   9.166  1.00  0.00    -0.394 OA
HETATM   24  C   UNL     1     -38.293 -44.588   8.551  1.00  0.00     0.201 C 
ENDBRANCH  22  23
ENDBRANCH  21  22
ENDBRANCH   1  21
TORSDOF 5
ENDMDL
MODEL 2
REMARK VINA RESULT:      -6.0      1.479      2.492
REMARK  5 active torsions:
REMARK  status: ('A' for Active; 'I' for Inactive)
REMARK    1  A    between atoms: O_2  and  C_3 
REMARK    2  A    between atoms: C_3  and  C_4 
REMARK    3  A    between atoms: C_4  and  N_5 
REMARK    4  A    between atoms: C_10  and  N_11 
REMARK       I    between atoms: N_11  and  C_12 
REMARK       I    between atoms: C_12  and  N_14 
REMARK    5  A    between atoms: N_14  and  C_15 
ROOT
HETATM    1  N   UNL     1     -40.686 -46.103  10.676  1.00  0.00    -0.292 N 
HETATM    2  N   UNL     1     -41.723 -45.979   9.843  1.00  0.00    -0.301 N 
ATOM      3  HN  UNL     1     -41.988 -45.160   9.296  1.00  0.00     0.187 HD
HETATM    4  C   UNL     1     -42.337 -47.165   9.883  1.00  0.00     0.051 A 
HETATM    5  C   UNL     1     -43.593 -47.289   9.098  1.00  0.00     0.072 C 
HETATM    6  C   UNL     1     -41.655 -48.085  10.747  1.00  0.00     0.084 A 
HETATM    7  C   UNL     1     -40.585 -47.350  11.250  1.00  0.00     0.053 A 
HETATM    8  C   UNL     1     -39.466 -47.695  12.161  1.00  0.00     0.072 C 
ENDROOT
BRANCH   6   9
HETATM    9  N   UNL     1     -41.941 -49.419  11.082  1.00  0.00    -0.305 N 
HETATM   10  C   UNL     1     -42.646 -49.773  12.214  1.00  0.00     0.321 C 
HETATM   11  O   UNL     1     -43.222 -48.990  12.956  1.00  0.00    -0.247 OA
HETATM   12  N   UNL     1     -42.628 -51.127  12.514  1.00  0.00    -0.338 N 
HETATM   13  H   UNL     1     -42.499 -51.790  11.767  1.00  0.00     0.164 HD
HETATM   14  H   UNL     1     -41.786 -50.118  10.373  1.00  0.00     0.171 HD
BRANCH  12  15
HETATM   15  C   UNL     1     -43.320 -51.560  13.741  1.00  0.00     0.086 C 
HETATM   16  C   UNL     1     -42.671 -52.747  14.466  1.00  0.00     0.025 C 
HETATM   17  C   UNL     1     -42.961 -54.113  13.851  1.00  0.00     0.002 C 
HETATM   18  C   UNL     1     -44.417 -54.331  13.446  1.00  0.00     0.000 C 
HETATM   19  C   UNL     1     -45.047 -53.134  12.745  1.00  0.00     0.002 C 
HETATM   20  C   UNL     1     -44.811 -51.834  13.503  1.00  0.00     0.025 C 
ENDBRANCH  12  15
ENDBRANCH   6   9
BRANCH   1  21
HETATM   21  C   UNL     1     -39.834 -44.941  10.842  1.00  0.00     0.175 C 
BRANCH  21  22
HETATM   22  C   UNL     1     -40.558 -43.793  11.532  1.00  0.00     0.188 C 
BRANCH  22  23
HETATM   23  O   UNL     1     -41.359 -43.097  10.571  1.00  0.00    -0.394 OA
HETATM   24  C   UNL     1     -42.612 -42.708  11.121  1.00  0.00     0.201 C 
ENDBRANCH  22  23
ENDBRANCH  21  22
ENDBRANCH   1  21
TORSDOF 5
ENDMDL
MODEL 3
REMARK VINA RESULT:      -5.7      2.535      8.153
REMARK  5 active torsions:
REMARK  status: ('A' for Active; 'I' for Inactive)
REMARK    1  A    between atoms: O_2  and  C_3 
REMARK    2  A    between atoms: C_3  and  C_4 
REMARK    3  A    between atoms: C_4  and  N_5 
REMARK    4  A    between atoms: C_10  and  N_11 
REMARK       I    between atoms: N_11  and  C_12 
REMARK       I    between atoms: C_12  and  N_14 
REMARK    5  A    between atoms: N_14  and  C_15 
ROOT
HETATM    1  N   UNL     1     -44.559 -54.246  13.492  1.00  0.00    -0.292 N 
HETATM    2  N   UNL     1     -43.363 -54.724  13.843  1.00  0.00    -0.301 N 
ATOM      3  HN  UNL     1     -43.162 -55.584  14.354  1.00  0.00     0.187 HD
HETATM    4  C   UNL     1     -42.487 -53.829  13.379  1.00  0.00     0.051 A 
HETATM    5  C   UNL     1     -41.056 -54.070  13.702  1.00  0.00     0.072 C 
HETATM    6  C   UNL     1     -43.143 -52.759  12.684  1.00  0.00     0.084 A 
HETATM    7  C   UNL     1     -44.497 -53.066  12.785  1.00  0.00     0.053 A 
HETATM    8  C   UNL     1     -45.721 -52.411  12.262  1.00  0.00     0.072 C 
ENDROOT
BRANCH   6   9
HETATM    9  N   UNL     1     -42.624 -51.622  12.044  1.00  0.00    -0.305 N 
HETATM   10  C   UNL     1     -42.579 -50.379  12.643  1.00  0.00     0.321 C 
HETATM   11  O   UNL     1     -42.832 -50.157  13.818  1.00  0.00    -0.247 OA
HETATM   12  N   UNL     1     -42.262 -49.331  11.791  1.00  0.00    -0.338 N 
HETATM   13  H   UNL     1     -41.711 -49.519  10.970  1.00  0.00     0.164 HD
HETATM   14  H   UNL     1     -42.100 -51.766  11.195  1.00  0.00     0.171 HD
BRANCH  12  15
HETATM   15  C   UNL     1     -42.251 -47.972  12.362  1.00  0.00     0.086 C 
HETATM   16  C   UNL     1     -43.016 -46.920  11.548  1.00  0.00     0.025 C 
HETATM   17  C   UNL     1     -42.273 -46.386  10.327  1.00  0.00     0.002 C 
HETATM   18  C   UNL     1     -40.802 -46.058  10.573  1.00  0.00     0.000 C 
HETATM   19  C   UNL     1     -40.066 -47.105  11.399  1.00  0.00     0.002 C 
HETATM   20  C   UNL     1     -40.828 -47.479  12.663  1.00  0.00     0.025 C 
ENDBRANCH  12  15
ENDBRANCH   6   9
BRANCH   1  21
HETATM   21  C   UNL     1     -45.719 -55.023  13.884  1.00  0.00     0.175 C 
BRANCH  21  22
HETATM   22  C   UNL     1     -46.340 -54.513  15.178  1.00  0.00     0.188 C 
BRANCH  22  23
HETATM   23  O   UNL     1     -45.335 -54.469  16.197  1.00  0.00    -0.394 OA
HETATM   24  C   UNL     1     -45.815 -53.831  17.374  1.00  0.00     0.201 C 
ENDBRANCH  22  23
ENDBRANCH  21  22
ENDBRANCH   1  21
TORSDOF 5
ENDMDL
MODEL 4
REMARK VINA RESULT:      -5.4      2.435      3.617
REMARK  5 active torsions:
REMARK  status: ('A' for Active; 'I' for Inactive)
REMARK    1  A    between atoms: O_2  and  C_3 
REMARK    2  A    between atoms: C_3  and  C_4 
REMARK    3  A    between atoms: C_4  and  N_5 
REMARK    4  A    between atoms: C_10  and  N_11 
REMARK       I    between atoms: N_11  and  C_12 
REMARK       I    between atoms: C_12  and  N_14 
REMARK    5  A    between atoms: N_14  and  C_15 
ROOT
HETATM    1  N   UNL     1     -41.853 -45.696  10.908  1.00  0.00    -0.292 N 
HETATM    2  N   UNL     1     -43.080 -45.831  10.397  1.00  0.00    -0.301 N 
ATOM      3  HN  UNL     1     -43.707 -45.092  10.081  1.00  0.00     0.187 HD
HETATM    4  C   UNL     1     -43.306 -47.148  10.393  1.00  0.00     0.051 A 
HETATM    5  C   UNL     1     -44.651 -47.590   9.943  1.00  0.00     0.072 C 
HETATM    6  C   UNL     1     -42.176 -47.879  10.889  1.00  0.00     0.084 A 
HETATM    7  C   UNL     1     -41.250 -46.894  11.220  1.00  0.00     0.053 A 
HETATM    8  C   UNL     1     -39.864 -46.949  11.746  1.00  0.00     0.072 C 
ENDROOT
BRANCH   6   9
HETATM    9  N   UNL     1     -41.974 -49.259  11.057  1.00  0.00    -0.305 N 
HETATM   10  C   UNL     1     -42.172 -49.905  12.261  1.00  0.00     0.321 C 
HETATM   11  O   UNL     1     -42.679 -49.401  13.252  1.00  0.00    -0.247 OA
HETATM   12  N   UNL     1     -41.698 -51.208  12.310  1.00  0.00    -0.338 N 
HETATM   13  H   UNL     1     -41.632 -51.735  11.455  1.00  0.00     0.164 HD
HETATM   14  H   UNL     1     -41.863 -49.816  10.225  1.00  0.00     0.171 HD
BRANCH  12  15
HETATM   15  C   UNL     1     -41.833 -51.931  13.587  1.00  0.00     0.086 C 
HETATM   16  C   UNL     1     -40.616 -51.838  14.516  1.00  0.00     0.025 C 
HETATM   17  C   UNL     1     -39.452 -52.754  14.149  1.00  0.00     0.002 C 
HETATM   18  C   UNL     1     -39.860 -54.176  13.772  1.00  0.00     0.000 C 
HETATM   19  C   UNL     1     -41.081 -54.248  12.864  1.00  0.00     0.002 C 
HETATM   20  C   UNL     1     -42.234 -53.399  13.384  1.00  0.00     0.025 C 
ENDBRANCH  12  15
ENDBRANCH   6   9
BRANCH   1  21
HETATM   21  C   UNL     1     -41.343 -44.346  11.044  1.00  0.00     0.175 C 
BRANCH  21  22
HETATM   22  C   UNL     1     -42.368 -43.405  11.662  1.00  0.00     0.188 C 
BRANCH  22  23
HETATM   23  O   UNL     1     -42.897 -44.001  12.851  1.00  0.00    -0.394 OA
HETATM   24  C   UNL     1     -42.046 -43.778  13.970  1.00  0.00     0.201 C 
ENDBRANCH  22  23
ENDBRANCH  21  22
ENDBRANCH   1  21
TORSDOF 5
ENDMDL
MODEL 5
REMARK VINA RESULT:      -5.4      2.457      3.275
REMARK  5 active torsions:
REMARK  status: ('A' for Active; 'I' for Inactive)
REMARK    1  A    between atoms: O_2  and  C_3 
REMARK    2  A    between atoms: C_3  and  C_4 
REMARK    3  A    between atoms: C_4  and  N_5 
REMARK    4  A    between atoms: C_10  and  N_11 
REMARK       I    between atoms: N_11  and  C_12 
REMARK       I    between atoms: C_12  and  N_14 
REMARK    5  A    between atoms: N_14  and  C_15 
ROOT
HETATM    1  N   UNL     1     -41.243 -48.122  11.172  1.00  0.00    -0.292 N 
HETATM    2  N   UNL     1     -39.925 -48.121  10.953  1.00  0.00    -0.301 N 
ATOM      3  HN  UNL     1     -39.406 -47.557  10.281  1.00  0.00     0.187 HD
HETATM    4  C   UNL     1     -39.436 -49.023  11.809  1.00  0.00     0.051 A 
HETATM    5  C   UNL     1     -37.976 -49.292  11.728  1.00  0.00     0.072 C 
HETATM    6  C   UNL     1     -40.470 -49.597  12.621  1.00  0.00     0.084 A 
HETATM    7  C   UNL     1     -41.636 -48.986  12.169  1.00  0.00     0.053 A 
HETATM    8  C   UNL     1     -43.055 -49.084  12.593  1.00  0.00     0.072 C 
ENDROOT
BRANCH   6   9
HETATM    9  N   UNL     1     -40.413 -50.566  13.636  1.00  0.00    -0.305 N 
HETATM   10  C   UNL     1     -40.399 -51.922  13.378  1.00  0.00     0.321 C 
HETATM   11  O   UNL     1     -40.282 -52.424  12.269  1.00  0.00    -0.247 OA
HETATM   12  N   UNL     1     -40.584 -52.731  14.490  1.00  0.00    -0.338 N 
HETATM   13  H   UNL     1     -40.314 -52.382  15.396  1.00  0.00     0.164 HD
HETATM   14  H   UNL     1     -40.186 -50.251  14.565  1.00  0.00     0.171 HD
BRANCH  12  15
HETATM   15  C   UNL     1     -40.632 -54.187  14.270  1.00  0.00     0.086 C 
HETATM   16  C   UNL     1     -41.710 -54.928  15.072  1.00  0.00     0.025 C 
HETATM   17  C   UNL     1     -41.362 -55.186  16.534  1.00  0.00     0.002 C 
HETATM   18  C   UNL     1     -39.936 -55.683  16.769  1.00  0.00     0.000 C 
HETATM   19  C   UNL     1     -38.884 -54.947  15.949  1.00  0.00     0.002 C 
HETATM   20  C   UNL     1     -39.264 -54.852  14.477  1.00  0.00     0.025 C 
ENDBRANCH  12  15
ENDBRANCH   6   9
BRANCH   1  21
HETATM   21  C   UNL     1     -42.045 -47.228  10.359  1.00  0.00     0.175 C 
BRANCH  21  22
HETATM   22  C   UNL     1     -41.869 -45.771  10.764  1.00  0.00     0.188 C 
BRANCH  22  23
HETATM   23  O   UNL     1     -40.829 -45.185   9.974  1.00  0.00    -0.394 OA
HETATM   24  C   UNL     1     -39.911 -44.454  10.779  1.00  0.00     0.201 C 
ENDBRANCH  22  23
ENDBRANCH  21  22
ENDBRANCH   1  21
TORSDOF 5
ENDMDL
MODEL 6
REMARK VINA RESULT:      -5.2      3.041      7.811
REMARK  5 active torsions:
REMARK  status: ('A' for Active; 'I' for Inactive)
REMARK    1  A    between atoms: O_2  and  C_3 
REMARK    2  A    between atoms: C_3  and  C_4 
REMARK    3  A    between atoms: C_4  and  N_5 
REMARK    4  A    between atoms: C_10  and  N_11 
REMARK       I    between atoms: N_11  and  C_12 
REMARK       I    between atoms: C_12  and  N_14 
REMARK    5  A    between atoms: N_14  and  C_15 
ROOT
HETATM    1  N   UNL     1     -40.630 -51.002  12.015  1.00  0.00    -0.292 N 
HETATM    2  N   UNL     1     -39.327 -51.128  11.746  1.00  0.00    -0.301 N 
ATOM      3  HN  UNL     1     -38.776 -51.986  11.727  1.00  0.00     0.187 HD
HETATM    4  C   UNL     1     -38.906 -49.883  11.509  1.00  0.00     0.051 A 
HETATM    5  C   UNL     1     -37.451 -49.711  11.257  1.00  0.00     0.072 C 
HETATM    6  C   UNL     1     -39.979 -48.935  11.600  1.00  0.00     0.084 A 
HETATM    7  C   UNL     1     -41.087 -49.706  11.938  1.00  0.00     0.053 A 
HETATM    8  C   UNL     1     -42.518 -49.376  12.150  1.00  0.00     0.072 C 
ENDROOT
BRANCH   6   9
HETATM    9  N   UNL     1     -39.993 -47.541  11.428  1.00  0.00    -0.305 N 
HETATM   10  C   UNL     1     -40.019 -46.655  12.486  1.00  0.00     0.321 C 
HETATM   11  O   UNL     1     -39.880 -46.961  13.662  1.00  0.00    -0.247 OA
HETATM   12  N   UNL     1     -40.273 -45.336  12.138  1.00  0.00    -0.338 N 
HETATM   13  H   UNL     1     -40.024 -45.019  11.215  1.00  0.00     0.164 HD
HETATM   14  H   UNL     1     -39.789 -47.186  10.508  1.00  0.00     0.171 HD
BRANCH  12  15
HETATM   15  C   UNL     1     -40.365 -44.352  13.231  1.00  0.00     0.086 C 
HETATM   16  C   UNL     1     -41.788 -44.072  13.732  1.00  0.00     0.025 C 
HETATM   17  C   UNL     1     -42.609 -43.135  12.852  1.00  0.00     0.002 C 
HETATM   18  C   UNL     1     -41.852 -41.903  12.359  1.00  0.00     0.000 C 
HETATM   19  C   UNL     1     -40.435 -42.199  11.883  1.00  0.00     0.002 C 
HETATM   20  C   UNL     1     -39.654 -43.035  12.889  1.00  0.00     0.025 C 
ENDBRANCH  12  15
ENDBRANCH   6   9
BRANCH   1  21
HETATM   21  C   UNL     1     -41.357 -52.218  12.328  1.00  0.00     0.175 C 
BRANCH  21  22
HETATM   22  C   UNL     1     -40.840 -52.884  13.595  1.00  0.00     0.188 C 
BRANCH  22  23
HETATM   23  O   UNL     1     -39.535 -53.419  13.349  1.00  0.00    -0.394 OA
HETATM   24  C   UNL     1     -39.310 -54.609  14.095  1.00  0.00     0.201 C 
ENDBRANCH  22  23
ENDBRANCH  21  22
ENDBRANCH   1  21
TORSDOF 5
ENDMDL
MODEL 7
REMARK VINA RESULT:      -5.1      1.857      2.385
REMARK  5 active torsions:
REMARK  status: ('A' for Active; 'I' for Inactive)
REMARK    1  A    between atoms: O_2  and  C_3 
REMARK    2  A    between atoms: C_3  and  C_4 
REMARK    3  A    between atoms: C_4  and  N_5 
REMARK    4  A    between atoms: C_10  and  N_11 
REMARK       I    between atoms: N_11  and  C_12 
REMARK       I    between atoms: C_12  and  N_14 
REMARK    5  A    between atoms: N_14  and  C_15 
ROOT
HETATM    1  N   UNL     1     -40.721 -46.603  12.428  1.00  0.00    -0.292 N 
HETATM    2  N   UNL     1     -39.448 -46.940  12.651  1.00  0.00    -0.301 N 
ATOM      3  HN  UNL     1     -38.614 -46.387  12.454  1.00  0.00     0.187 HD
HETATM    4  C   UNL     1     -39.507 -48.163  13.186  1.00  0.00     0.051 A 
HETATM    5  C   UNL     1     -38.207 -48.829  13.465  1.00  0.00     0.072 C 
HETATM    6  C   UNL     1     -40.862 -48.609  13.337  1.00  0.00     0.084 A 
HETATM    7  C   UNL     1     -41.624 -47.563  12.825  1.00  0.00     0.053 A 
HETATM    8  C   UNL     1     -43.087 -47.345  12.709  1.00  0.00     0.072 C 
ENDROOT
BRANCH   6   9
HETATM    9  N   UNL     1     -41.384 -49.808  13.848  1.00  0.00    -0.305 N 
HETATM   10  C   UNL     1     -41.587 -50.930  13.070  1.00  0.00     0.321 C 
HETATM   11  O   UNL     1     -41.206 -51.062  11.916  1.00  0.00    -0.247 OA
HETATM   12  N   UNL     1     -42.328 -51.935  13.675  1.00  0.00    -0.338 N 
HETATM   13  H   UNL     1     -42.322 -52.007  14.679  1.00  0.00     0.164 HD
HETATM   14  H   UNL     1     -41.433 -49.903  14.850  1.00  0.00     0.171 HD
BRANCH  12  15
HETATM   15  C   UNL     1     -42.623 -53.136  12.874  1.00  0.00     0.086 C 
HETATM   16  C   UNL     1     -44.081 -53.265  12.412  1.00  0.00     0.025 C 
HETATM   17  C   UNL     1     -45.052 -53.766  13.476  1.00  0.00     0.002 C 
HETATM   18  C   UNL     1     -44.537 -54.944  14.300  1.00  0.00     0.000 C 
HETATM   19  C   UNL     1     -43.083 -54.806  14.733  1.00  0.00     0.002 C 
HETATM   20  C   UNL     1     -42.172 -54.427  13.573  1.00  0.00     0.025 C 
ENDBRANCH  12  15
ENDBRANCH   6   9
BRANCH   1  21
HETATM   21  C   UNL     1     -40.962 -45.305  11.829  1.00  0.00     0.175 C 
BRANCH  21  22
HETATM   22  C   UNL     1     -41.176 -45.399  10.324  1.00  0.00     0.188 C 
BRANCH  22  23
HETATM   23  O   UNL     1     -42.529 -45.044  10.017  1.00  0.00    -0.394 OA
HETATM   24  C   UNL     1     -43.185 -46.074   9.286  1.00  0.00     0.201 C 
ENDBRANCH  22  23
ENDBRANCH  21  22
ENDBRANCH   1  21
TORSDOF 5
ENDMDL
MODEL 8
REMARK VINA RESULT:      -5.1      2.177      3.045
REMARK  5 active torsions:
REMARK  status: ('A' for Active; 'I' for Inactive)
REMARK    1  A    between atoms: O_2  and  C_3 
REMARK    2  A    between atoms: C_3  and  C_4 
REMARK    3  A    between atoms: C_4  and  N_5 
REMARK    4  A    between atoms: C_10  and  N_11 
REMARK       I    between atoms: N_11  and  C_12 
REMARK       I    between atoms: C_12  and  N_14 
REMARK    5  A    between atoms: N_14  and  C_15 
ROOT
HETATM    1  N   UNL     1     -42.086 -45.676  12.500  1.00  0.00    -0.292 N 
HETATM    2  N   UNL     1     -42.738 -45.906  11.357  1.00  0.00    -0.301 N 
ATOM      3  HN  UNL     1     -42.829 -45.282  10.556  1.00  0.00     0.187 HD
HETATM    4  C   UNL     1     -43.246 -47.134  11.494  1.00  0.00     0.051 A 
HETATM    5  C   UNL     1     -44.103 -47.626  10.384  1.00  0.00     0.072 C 
HETATM    6  C   UNL     1     -42.883 -47.719  12.753  1.00  0.00     0.084 A 
HETATM    7  C   UNL     1     -42.130 -46.732  13.383  1.00  0.00     0.053 A 
HETATM    8  C   UNL     1     -41.417 -46.684  14.683  1.00  0.00     0.072 C 
ENDROOT
BRANCH   6   9
HETATM    9  N   UNL     1     -43.189 -48.972  13.308  1.00  0.00    -0.305 N 
HETATM   10  C   UNL     1     -42.708 -50.159  12.793  1.00  0.00     0.321 C 
HETATM   11  O   UNL     1     -41.861 -50.251  11.916  1.00  0.00    -0.247 OA
HETATM   12  N   UNL     1     -43.298 -51.303  13.310  1.00  0.00    -0.338 N 
HETATM   13  H   UNL     1     -43.689 -51.273  14.238  1.00  0.00     0.164 HD
HETATM   14  H   UNL     1     -43.619 -48.983  14.219  1.00  0.00     0.171 HD
BRANCH  12  15
HETATM   15  C   UNL     1     -42.863 -52.599  12.760  1.00  0.00     0.086 C 
HETATM   16  C   UNL     1     -44.001 -53.545  12.353  1.00  0.00     0.025 C 
HETATM   17  C   UNL     1     -44.666 -54.287  13.509  1.00  0.00     0.002 C 
HETATM   18  C   UNL     1     -43.693 -54.862  14.536  1.00  0.00     0.000 C 
HETATM   19  C   UNL     1     -42.560 -53.914  14.912  1.00  0.00     0.002 C 
HETATM   20  C   UNL     1     -41.876 -53.323  13.687  1.00  0.00     0.025 C 
ENDBRANCH  12  15
ENDBRANCH   6   9
BRANCH   1  21
HETATM   21  C   UNL     1     -41.434 -44.388  12.638  1.00  0.00     0.175 C 
BRANCH  21  22
HETATM   22  C   UNL     1     -40.707 -43.976  11.366  1.00  0.00     0.188 C 
BRANCH  22  23
HETATM   23  O   UNL     1     -41.625 -43.310  10.493  1.00  0.00    -0.394 OA
HETATM   24  C   UNL     1     -42.260 -42.213  11.141  1.00  0.00     0.201 C 
ENDBRANCH  22  23
ENDBRANCH  21  22
ENDBRANCH   1  21
TORSDOF 5
ENDMDL
MODEL 9
REMARK VINA RESULT:      -5.0     14.355     15.408
REMARK  5 active torsions:
REMARK  status: ('A' for Active; 'I' for Inactive)
REMARK    1  A    between atoms: O_2  and  C_3 
REMARK    2  A    between atoms: C_3  and  C_4 
REMARK    3  A    between atoms: C_4  and  N_5 
REMARK    4  A    between atoms: C_10  and  N_11 
REMARK       I    between atoms: N_11  and  C_12 
REMARK       I    between atoms: C_12  and  N_14 
REMARK    5  A    between atoms: N_14  and  C_15 
ROOT
HETATM    1  N   UNL     1     -45.180 -47.474  -2.941  1.00  0.00    -0.292 N 
HETATM    2  N   UNL     1     -44.593 -48.253  -3.854  1.00  0.00    -0.301 N 
ATOM      3  HN  UNL     1     -43.684 -48.116  -4.297  1.00  0.00     0.187 HD
HETATM    4  C   UNL     1     -45.458 -49.250  -4.059  1.00  0.00     0.051 A 
HETATM    5  C   UNL     1     -45.093 -50.241  -5.106  1.00  0.00     0.072 C 
HETATM    6  C   UNL     1     -46.621 -49.120  -3.231  1.00  0.00     0.084 A 
HETATM    7  C   UNL     1     -46.403 -47.944  -2.519  1.00  0.00     0.053 A 
HETATM    8  C   UNL     1     -47.181 -47.243  -1.467  1.00  0.00     0.072 C 
ENDROOT
BRANCH   6   9
HETATM    9  N   UNL     1     -47.765 -49.927  -3.117  1.00  0.00    -0.305 N 
HETATM   10  C   UNL     1     -47.933 -50.851  -2.105  1.00  0.00     0.321 C 
HETATM   11  O   UNL     1     -47.203 -50.967  -1.132  1.00  0.00    -0.247 OA
HETATM   12  N   UNL     1     -48.999 -51.723  -2.281  1.00  0.00    -0.338 N 
HETATM   13  H   UNL     1     -49.786 -51.425  -2.833  1.00  0.00     0.164 HD
HETATM   14  H   UNL     1     -48.562 -49.685  -3.685  1.00  0.00     0.171 HD
BRANCH  12  15
HETATM   15  C   UNL     1     -49.197 -52.767  -1.260  1.00  0.00     0.086 C 
HETATM   16  C   UNL     1     -49.367 -54.188  -1.811  1.00  0.00     0.025 C 
HETATM   17  C   UNL     1     -50.753 -54.503  -2.366  1.00  0.00     0.002 C 
HETATM   18  C   UNL     1     -51.909 -54.012  -1.498  1.00  0.00     0.000 C 
HETATM   19  C   UNL     1     -51.713 -52.606  -0.945  1.00  0.00     0.002 C 
HETATM   20  C   UNL     1     -50.345 -52.429  -0.298  1.00  0.00     0.025 C 
ENDBRANCH  12  15
ENDBRANCH   6   9
BRANCH   1  21
HETATM   21  C   UNL     1     -44.458 -46.286  -2.529  1.00  0.00     0.175 C 
BRANCH  21  22
HETATM   22  C   UNL     1     -43.556 -46.551  -1.331  1.00  0.00     0.188 C 
BRANCH  22  23
HETATM   23  O   UNL     1     -42.581 -47.538  -1.685  1.00  0.00    -0.394 OA
HETATM   24  C   UNL     1     -41.281 -46.971  -1.796  1.00  0.00     0.201 C 
ENDBRANCH  22  23
ENDBRANCH  21  22
ENDBRANCH   1  21
TORSDOF 5
ENDMDL
