MODEL 1
REMARK VINA RESULT:      -5.3      0.000      0.000
REMARK  4 active torsions:
REMARK  status: ('A' for Active; 'I' for Inactive)
REMARK    1  A    between atoms: N_6  and  C_7 
REMARK    2  A    between atoms: C_7  and  C_8 
REMARK       I    between atoms: C_8  and  N_10 
REMARK    3  A    between atoms: N_10  and  C_11 
REMARK    4  A    between atoms: C_11  and  C_12 
ROOT
HETATM    1  C   UNL     1     -39.835 -47.556  11.948  1.00  0.00     0.235 C 
HETATM    2  O   UNL     1     -40.250 -47.057  12.992  1.00  0.00    -0.272 OA
HETATM    3  N   UNL     1     -40.130 -47.039  10.707  1.00  0.00    -0.357 N 
HETATM    4  H   UNL     1     -39.827 -47.510   9.861  1.00  0.00     0.162 HD
ENDROOT
BRANCH   1   5
HETATM    5  C   UNL     1     -38.941 -48.776  11.943  1.00  0.00     0.232 C 
BRANCH   5   6
HETATM    6  N   UNL     1     -39.649 -50.047  11.982  1.00  0.00    -0.336 N 
HETATM    7  C   UNL     1     -40.708 -50.422  11.206  1.00  0.00     0.183 A 
HETATM    8  N   UNL     1     -41.136 -51.623  11.516  1.00  0.00    -0.354 N 
HETATM    9  C   UNL     1     -40.314 -52.061  12.522  1.00  0.00     0.028 A 
ATOM     10  HN  UNL     1     -41.919 -52.126  11.096  1.00  0.00     0.166 HD
HETATM   11  C   UNL     1     -40.496 -53.408  13.110  1.00  0.00     0.070 C 
HETATM   12  C   UNL     1     -39.374 -51.095  12.838  1.00  0.00     0.031 A 
HETATM   13  C   UNL     1     -38.286 -51.121  13.847  1.00  0.00     0.070 C 
ENDBRANCH   5   6
ENDBRANCH   1   5
BRANCH   3  14
HETATM   14  C   UNL     1     -40.965 -45.859  10.536  1.00  0.00     0.154 C 
BRANCH  14  15
HETATM   15  C   UNL     1     -42.442 -46.170  10.268  1.00  0.00     0.139 C 
HETATM   16  C   UNL     1     -42.766 -47.571   9.775  1.00  0.00     0.035 C 
HETATM   17  C   UNL     1     -43.971 -47.383   8.873  1.00  0.00     0.029 C 
HETATM   18  C   UNL     1     -44.214 -45.888   8.854  1.00  0.00     0.168 C 
HETATM   19  O   UNL     1     -42.984 -45.285   9.270  1.00  0.00    -0.384 OA
ENDBRANCH  14  15
ENDBRANCH   3  14
TORSDOF 4
ENDMDL
MODEL 2
REMARK VINA RESULT:      -5.3      4.361      6.219
REMARK  4 active torsions:
REMARK  status: ('A' for Active; 'I' for Inactive)
REMARK    1  A    between atoms: N_6  and  C_7 
REMARK    2  A    between atoms: C_7  and  C_8 
REMARK       I    between atoms: C_8  and  N_10 
REMARK    3  A    between atoms: N_10  and  C_11 
REMARK    4  A    between atoms: C_11  and  C_12 
ROOT
HETATM    1  C   UNL     1     -42.254 -52.435  13.523  1.00  0.00     0.235 C 
HETATM    2  O   UNL     1     -42.157 -53.444  14.218  1.00  0.00    -0.272 OA
HETATM    3  N   UNL     1     -43.254 -52.269  12.589  1.00  0.00    -0.357 N 
HETATM    4  H   UNL     1     -43.271 -51.454  11.985  1.00  0.00     0.162 HD
ENDROOT
BRANCH   1   5
HETATM    5  C   UNL     1     -41.291 -51.276  13.650  1.00  0.00     0.232 C 
BRANCH   5   6
HETATM    6  N   UNL     1     -41.188 -50.440  12.464  1.00  0.00    -0.336 N 
HETATM    7  C   UNL     1     -40.372 -50.638  11.387  1.00  0.00     0.183 A 
HETATM    8  N   UNL     1     -40.499 -49.681  10.499  1.00  0.00    -0.354 N 
HETATM    9  C   UNL     1     -41.450 -48.832  11.003  1.00  0.00     0.028 A 
ATOM     10  HN  UNL     1     -39.994 -49.588   9.616  1.00  0.00     0.166 HD
HETATM   11  C   UNL     1     -41.869 -47.633  10.241  1.00  0.00     0.070 C 
HETATM   12  C   UNL     1     -41.900 -49.279  12.234  1.00  0.00     0.031 A 
HETATM   13  C   UNL     1     -42.918 -48.698  13.143  1.00  0.00     0.070 C 
ENDBRANCH   5   6
ENDBRANCH   1   5
BRANCH   3  14
HETATM   14  C   UNL     1     -44.271 -53.281  12.352  1.00  0.00     0.154 C 
BRANCH  14  15
HETATM   15  C   UNL     1     -45.639 -52.950  12.960  1.00  0.00     0.139 C 
HETATM   16  C   UNL     1     -45.935 -51.480  13.213  1.00  0.00     0.035 C 
HETATM   17  C   UNL     1     -46.824 -51.482  14.443  1.00  0.00     0.029 C 
HETATM   18  C   UNL     1     -46.920 -52.937  14.851  1.00  0.00     0.168 C 
HETATM   19  O   UNL     1     -45.805 -53.593  14.237  1.00  0.00    -0.384 OA
ENDBRANCH  14  15
ENDBRANCH   3  14
TORSDOF 4
ENDMDL
MODEL 3
REMARK VINA RESULT:      -5.2      4.235      5.864
REMARK  4 active torsions:
REMARK  status: ('A' for Active; 'I' for Inactive)
REMARK    1  A    between atoms: N_6  and  C_7 
REMARK    2  A    between atoms: C_7  and  C_8 
REMARK       I    between atoms: C_8  and  N_10 
REMARK    3  A    between atoms: N_10  and  C_11 
REMARK    4  A    between atoms: C_11  and  C_12 
ROOT
HETATM    1  C   UNL     1     -42.378 -51.761  13.586  1.00  0.00     0.235 C 
HETATM    2  O   UNL     1     -42.081 -52.756  14.245  1.00  0.00    -0.272 OA
HETATM    3  N   UNL     1     -43.426 -51.746  12.693  1.00  0.00    -0.357 N 
HETATM    4  H   UNL     1     -43.607 -50.931  12.116  1.00  0.00     0.162 HD
ENDROOT
BRANCH   1   5
HETATM    5  C   UNL     1     -41.624 -50.457  13.718  1.00  0.00     0.232 C 
BRANCH   5   6
HETATM    6  N   UNL     1     -40.611 -50.237  12.697  1.00  0.00    -0.336 N 
HETATM    7  C   UNL     1     -40.812 -49.789  11.422  1.00  0.00     0.183 A 
HETATM    8  N   UNL     1     -39.690 -49.731  10.745  1.00  0.00    -0.354 N 
HETATM    9  C   UNL     1     -38.711 -50.138  11.615  1.00  0.00     0.028 A 
ATOM     10  HN  UNL     1     -39.571 -49.444   9.773  1.00  0.00     0.166 HD
HETATM   11  C   UNL     1     -37.293 -50.176  11.188  1.00  0.00     0.070 C 
HETATM   12  C   UNL     1     -39.256 -50.463  12.845  1.00  0.00     0.031 A 
HETATM   13  C   UNL     1     -38.593 -50.942  14.083  1.00  0.00     0.070 C 
ENDBRANCH   5   6
ENDBRANCH   1   5
BRANCH   3  14
HETATM   14  C   UNL     1     -44.263 -52.913  12.458  1.00  0.00     0.154 C 
BRANCH  14  15
HETATM   15  C   UNL     1     -45.604 -52.882  13.202  1.00  0.00     0.139 C 
HETATM   16  C   UNL     1     -46.216 -51.513  13.448  1.00  0.00     0.035 C 
HETATM   17  C   UNL     1     -46.953 -51.663  14.766  1.00  0.00     0.029 C 
HETATM   18  C   UNL     1     -46.659 -53.077  15.218  1.00  0.00     0.168 C 
HETATM   19  O   UNL     1     -45.485 -53.482  14.505  1.00  0.00    -0.384 OA
ENDBRANCH  14  15
ENDBRANCH   3  14
TORSDOF 4
ENDMDL
MODEL 4
REMARK VINA RESULT:      -5.1      4.984      7.113
REMARK  4 active torsions:
REMARK  status: ('A' for Active; 'I' for Inactive)
REMARK    1  A    between atoms: N_6  and  C_7 
REMARK    2  A    between atoms: C_7  and  C_8 
REMARK       I    between atoms: C_8  and  N_10 
REMARK    3  A    between atoms: N_10  and  C_11 
REMARK    4  A    between atoms: C_11  and  C_12 
ROOT
HETATM    1  C   UNL     1     -43.397 -54.807  15.193  1.00  0.00     0.235 C 
HETATM    2  O   UNL     1     -43.900 -54.929  16.309  1.00  0.00    -0.272 OA
HETATM    3  N   UNL     1     -44.143 -54.831  14.035  1.00  0.00    -0.357 N 
HETATM    4  H   UNL     1     -43.693 -54.792  13.126  1.00  0.00     0.162 HD
ENDROOT
BRANCH   1   5
HETATM    5  C   UNL     1     -41.912 -54.597  15.001  1.00  0.00     0.232 C 
BRANCH   5   6
HETATM    6  N   UNL     1     -41.560 -53.786  13.845  1.00  0.00    -0.336 N 
HETATM    7  C   UNL     1     -41.027 -54.224  12.666  1.00  0.00     0.183 A 
HETATM    8  N   UNL     1     -40.796 -53.231  11.839  1.00  0.00    -0.354 N 
HETATM    9  C   UNL     1     -41.211 -52.100  12.493  1.00  0.00     0.028 A 
ATOM     10  HN  UNL     1     -40.391 -53.290  10.904  1.00  0.00     0.166 HD
HETATM   11  C   UNL     1     -41.118 -50.775  11.839  1.00  0.00     0.070 C 
HETATM   12  C   UNL     1     -41.693 -52.415  13.753  1.00  0.00     0.031 A 
HETATM   13  C   UNL     1     -42.248 -51.530  14.807  1.00  0.00     0.070 C 
ENDBRANCH   5   6
ENDBRANCH   1   5
BRANCH   3  14
HETATM   14  C   UNL     1     -45.587 -55.009  14.044  1.00  0.00     0.154 C 
BRANCH  14  15
HETATM   15  C   UNL     1     -46.379 -53.698  13.988  1.00  0.00     0.139 C 
HETATM   16  C   UNL     1     -45.834 -52.608  13.079  1.00  0.00     0.035 C 
HETATM   17  C   UNL     1     -46.218 -51.314  13.771  1.00  0.00     0.029 C 
HETATM   18  C   UNL     1     -46.893 -51.745  15.056  1.00  0.00     0.168 C 
HETATM   19  O   UNL     1     -46.468 -53.092  15.291  1.00  0.00    -0.384 OA
ENDBRANCH  14  15
ENDBRANCH   3  14
TORSDOF 4
ENDMDL
MODEL 5
REMARK VINA RESULT:      -5.1      4.325      6.657
REMARK  4 active torsions:
REMARK  status: ('A' for Active; 'I' for Inactive)
REMARK    1  A    between atoms: N_6  and  C_7 
REMARK    2  A    between atoms: C_7  and  C_8 
REMARK       I    between atoms: C_8  and  N_10 
REMARK    3  A    between atoms: N_10  and  C_11 
REMARK    4  A    between atoms: C_11  and  C_12 
ROOT
HETATM    1  C   UNL     1     -41.701 -53.740  13.295  1.00  0.00     0.235 C 
HETATM    2  O   UNL     1     -40.904 -54.514  12.767  1.00  0.00    -0.272 OA
HETATM    3  N   UNL     1     -41.785 -52.409  12.950  1.00  0.00    -0.357 N 
HETATM    4  H   UNL     1     -42.407 -51.781  13.448  1.00  0.00     0.162 HD
ENDROOT
BRANCH   1   5
HETATM    5  C   UNL     1     -42.675 -54.194  14.359  1.00  0.00     0.232 C 
BRANCH   5   6
HETATM    6  N   UNL     1     -44.031 -53.694  14.192  1.00  0.00    -0.336 N 
HETATM    7  C   UNL     1     -44.988 -54.180  13.348  1.00  0.00     0.183 A 
HETATM    8  N   UNL     1     -46.097 -53.481  13.415  1.00  0.00    -0.354 N 
HETATM    9  C   UNL     1     -45.865 -52.510  14.355  1.00  0.00     0.028 A 
ATOM     10  HN  UNL     1     -46.953 -53.629  12.880  1.00  0.00     0.166 HD
HETATM   11  C   UNL     1     -46.924 -51.538  14.711  1.00  0.00     0.070 C 
HETATM   12  C   UNL     1     -44.579 -52.615  14.858  1.00  0.00     0.031 A 
HETATM   13  C   UNL     1     -43.890 -51.797  15.886  1.00  0.00     0.070 C 
ENDBRANCH   5   6
ENDBRANCH   1   5
BRANCH   3  14
HETATM   14  C   UNL     1     -40.931 -51.815  11.933  1.00  0.00     0.154 C 
BRANCH  14  15
HETATM   15  C   UNL     1     -39.747 -51.021  12.496  1.00  0.00     0.139 C 
HETATM   16  C   UNL     1     -39.224 -49.877  11.642  1.00  0.00     0.035 C 
HETATM   17  C   UNL     1     -37.737 -49.834  11.940  1.00  0.00     0.029 C 
HETATM   18  C   UNL     1     -37.496 -50.993  12.886  1.00  0.00     0.168 C 
HETATM   19  O   UNL     1     -38.610 -51.876  12.717  1.00  0.00    -0.384 OA
ENDBRANCH  14  15
ENDBRANCH   3  14
TORSDOF 4
ENDMDL
MODEL 6
REMARK VINA RESULT:      -5.1      2.263      3.163
REMARK  4 active torsions:
REMARK  status: ('A' for Active; 'I' for Inactive)
REMARK    1  A    between atoms: N_6  and  C_7 
REMARK    2  A    between atoms: C_7  and  C_8 
REMARK       I    between atoms: C_8  and  N_10 
REMARK    3  A    between atoms: N_10  and  C_11 
REMARK    4  A    between atoms: C_11  and  C_12 
ROOT
HETATM    1  C   UNL     1     -41.498 -50.426  12.217  1.00  0.00     0.235 C 
HETATM    2  O   UNL     1     -41.155 -50.007  13.321  1.00  0.00    -0.272 OA
HETATM    3  N   UNL     1     -42.018 -49.607  11.239  1.00  0.00    -0.357 N 
HETATM    4  H   UNL     1     -42.353 -49.991  10.362  1.00  0.00     0.162 HD
ENDROOT
BRANCH   1   5
HETATM    5  C   UNL     1     -41.357 -51.882  11.832  1.00  0.00     0.232 C 
BRANCH   5   6
HETATM    6  N   UNL     1     -42.176 -52.797  12.613  1.00  0.00    -0.336 N 
HETATM    7  C   UNL     1     -43.524 -52.990  12.505  1.00  0.00     0.183 A 
HETATM    8  N   UNL     1     -43.961 -53.865  13.380  1.00  0.00    -0.354 N 
HETATM    9  C   UNL     1     -42.854 -54.276  14.077  1.00  0.00     0.028 A 
ATOM     10  HN  UNL     1     -44.924 -54.174  13.514  1.00  0.00     0.166 HD
HETATM   11  C   UNL     1     -42.973 -55.293  15.146  1.00  0.00     0.070 C 
HETATM   12  C   UNL     1     -41.721 -53.624  13.621  1.00  0.00     0.031 A 
HETATM   13  C   UNL     1     -40.310 -53.746  14.064  1.00  0.00     0.070 C 
ENDBRANCH   5   6
ENDBRANCH   1   5
BRANCH   3  14
HETATM   14  C   UNL     1     -42.205 -48.178  11.442  1.00  0.00     0.154 C 
BRANCH  14  15
HETATM   15  C   UNL     1     -42.937 -47.473  10.293  1.00  0.00     0.139 C 
HETATM   16  C   UNL     1     -44.456 -47.532  10.313  1.00  0.00     0.035 C 
HETATM   17  C   UNL     1     -44.851 -47.544   8.848  1.00  0.00     0.029 C 
HETATM   18  C   UNL     1     -43.539 -47.562   8.091  1.00  0.00     0.168 C 
HETATM   19  O   UNL     1     -42.555 -48.029   9.021  1.00  0.00    -0.384 OA
ENDBRANCH  14  15
ENDBRANCH   3  14
TORSDOF 4
ENDMDL
MODEL 7
REMARK VINA RESULT:      -5.1      2.108      2.587
REMARK  4 active torsions:
REMARK  status: ('A' for Active; 'I' for Inactive)
REMARK    1  A    between atoms: N_6  and  C_7 
REMARK    2  A    between atoms: C_7  and  C_8 
REMARK       I    between atoms: C_8  and  N_10 
REMARK    3  A    between atoms: N_10  and  C_11 
REMARK    4  A    between atoms: C_11  and  C_12 
ROOT
HETATM    1  C   UNL     1     -40.831 -49.165  11.771  1.00  0.00     0.235 C 
HETATM    2  O   UNL     1     -40.463 -49.575  10.672  1.00  0.00    -0.272 OA
HETATM    3  N   UNL     1     -41.263 -47.874  11.978  1.00  0.00    -0.357 N 
HETATM    4  H   UNL     1     -41.499 -47.546  12.909  1.00  0.00     0.162 HD
ENDROOT
BRANCH   1   5
HETATM    5  C   UNL     1     -40.860 -50.058  12.992  1.00  0.00     0.232 C 
BRANCH   5   6
HETATM    6  N   UNL     1     -41.534 -51.332  12.794  1.00  0.00    -0.336 N 
HETATM    7  C   UNL     1     -40.961 -52.518  12.432  1.00  0.00     0.183 A 
HETATM    8  N   UNL     1     -41.855 -53.471  12.307  1.00  0.00    -0.354 N 
HETATM    9  C   UNL     1     -43.059 -52.893  12.619  1.00  0.00     0.028 A 
ATOM     10  HN  UNL     1     -41.688 -54.440  12.034  1.00  0.00     0.166 HD
HETATM   11  C   UNL     1     -44.304 -53.694  12.605  1.00  0.00     0.070 C 
HETATM   12  C   UNL     1     -42.891 -51.554  12.927  1.00  0.00     0.031 A 
HETATM   13  C   UNL     1     -43.895 -50.536  13.325  1.00  0.00     0.070 C 
ENDBRANCH   5   6
ENDBRANCH   1   5
BRANCH   3  14
HETATM   14  C   UNL     1     -41.312 -46.890  10.906  1.00  0.00     0.154 C 
BRANCH  14  15
HETATM   15  C   UNL     1     -42.730 -46.451  10.525  1.00  0.00     0.139 C 
HETATM   16  C   UNL     1     -43.780 -47.546  10.418  1.00  0.00     0.035 C 
HETATM   17  C   UNL     1     -44.721 -47.061   9.332  1.00  0.00     0.029 C 
HETATM   18  C   UNL     1     -44.115 -45.762   8.843  1.00  0.00     0.168 C 
HETATM   19  O   UNL     1     -42.741 -45.794   9.244  1.00  0.00    -0.384 OA
ENDBRANCH  14  15
ENDBRANCH   3  14
TORSDOF 4
ENDMDL
MODEL 8
REMARK VINA RESULT:      -4.9      4.777      6.016
REMARK  4 active torsions:
REMARK  status: ('A' for Active; 'I' for Inactive)
REMARK    1  A    between atoms: N_6  and  C_7 
REMARK    2  A    between atoms: C_7  and  C_8 
REMARK       I    between atoms: C_8  and  N_10 
REMARK    3  A    between atoms: N_10  and  C_11 
REMARK    4  A    between atoms: C_11  and  C_12 
ROOT
HETATM    1  C   UNL     1     -41.708 -53.997  13.840  1.00  0.00     0.235 C 
HETATM    2  O   UNL     1     -42.093 -54.172  14.994  1.00  0.00    -0.272 OA
HETATM    3  N   UNL     1     -42.573 -53.930  12.769  1.00  0.00    -0.357 N 
HETATM    4  H   UNL     1     -42.222 -53.849  11.821  1.00  0.00     0.162 HD
ENDROOT
BRANCH   1   5
HETATM    5  C   UNL     1     -40.245 -53.818  13.499  1.00  0.00     0.232 C 
BRANCH   5   6
HETATM    6  N   UNL     1     -39.765 -52.448  13.596  1.00  0.00    -0.336 N 
HETATM    7  C   UNL     1     -39.857 -51.475  12.642  1.00  0.00     0.183 A 
HETATM    8  N   UNL     1     -39.294 -50.356  13.034  1.00  0.00    -0.354 N 
HETATM    9  C   UNL     1     -38.831 -50.598  14.302  1.00  0.00     0.028 A 
ATOM     10  HN  UNL     1     -39.217 -49.487  12.504  1.00  0.00     0.166 HD
HETATM   11  C   UNL     1     -38.150 -49.531  15.070  1.00  0.00     0.070 C 
HETATM   12  C   UNL     1     -39.109 -51.900  14.682  1.00  0.00     0.031 A 
HETATM   13  C   UNL     1     -38.808 -52.605  15.952  1.00  0.00     0.070 C 
ENDBRANCH   5   6
ENDBRANCH   1   5
BRANCH   3  14
HETATM   14  C   UNL     1     -44.013 -54.067  12.925  1.00  0.00     0.154 C 
BRANCH  14  15
HETATM   15  C   UNL     1     -44.779 -52.740  12.867  1.00  0.00     0.139 C 
HETATM   16  C   UNL     1     -45.287 -52.186  14.189  1.00  0.00     0.035 C 
HETATM   17  C   UNL     1     -46.570 -51.463  13.825  1.00  0.00     0.029 C 
HETATM   18  C   UNL     1     -46.747 -51.707  12.340  1.00  0.00     0.168 C 
HETATM   19  O   UNL     1     -45.946 -52.853  12.032  1.00  0.00    -0.384 OA
ENDBRANCH  14  15
ENDBRANCH   3  14
TORSDOF 4
ENDMDL
MODEL 9
REMARK VINA RESULT:      -4.9      6.252      7.854
REMARK  4 active torsions:
REMARK  status: ('A' for Active; 'I' for Inactive)
REMARK    1  A    between atoms: N_6  and  C_7 
REMARK    2  A    between atoms: C_7  and  C_8 
REMARK       I    between atoms: C_8  and  N_10 
REMARK    3  A    between atoms: N_10  and  C_11 
REMARK    4  A    between atoms: C_11  and  C_12 
ROOT
HETATM    1  C   UNL     1     -46.132 -54.101  15.176  1.00  0.00     0.235 C 
HETATM    2  O   UNL     1     -46.105 -54.538  16.324  1.00  0.00    -0.272 OA
HETATM    3  N   UNL     1     -46.676 -52.876  14.858  1.00  0.00    -0.357 N 
HETATM    4  H   UNL     1     -46.742 -52.570  13.893  1.00  0.00     0.162 HD
ENDROOT
BRANCH   1   5
HETATM    5  C   UNL     1     -45.547 -54.869  14.011  1.00  0.00     0.232 C 
BRANCH   5   6
HETATM    6  N   UNL     1     -44.305 -54.321  13.487  1.00  0.00    -0.336 N 
HETATM    7  C   UNL     1     -44.153 -53.548  12.372  1.00  0.00     0.183 A 
HETATM    8  N   UNL     1     -42.894 -53.246  12.158  1.00  0.00    -0.354 N 
HETATM    9  C   UNL     1     -42.194 -53.828  13.183  1.00  0.00     0.028 A 
ATOM     10  HN  UNL     1     -42.516 -52.693  11.388  1.00  0.00     0.166 HD
HETATM   11  C   UNL     1     -40.725 -53.672  13.275  1.00  0.00     0.070 C 
HETATM   12  C   UNL     1     -43.050 -54.510  14.032  1.00  0.00     0.031 A 
HETATM   13  C   UNL     1     -42.752 -55.280  15.265  1.00  0.00     0.070 C 
ENDBRANCH   5   6
ENDBRANCH   1   5
BRANCH   3  14
HETATM   14  C   UNL     1     -47.266 -52.004  15.863  1.00  0.00     0.154 C 
BRANCH  14  15
HETATM   15  C   UNL     1     -46.281 -51.007  16.483  1.00  0.00     0.139 C 
HETATM   16  C   UNL     1     -45.014 -50.718  15.694  1.00  0.00     0.035 C 
HETATM   17  C   UNL     1     -43.964 -50.447  16.755  1.00  0.00     0.029 C 
HETATM   18  C   UNL     1     -44.676 -50.666  18.073  1.00  0.00     0.168 C 
HETATM   19  O   UNL     1     -45.827 -51.463  17.771  1.00  0.00    -0.384 OA
ENDBRANCH  14  15
ENDBRANCH   3  14
TORSDOF 4
ENDMDL
