MODEL 1
REMARK VINA RESULT:      -6.6      0.000      0.000
REMARK  5 active torsions:
REMARK  status: ('A' for Active; 'I' for Inactive)
REMARK    1  A    between atoms: C_2  and  C_5 
REMARK    2  A    between atoms: C_5  and  O_6 
REMARK    3  A    between atoms: O_6  and  C_7 
REMARK    4  A    between atoms: C_10  and  N_11 
REMARK       I    between atoms: N_11  and  C_12 
REMARK       I    between atoms: C_12  and  N_14 
REMARK    5  A    between atoms: N_14  and  C_15 
ROOT
HETATM    1  N   UNL     1     -41.817 -50.118  11.725  1.00  0.00    -0.308 N 
HETATM    2  C   UNL     1     -42.905 -50.315  12.543  1.00  0.00     0.321 C 
HETATM    3  O   UNL     1     -43.462 -49.443  13.205  1.00  0.00    -0.247 OA
HETATM    4  N   UNL     1     -43.349 -51.614  12.595  1.00  0.00    -0.330 N 
HETATM    5  H   UNL     1     -41.259 -50.932  11.507  1.00  0.00     0.170 HD
HETATM    6  H   UNL     1     -43.048 -52.311  11.925  1.00  0.00     0.165 HD
ENDROOT
BRANCH   1   7
HETATM    7  C   UNL     1     -41.262 -48.839  11.462  1.00  0.00     0.051 A 
HETATM    8  C   UNL     1     -40.206 -48.312  12.206  1.00  0.00     0.035 A 
HETATM    9  C   UNL     1     -39.645 -47.085  11.869  1.00  0.00     0.058 A 
HETATM   10  C   UNL     1     -40.195 -46.383  10.817  1.00  0.00     0.142 A 
HETATM   11  N   UNL     1     -41.248 -46.814  10.091  1.00  0.00    -0.345 N 
HETATM   12  C   UNL     1     -41.751 -48.035  10.431  1.00  0.00     0.119 A 
ATOM     13  HN  UNL     1     -41.645 -46.259   9.333  1.00  0.00     0.167 HD
BRANCH  10  14
HETATM   14  O   UNL     1     -39.577 -45.191  10.510  1.00  0.00    -0.327 OA
BRANCH  14  15
HETATM   15  C   UNL     1     -40.320 -44.041  10.924  1.00  0.00     0.294 C 
BRANCH  15  16
HETATM   16  C   UNL     1     -39.932 -43.494  12.290  1.00  0.00     0.408 C 
HETATM   17  F   UNL     1     -40.820 -43.784  13.263  1.00  0.00    -0.169 F 
HETATM   18  F   UNL     1     -39.846 -42.139  12.232  1.00  0.00    -0.169 F 
HETATM   19  F   UNL     1     -38.716 -43.941  12.680  1.00  0.00    -0.169 F 
ENDBRANCH  15  16
ENDBRANCH  14  15
ENDBRANCH  10  14
ENDBRANCH   1   7
BRANCH   4  20
HETATM   20  C   UNL     1     -44.575 -51.877  13.345  1.00  0.00     0.172 C 
HETATM   21  C   UNL     1     -44.309 -51.895  14.860  1.00  0.00     0.034 C 
HETATM   22  C   UNL     1     -45.578 -51.618  15.668  1.00  0.00     0.004 C 
HETATM   23  C   UNL     1     -46.540 -52.795  15.862  1.00  0.00     0.015 C 
HETATM   24  C   UNL     1     -46.612 -53.868  14.770  1.00  0.00     0.095 C 
HETATM   25  N   UNL     1     -46.526 -53.334  13.428  1.00  0.00    -0.261 NA
HETATM   26  C   UNL     1     -45.236 -53.191  12.932  1.00  0.00     0.220 C 
HETATM   27  H   UNL     1     -47.100 -52.506  13.323  1.00  0.00     0.130 HD
HETATM   28  O   UNL     1     -44.647 -54.078  12.319  1.00  0.00    -0.278 OA
ENDBRANCH   4  20
TORSDOF 5
ENDMDL
MODEL 2
REMARK VINA RESULT:      -6.6      1.860      2.089
REMARK  5 active torsions:
REMARK  status: ('A' for Active; 'I' for Inactive)
REMARK    1  A    between atoms: C_2  and  C_5 
REMARK    2  A    between atoms: C_5  and  O_6 
REMARK    3  A    between atoms: O_6  and  C_7 
REMARK    4  A    between atoms: C_10  and  N_11 
REMARK       I    between atoms: N_11  and  C_12 
REMARK       I    between atoms: C_12  and  N_14 
REMARK    5  A    between atoms: N_14  and  C_15 
ROOT
HETATM    1  N   UNL     1     -41.927 -49.624  11.081  1.00  0.00    -0.308 N 
HETATM    2  C   UNL     1     -42.146 -50.345  12.231  1.00  0.00     0.321 C 
HETATM    3  O   UNL     1     -42.209 -49.875  13.364  1.00  0.00    -0.247 OA
HETATM    4  N   UNL     1     -42.281 -51.698  12.035  1.00  0.00    -0.330 N 
HETATM    5  H   UNL     1     -41.571 -50.134  10.284  1.00  0.00     0.170 HD
HETATM    6  H   UNL     1     -42.431 -52.095  11.116  1.00  0.00     0.165 HD
ENDROOT
BRANCH   1   7
HETATM    7  C   UNL     1     -41.851 -48.207  11.054  1.00  0.00     0.051 A 
HETATM    8  C   UNL     1     -40.639 -47.519  11.127  1.00  0.00     0.035 A 
HETATM    9  C   UNL     1     -40.604 -46.133  11.025  1.00  0.00     0.058 A 
HETATM   10  C   UNL     1     -41.800 -45.457  10.904  1.00  0.00     0.142 A 
HETATM   11  N   UNL     1     -43.007 -46.060  10.879  1.00  0.00    -0.345 N 
HETATM   12  C   UNL     1     -43.000 -47.421  10.950  1.00  0.00     0.119 A 
ATOM     13  HN  UNL     1     -43.875 -45.527  10.811  1.00  0.00     0.167 HD
BRANCH  10  14
HETATM   14  O   UNL     1     -41.699 -44.089  10.774  1.00  0.00    -0.327 OA
BRANCH  14  15
HETATM   15  C   UNL     1     -40.385 -43.588  11.032  1.00  0.00     0.294 C 
BRANCH  15  16
HETATM   16  C   UNL     1     -40.287 -42.650  12.226  1.00  0.00     0.408 C 
HETATM   17  F   UNL     1     -41.315 -42.763  13.092  1.00  0.00    -0.169 F 
HETATM   18  F   UNL     1     -40.280 -41.360  11.796  1.00  0.00    -0.169 F 
HETATM   19  F   UNL     1     -39.134 -42.833  12.912  1.00  0.00    -0.169 F 
ENDBRANCH  15  16
ENDBRANCH  14  15
ENDBRANCH  10  14
ENDBRANCH   1   7
BRANCH   4  20
HETATM   20  C   UNL     1     -42.639 -52.514  13.193  1.00  0.00     0.172 C 
HETATM   21  C   UNL     1     -41.667 -53.695  13.364  1.00  0.00     0.034 C 
HETATM   22  C   UNL     1     -41.655 -54.222  14.800  1.00  0.00     0.004 C 
HETATM   23  C   UNL     1     -42.802 -55.159  15.198  1.00  0.00     0.015 C 
HETATM   24  C   UNL     1     -44.163 -54.977  14.520  1.00  0.00     0.095 C 
HETATM   25  N   UNL     1     -44.521 -53.591  14.304  1.00  0.00    -0.261 NA
HETATM   26  C   UNL     1     -44.069 -53.044  13.109  1.00  0.00     0.220 C 
HETATM   27  H   UNL     1     -44.314 -53.025  15.118  1.00  0.00     0.130 HD
HETATM   28  O   UNL     1     -44.712 -53.085  12.063  1.00  0.00    -0.278 OA
ENDBRANCH   4  20
TORSDOF 5
ENDMDL
MODEL 3
REMARK VINA RESULT:      -6.4      5.393      8.625
REMARK  5 active torsions:
REMARK  status: ('A' for Active; 'I' for Inactive)
REMARK    1  A    between atoms: C_2  and  C_5 
REMARK    2  A    between atoms: C_5  and  O_6 
REMARK    3  A    between atoms: O_6  and  C_7 
REMARK    4  A    between atoms: C_10  and  N_11 
REMARK       I    between atoms: N_11  and  C_12 
REMARK       I    between atoms: C_12  and  N_14 
REMARK    5  A    between atoms: N_14  and  C_15 
ROOT
HETATM    1  N   UNL     1     -39.951 -52.760  14.049  1.00  0.00    -0.308 N 
HETATM    2  C   UNL     1     -39.584 -51.577  14.645  1.00  0.00     0.321 C 
HETATM    3  O   UNL     1     -40.300 -50.586  14.759  1.00  0.00    -0.247 OA
HETATM    4  N   UNL     1     -38.294 -51.556  15.117  1.00  0.00    -0.330 N 
HETATM    5  H   UNL     1     -39.204 -53.357  13.724  1.00  0.00     0.170 HD
HETATM    6  H   UNL     1     -37.746 -52.401  15.219  1.00  0.00     0.165 HD
ENDROOT
BRANCH   1   7
HETATM    7  C   UNL     1     -41.265 -53.019  13.579  1.00  0.00     0.051 A 
HETATM    8  C   UNL     1     -42.201 -53.736  14.327  1.00  0.00     0.035 A 
HETATM    9  C   UNL     1     -43.500 -53.905  13.860  1.00  0.00     0.058 A 
HETATM   10  C   UNL     1     -43.819 -53.394  12.620  1.00  0.00     0.142 A 
HETATM   11  N   UNL     1     -42.947 -52.737  11.827  1.00  0.00    -0.345 N 
HETATM   12  C   UNL     1     -41.692 -52.563  12.331  1.00  0.00     0.119 A 
ATOM     13  HN  UNL     1     -43.211 -52.391  10.904  1.00  0.00     0.167 HD
BRANCH  10  14
HETATM   14  O   UNL     1     -45.129 -53.564  12.226  1.00  0.00    -0.327 OA
BRANCH  14  15
HETATM   15  C   UNL     1     -46.076 -53.026  13.152  1.00  0.00     0.294 C 
BRANCH  15  16
HETATM   16  C   UNL     1     -46.363 -51.542  12.975  1.00  0.00     0.408 C 
HETATM   17  F   UNL     1     -45.260 -50.767  13.003  1.00  0.00    -0.169 F 
HETATM   18  F   UNL     1     -47.170 -51.109  13.980  1.00  0.00    -0.169 F 
HETATM   19  F   UNL     1     -47.023 -51.296  11.819  1.00  0.00    -0.169 F 
ENDBRANCH  15  16
ENDBRANCH  14  15
ENDBRANCH  10  14
ENDBRANCH   1   7
BRANCH   4  20
HETATM   20  C   UNL     1     -37.872 -50.378  15.873  1.00  0.00     0.172 C 
HETATM   21  C   UNL     1     -36.791 -49.588  15.114  1.00  0.00     0.034 C 
HETATM   22  C   UNL     1     -36.725 -48.129  15.568  1.00  0.00     0.004 C 
HETATM   23  C   UNL     1     -35.964 -47.847  16.869  1.00  0.00     0.015 C 
HETATM   24  C   UNL     1     -35.942 -48.930  17.952  1.00  0.00     0.095 C 
HETATM   25  N   UNL     1     -37.199 -49.633  18.093  1.00  0.00    -0.261 NA
HETATM   26  C   UNL     1     -37.352 -50.738  17.264  1.00  0.00     0.220 C 
HETATM   27  H   UNL     1     -37.984 -48.993  18.072  1.00  0.00     0.130 HD
HETATM   28  O   UNL     1     -37.001 -51.871  17.580  1.00  0.00    -0.278 OA
ENDBRANCH   4  20
TORSDOF 5
ENDMDL
MODEL 4
REMARK VINA RESULT:      -6.3      6.002      8.762
REMARK  5 active torsions:
REMARK  status: ('A' for Active; 'I' for Inactive)
REMARK    1  A    between atoms: C_2  and  C_5 
REMARK    2  A    between atoms: C_5  and  O_6 
REMARK    3  A    between atoms: O_6  and  C_7 
REMARK    4  A    between atoms: C_10  and  N_11 
REMARK       I    between atoms: N_11  and  C_12 
REMARK       I    between atoms: C_12  and  N_14 
REMARK    5  A    between atoms: N_14  and  C_15 
ROOT
HETATM    1  N   UNL     1     -40.288 -50.575  11.279  1.00  0.00    -0.308 N 
HETATM    2  C   UNL     1     -41.358 -49.711  11.278  1.00  0.00     0.321 C 
HETATM    3  O   UNL     1     -42.242 -49.674  12.130  1.00  0.00    -0.247 OA
HETATM    4  N   UNL     1     -41.397 -48.857  10.203  1.00  0.00    -0.330 N 
HETATM    5  H   UNL     1     -39.833 -50.737  10.391  1.00  0.00     0.170 HD
HETATM    6  H   UNL     1     -40.598 -48.723   9.595  1.00  0.00     0.165 HD
ENDROOT
BRANCH   1   7
HETATM    7  C   UNL     1     -40.015 -51.473  12.343  1.00  0.00     0.051 A 
HETATM    8  C   UNL     1     -40.672 -52.698  12.477  1.00  0.00     0.035 A 
HETATM    9  C   UNL     1     -40.323 -53.580  13.494  1.00  0.00     0.058 A 
HETATM   10  C   UNL     1     -39.352 -53.190  14.392  1.00  0.00     0.142 A 
HETATM   11  N   UNL     1     -38.717 -52.000  14.347  1.00  0.00    -0.345 N 
HETATM   12  C   UNL     1     -39.063 -51.174  13.318  1.00  0.00     0.119 A 
ATOM     13  HN  UNL     1     -38.019 -51.734  15.041  1.00  0.00     0.167 HD
BRANCH  10  14
HETATM   14  O   UNL     1     -39.026 -54.119  15.356  1.00  0.00    -0.327 OA
BRANCH  14  15
HETATM   15  C   UNL     1     -40.100 -55.007  15.677  1.00  0.00     0.294 C 
BRANCH  15  16
HETATM   16  C   UNL     1     -39.764 -56.055  16.728  1.00  0.00     0.408 C 
HETATM   17  F   UNL     1     -39.772 -55.580  17.990  1.00  0.00    -0.169 F 
HETATM   18  F   UNL     1     -38.516 -56.545  16.503  1.00  0.00    -0.169 F 
HETATM   19  F   UNL     1     -40.609 -57.111  16.668  1.00  0.00    -0.169 F 
ENDBRANCH  15  16
ENDBRANCH  14  15
ENDBRANCH  10  14
ENDBRANCH   1   7
BRANCH   4  20
HETATM   20  C   UNL     1     -42.434 -47.827  10.197  1.00  0.00     0.172 C 
HETATM   21  C   UNL     1     -43.120 -47.737   8.823  1.00  0.00     0.034 C 
HETATM   22  C   UNL     1     -44.512 -47.110   8.918  1.00  0.00     0.004 C 
HETATM   23  C   UNL     1     -44.573 -45.580   9.007  1.00  0.00     0.015 C 
HETATM   24  C   UNL     1     -43.412 -44.841   9.679  1.00  0.00     0.095 C 
HETATM   25  N   UNL     1     -42.888 -45.523  10.843  1.00  0.00    -0.261 NA
HETATM   26  C   UNL     1     -41.890 -46.453  10.582  1.00  0.00     0.220 C 
HETATM   27  H   UNL     1     -43.634 -45.876  11.430  1.00  0.00     0.130 HD
HETATM   28  O   UNL     1     -40.695 -46.170  10.554  1.00  0.00    -0.278 OA
ENDBRANCH   4  20
TORSDOF 5
ENDMDL
MODEL 5
REMARK VINA RESULT:      -6.0      5.104      8.804
REMARK  5 active torsions:
REMARK  status: ('A' for Active; 'I' for Inactive)
REMARK    1  A    between atoms: C_2  and  C_5 
REMARK    2  A    between atoms: C_5  and  O_6 
REMARK    3  A    between atoms: O_6  and  C_7 
REMARK    4  A    between atoms: C_10  and  N_11 
REMARK       I    between atoms: N_11  and  C_12 
REMARK       I    between atoms: C_12  and  N_14 
REMARK    5  A    between atoms: N_14  and  C_15 
ROOT
HETATM    1  N   UNL     1     -42.597 -47.327  12.353  1.00  0.00    -0.308 N 
HETATM    2  C   UNL     1     -41.989 -46.093  12.383  1.00  0.00     0.321 C 
HETATM    3  O   UNL     1     -40.784 -45.898  12.512  1.00  0.00    -0.247 OA
HETATM    4  N   UNL     1     -42.854 -45.032  12.270  1.00  0.00    -0.330 N 
HETATM    5  H   UNL     1     -43.583 -47.354  12.575  1.00  0.00     0.170 HD
HETATM    6  H   UNL     1     -43.813 -45.151  11.967  1.00  0.00     0.165 HD
ENDROOT
BRANCH   1   7
HETATM    7  C   UNL     1     -41.877 -48.549  12.363  1.00  0.00     0.051 A 
HETATM    8  C   UNL     1     -41.637 -49.269  13.536  1.00  0.00     0.035 A 
HETATM    9  C   UNL     1     -40.990 -50.498  13.491  1.00  0.00     0.058 A 
HETATM   10  C   UNL     1     -40.545 -50.958  12.270  1.00  0.00     0.142 A 
HETATM   11  N   UNL     1     -40.700 -50.287  11.109  1.00  0.00    -0.345 N 
HETATM   12  C   UNL     1     -41.367 -49.101  11.187  1.00  0.00     0.119 A 
ATOM     13  HN  UNL     1     -40.339 -50.647  10.226  1.00  0.00     0.167 HD
BRANCH  10  14
HETATM   14  O   UNL     1     -39.941 -52.196  12.285  1.00  0.00    -0.327 OA
BRANCH  14  15
HETATM   15  C   UNL     1     -40.803 -53.246  12.733  1.00  0.00     0.294 C 
BRANCH  15  16
HETATM   16  C   UNL     1     -40.254 -54.068  13.889  1.00  0.00     0.408 C 
HETATM   17  F   UNL     1     -39.341 -54.988  13.517  1.00  0.00    -0.169 F 
HETATM   18  F   UNL     1     -41.268 -54.746  14.491  1.00  0.00    -0.169 F 
HETATM   19  F   UNL     1     -39.699 -53.282  14.841  1.00  0.00    -0.169 F 
ENDBRANCH  15  16
ENDBRANCH  14  15
ENDBRANCH  10  14
ENDBRANCH   1   7
BRANCH   4  20
HETATM   20  C   UNL     1     -42.271 -43.696  12.168  1.00  0.00     0.172 C 
HETATM   21  C   UNL     1     -42.773 -42.781  13.299  1.00  0.00     0.034 C 
HETATM   22  C   UNL     1     -41.818 -41.615  13.559  1.00  0.00     0.004 C 
HETATM   23  C   UNL     1     -41.915 -40.421  12.602  1.00  0.00     0.015 C 
HETATM   24  C   UNL     1     -42.348 -40.677  11.155  1.00  0.00     0.095 C 
HETATM   25  N   UNL     1     -41.803 -41.895  10.595  1.00  0.00    -0.261 NA
HETATM   26  C   UNL     1     -42.560 -43.038  10.820  1.00  0.00     0.220 C 
HETATM   27  H   UNL     1     -40.822 -42.000  10.827  1.00  0.00     0.130 HD
HETATM   28  O   UNL     1     -43.450 -43.416  10.063  1.00  0.00    -0.278 OA
ENDBRANCH   4  20
TORSDOF 5
ENDMDL
MODEL 6
REMARK VINA RESULT:      -6.0      4.979      9.176
REMARK  5 active torsions:
REMARK  status: ('A' for Active; 'I' for Inactive)
REMARK    1  A    between atoms: C_2  and  C_5 
REMARK    2  A    between atoms: C_5  and  O_6 
REMARK    3  A    between atoms: O_6  and  C_7 
REMARK    4  A    between atoms: C_10  and  N_11 
REMARK       I    between atoms: N_11  and  C_12 
REMARK       I    between atoms: C_12  and  N_14 
REMARK    5  A    between atoms: N_14  and  C_15 
ROOT
HETATM    1  N   UNL     1     -41.882 -48.609  13.593  1.00  0.00    -0.308 N 
HETATM    2  C   UNL     1     -42.069 -47.501  12.800  1.00  0.00     0.321 C 
HETATM    3  O   UNL     1     -42.739 -47.468  11.771  1.00  0.00    -0.247 OA
HETATM    4  N   UNL     1     -41.415 -46.374  13.236  1.00  0.00    -0.330 N 
HETATM    5  H   UNL     1     -41.073 -48.605  14.198  1.00  0.00     0.170 HD
HETATM    6  H   UNL     1     -41.023 -46.308  14.168  1.00  0.00     0.165 HD
ENDROOT
BRANCH   1   7
HETATM    7  C   UNL     1     -42.541 -49.846  13.369  1.00  0.00     0.051 A 
HETATM    8  C   UNL     1     -43.745 -50.178  13.994  1.00  0.00     0.035 A 
HETATM    9  C   UNL     1     -44.393 -51.370  13.692  1.00  0.00     0.058 A 
HETATM   10  C   UNL     1     -43.791 -52.234  12.802  1.00  0.00     0.142 A 
HETATM   11  N   UNL     1     -42.605 -51.994  12.204  1.00  0.00    -0.345 N 
HETATM   12  C   UNL     1     -42.013 -50.802  12.501  1.00  0.00     0.119 A 
ATOM     13  HN  UNL     1     -42.176 -52.667  11.568  1.00  0.00     0.167 HD
BRANCH  10  14
HETATM   14  O   UNL     1     -44.497 -53.382  12.518  1.00  0.00    -0.327 OA
BRANCH  14  15
HETATM   15  C   UNL     1     -45.687 -53.527  13.298  1.00  0.00     0.294 C 
BRANCH  15  16
HETATM   16  C   UNL     1     -45.719 -54.766  14.181  1.00  0.00     0.408 C 
HETATM   17  F   UNL     1     -45.700 -55.925  13.493  1.00  0.00    -0.169 F 
HETATM   18  F   UNL     1     -46.858 -54.771  14.922  1.00  0.00    -0.169 F 
HETATM   19  F   UNL     1     -44.689 -54.780  15.060  1.00  0.00    -0.169 F 
ENDBRANCH  15  16
ENDBRANCH  14  15
ENDBRANCH  10  14
ENDBRANCH   1   7
BRANCH   4  20
HETATM   20  C   UNL     1     -41.666 -45.128  12.516  1.00  0.00     0.172 C 
HETATM   21  C   UNL     1     -40.392 -44.271  12.426  1.00  0.00     0.034 C 
HETATM   22  C   UNL     1     -40.450 -43.279  11.263  1.00  0.00     0.004 C 
HETATM   23  C   UNL     1     -41.252 -41.993  11.496  1.00  0.00     0.015 C 
HETATM   24  C   UNL     1     -42.449 -42.041  12.450  1.00  0.00     0.095 C 
HETATM   25  N   UNL     1     -43.222 -43.261  12.348  1.00  0.00    -0.261 NA
HETATM   26  C   UNL     1     -42.785 -44.305  13.153  1.00  0.00     0.220 C 
HETATM   27  H   UNL     1     -43.371 -43.523  11.381  1.00  0.00     0.130 HD
HETATM   28  O   UNL     1     -43.178 -44.480  14.304  1.00  0.00    -0.278 OA
ENDBRANCH   4  20
TORSDOF 5
ENDMDL
MODEL 7
REMARK VINA RESULT:      -5.9      5.020      8.713
REMARK  5 active torsions:
REMARK  status: ('A' for Active; 'I' for Inactive)
REMARK    1  A    between atoms: C_2  and  C_5 
REMARK    2  A    between atoms: C_5  and  O_6 
REMARK    3  A    between atoms: O_6  and  C_7 
REMARK    4  A    between atoms: C_10  and  N_11 
REMARK       I    between atoms: N_11  and  C_12 
REMARK       I    between atoms: C_12  and  N_14 
REMARK    5  A    between atoms: N_14  and  C_15 
ROOT
HETATM    1  N   UNL     1     -43.629 -52.555  14.253  1.00  0.00    -0.308 N 
HETATM    2  C   UNL     1     -42.610 -51.655  14.045  1.00  0.00     0.321 C 
HETATM    3  O   UNL     1     -42.638 -50.466  14.350  1.00  0.00    -0.247 OA
HETATM    4  N   UNL     1     -41.504 -52.184  13.426  1.00  0.00    -0.330 N 
HETATM    5  H   UNL     1     -43.626 -53.387  13.679  1.00  0.00     0.170 HD
HETATM    6  H   UNL     1     -41.364 -53.184  13.339  1.00  0.00     0.165 HD
ENDROOT
BRANCH   1   7
HETATM    7  C   UNL     1     -44.819 -52.233  14.957  1.00  0.00     0.051 A 
HETATM    8  C   UNL     1     -45.887 -51.563  14.357  1.00  0.00     0.035 A 
HETATM    9  C   UNL     1     -47.062 -51.331  15.062  1.00  0.00     0.058 A 
HETATM   10  C   UNL     1     -47.123 -51.732  16.380  1.00  0.00     0.142 A 
HETATM   11  N   UNL     1     -46.108 -52.337  17.032  1.00  0.00    -0.345 N 
HETATM   12  C   UNL     1     -44.983 -52.576  16.300  1.00  0.00     0.119 A 
ATOM     13  HN  UNL     1     -46.178 -52.601  18.015  1.00  0.00     0.167 HD
BRANCH  10  14
HETATM   14  O   UNL     1     -48.324 -51.505  17.016  1.00  0.00    -0.327 OA
BRANCH  14  15
HETATM   15  C   UNL     1     -48.178 -51.125  18.387  1.00  0.00     0.294 C 
BRANCH  15  16
HETATM   16  C   UNL     1     -47.964 -49.635  18.613  1.00  0.00     0.408 C 
HETATM   17  F   UNL     1     -46.731 -49.206  18.277  1.00  0.00    -0.169 F 
HETATM   18  F   UNL     1     -48.133 -49.343  19.930  1.00  0.00    -0.169 F 
HETATM   19  F   UNL     1     -48.870 -48.892  17.935  1.00  0.00    -0.169 F 
ENDBRANCH  15  16
ENDBRANCH  14  15
ENDBRANCH  10  14
ENDBRANCH   1   7
BRANCH   4  20
HETATM   20  C   UNL     1     -40.334 -51.321  13.283  1.00  0.00     0.172 C 
HETATM   21  C   UNL     1     -40.232 -50.753  11.857  1.00  0.00     0.034 C 
HETATM   22  C   UNL     1     -39.399 -49.471  11.810  1.00  0.00     0.004 C 
HETATM   23  C   UNL     1     -37.875 -49.640  11.810  1.00  0.00     0.015 C 
HETATM   24  C   UNL     1     -37.275 -50.852  12.529  1.00  0.00     0.095 C 
HETATM   25  N   UNL     1     -37.949 -51.184  13.766  1.00  0.00    -0.261 NA
HETATM   26  C   UNL     1     -39.034 -52.043  13.634  1.00  0.00     0.220 C 
HETATM   27  H   UNL     1     -38.148 -50.354  14.311  1.00  0.00     0.130 HD
HETATM   28  O   UNL     1     -38.935 -53.266  13.683  1.00  0.00    -0.278 OA
ENDBRANCH   4  20
TORSDOF 5
ENDMDL
MODEL 8
REMARK VINA RESULT:      -5.9      2.919      3.581
REMARK  5 active torsions:
REMARK  status: ('A' for Active; 'I' for Inactive)
REMARK    1  A    between atoms: C_2  and  C_5 
REMARK    2  A    between atoms: C_5  and  O_6 
REMARK    3  A    between atoms: O_6  and  C_7 
REMARK    4  A    between atoms: C_10  and  N_11 
REMARK       I    between atoms: N_11  and  C_12 
REMARK       I    between atoms: C_12  and  N_14 
REMARK    5  A    between atoms: N_14  and  C_15 
ROOT
HETATM    1  N   UNL     1     -42.444 -49.961  11.840  1.00  0.00    -0.308 N 
HETATM    2  C   UNL     1     -41.536 -50.611  12.643  1.00  0.00     0.321 C 
HETATM    3  O   UNL     1     -40.504 -50.119  13.092  1.00  0.00    -0.247 OA
HETATM    4  N   UNL     1     -41.855 -51.919  12.917  1.00  0.00    -0.330 N 
HETATM    5  H   UNL     1     -43.051 -50.541  11.278  1.00  0.00     0.170 HD
HETATM    6  H   UNL     1     -42.777 -52.296  12.734  1.00  0.00     0.165 HD
ENDROOT
BRANCH   1   7
HETATM    7  C   UNL     1     -42.348 -48.583  11.514  1.00  0.00     0.051 A 
HETATM    8  C   UNL     1     -42.779 -47.577  12.380  1.00  0.00     0.035 A 
HETATM    9  C   UNL     1     -42.601 -46.237  12.053  1.00  0.00     0.058 A 
HETATM   10  C   UNL     1     -42.038 -45.933  10.831  1.00  0.00     0.142 A 
HETATM   11  N   UNL     1     -41.648 -46.858   9.929  1.00  0.00    -0.345 N 
HETATM   12  C   UNL     1     -41.810 -48.161  10.298  1.00  0.00     0.119 A 
ATOM     13  HN  UNL     1     -41.256 -46.598   9.024  1.00  0.00     0.167 HD
BRANCH  10  14
HETATM   14  O   UNL     1     -41.857 -44.591  10.577  1.00  0.00    -0.327 OA
BRANCH  14  15
HETATM   15  C   UNL     1     -40.531 -44.133  10.855  1.00  0.00     0.294 C 
BRANCH  15  16
HETATM   16  C   UNL     1     -40.417 -43.217  12.064  1.00  0.00     0.408 C 
HETATM   17  F   UNL     1     -39.509 -43.628  12.974  1.00  0.00    -0.169 F 
HETATM   18  F   UNL     1     -41.613 -43.156  12.707  1.00  0.00    -0.169 F 
HETATM   19  F   UNL     1     -40.109 -41.949  11.703  1.00  0.00    -0.169 F 
ENDBRANCH  15  16
ENDBRANCH  14  15
ENDBRANCH  10  14
ENDBRANCH   1   7
BRANCH   4  20
HETATM   20  C   UNL     1     -41.004 -52.636  13.864  1.00  0.00     0.172 C 
HETATM   21  C   UNL     1     -40.551 -53.990  13.291  1.00  0.00     0.034 C 
HETATM   22  C   UNL     1     -39.275 -54.499  13.965  1.00  0.00     0.004 C 
HETATM   23  C   UNL     1     -39.443 -55.176  15.330  1.00  0.00     0.015 C 
HETATM   24  C   UNL     1     -40.593 -54.723  16.234  1.00  0.00     0.095 C 
HETATM   25  N   UNL     1     -40.826 -53.295  16.203  1.00  0.00    -0.261 NA
HETATM   26  C   UNL     1     -41.694 -52.862  15.208  1.00  0.00     0.220 C 
HETATM   27  H   UNL     1     -39.955 -52.779  16.241  1.00  0.00     0.130 HD
HETATM   28  O   UNL     1     -42.909 -52.777  15.364  1.00  0.00    -0.278 OA
ENDBRANCH   4  20
TORSDOF 5
ENDMDL
MODEL 9
REMARK VINA RESULT:      -5.8     10.354     12.782
REMARK  5 active torsions:
REMARK  status: ('A' for Active; 'I' for Inactive)
REMARK    1  A    between atoms: C_2  and  C_5 
REMARK    2  A    between atoms: C_5  and  O_6 
REMARK    3  A    between atoms: O_6  and  C_7 
REMARK    4  A    between atoms: C_10  and  N_11 
REMARK       I    between atoms: N_11  and  C_12 
REMARK       I    between atoms: C_12  and  N_14 
REMARK    5  A    between atoms: N_14  and  C_15 
ROOT
HETATM    1  N   UNL     1     -39.700 -56.324  17.400  1.00  0.00    -0.308 N 
HETATM    2  C   UNL     1     -39.347 -55.608  16.280  1.00  0.00     0.321 C 
HETATM    3  O   UNL     1     -38.290 -55.725  15.665  1.00  0.00    -0.247 OA
HETATM    4  N   UNL     1     -40.286 -54.691  15.873  1.00  0.00    -0.330 N 
HETATM    5  H   UNL     1     -40.413 -55.921  17.992  1.00  0.00     0.170 HD
HETATM    6  H   UNL     1     -41.234 -54.702  16.227  1.00  0.00     0.165 HD
ENDROOT
BRANCH   1   7
HETATM    7  C   UNL     1     -38.913 -57.381  17.927  1.00  0.00     0.051 A 
HETATM    8  C   UNL     1     -39.328 -58.713  17.894  1.00  0.00     0.035 A 
HETATM    9  C   UNL     1     -38.495 -59.725  18.357  1.00  0.00     0.058 A 
HETATM   10  C   UNL     1     -37.276 -59.373  18.896  1.00  0.00     0.142 A 
HETATM   11  N   UNL     1     -36.839 -58.100  19.004  1.00  0.00    -0.345 N 
HETATM   12  C   UNL     1     -37.669 -57.137  18.511  1.00  0.00     0.119 A 
ATOM     13  HN  UNL     1     -35.940 -57.872  19.429  1.00  0.00     0.167 HD
BRANCH  10  14
HETATM   14  O   UNL     1     -36.482 -60.420  19.307  1.00  0.00    -0.327 OA
BRANCH  14  15
HETATM   15  C   UNL     1     -35.118 -60.296  18.896  1.00  0.00     0.294 C 
BRANCH  15  16
HETATM   16  C   UNL     1     -34.404 -61.619  18.658  1.00  0.00     0.408 C 
HETATM   17  F   UNL     1     -33.071 -61.496  18.495  1.00  0.00    -0.169 F 
HETATM   18  F   UNL     1     -34.883 -62.201  17.527  1.00  0.00    -0.169 F 
HETATM   19  F   UNL     1     -34.627 -62.495  19.666  1.00  0.00    -0.169 F 
ENDBRANCH  15  16
ENDBRANCH  14  15
ENDBRANCH  10  14
ENDBRANCH   1   7
BRANCH   4  20
HETATM   20  C   UNL     1     -40.036 -53.981  14.621  1.00  0.00     0.172 C 
HETATM   21  C   UNL     1     -39.881 -52.469  14.859  1.00  0.00     0.034 C 
HETATM   22  C   UNL     1     -39.101 -51.789  13.732  1.00  0.00     0.004 C 
HETATM   23  C   UNL     1     -39.882 -51.468  12.452  1.00  0.00     0.015 C 
HETATM   24  C   UNL     1     -41.049 -52.380  12.060  1.00  0.00     0.095 C 
HETATM   25  N   UNL     1     -40.798 -53.783  12.315  1.00  0.00    -0.261 NA
HETATM   26  C   UNL     1     -41.138 -54.220  13.590  1.00  0.00     0.220 C 
HETATM   27  H   UNL     1     -39.864 -54.049  12.025  1.00  0.00     0.130 HD
HETATM   28  O   UNL     1     -42.250 -54.651  13.880  1.00  0.00    -0.278 OA
ENDBRANCH   4  20
TORSDOF 5
ENDMDL
