MODEL 1
REMARK VINA RESULT:      -5.8      0.000      0.000
REMARK  4 active torsions:
REMARK  status: ('A' for Active; 'I' for Inactive)
REMARK    1  A    between atoms: C_2  and  C_3 
REMARK       I    between atoms: C_2  and  N_17 
REMARK    2  A    between atoms: C_3  and  N_4 
REMARK    3  A    between atoms: N_11  and  C_12 
REMARK    4  A    between atoms: N_17  and  C_18 
ROOT
HETATM    1  N   UNL     1     -40.401 -50.772  12.409  1.00  0.00    -0.256 N 
HETATM    2  C   UNL     1     -39.295 -51.026  13.205  1.00  0.00     0.274 A 
HETATM    3  O   UNL     1     -38.847 -52.150  13.414  1.00  0.00    -0.266 OA
HETATM    4  C   UNL     1     -38.617 -49.844  13.779  1.00  0.00     0.128 A 
HETATM    5  C   UNL     1     -37.481 -50.005  14.611  1.00  0.00     0.106 C 
HETATM    6  N   UNL     1     -36.546 -50.058  15.296  1.00  0.00    -0.191 NA
HETATM    7  C   UNL     1     -39.089 -48.631  13.476  1.00  0.00     0.124 A 
HETATM    8  N   UNL     1     -40.193 -48.438  12.677  1.00  0.00    -0.303 N 
HETATM    9  C   UNL     1     -40.888 -49.503  12.094  1.00  0.00     0.332 A 
HETATM   10  O   UNL     1     -41.867 -49.351  11.359  1.00  0.00    -0.246 OA
ENDROOT
BRANCH   1  11
HETATM   11  C   UNL     1     -41.110 -51.914  11.846  1.00  0.00     0.239 C 
BRANCH  11  12
HETATM   12  C   UNL     1     -42.183 -52.377  12.832  1.00  0.00     0.236 C 
HETATM   13  O   UNL     1     -41.955 -53.188  13.724  1.00  0.00    -0.272 OA
HETATM   14  N   UNL     1     -43.406 -51.755  12.674  1.00  0.00    -0.355 N 
HETATM   15  H   UNL     1     -43.424 -50.886  12.143  1.00  0.00     0.162 HD
BRANCH  14  16
HETATM   16  C   UNL     1     -44.535 -52.066  13.527  1.00  0.00     0.084 C 
HETATM   17  C   UNL     1     -45.869 -51.939  12.788  1.00  0.00     0.025 C 
HETATM   18  C   UNL     1     -46.886 -51.455  13.820  1.00  0.00     0.002 C 
HETATM   19  C   UNL     1     -46.128 -51.318  15.135  1.00  0.00     0.002 C 
HETATM   20  C   UNL     1     -44.678 -51.120  14.717  1.00  0.00     0.025 C 
ENDBRANCH  14  16
ENDBRANCH  11  12
ENDBRANCH   1  11
BRANCH   8  21
HETATM   21  C   UNL     1     -40.572 -47.066  12.414  1.00  0.00     0.094 A 
HETATM   22  C   UNL     1     -40.018 -46.336  11.211  1.00  0.00     0.028 A 
HETATM   23  C   UNL     1     -39.634 -45.899  12.590  1.00  0.00     0.028 A 
ENDBRANCH   8  21
TORSDOF 4
ENDMDL
MODEL 2
REMARK VINA RESULT:      -5.8      2.834      6.127
REMARK  4 active torsions:
REMARK  status: ('A' for Active; 'I' for Inactive)
REMARK    1  A    between atoms: C_2  and  C_3 
REMARK       I    between atoms: C_2  and  N_17 
REMARK    2  A    between atoms: C_3  and  N_4 
REMARK    3  A    between atoms: N_11  and  C_12 
REMARK    4  A    between atoms: N_17  and  C_18 
ROOT
HETATM    1  N   UNL     1     -41.927 -53.675  13.207  1.00  0.00    -0.256 N 
HETATM    2  C   UNL     1     -41.358 -54.290  14.311  1.00  0.00     0.274 A 
HETATM    3  O   UNL     1     -40.156 -54.263  14.563  1.00  0.00    -0.266 OA
HETATM    4  C   UNL     1     -42.290 -54.965  15.237  1.00  0.00     0.128 A 
HETATM    5  C   UNL     1     -41.799 -55.627  16.391  1.00  0.00     0.106 C 
HETATM    6  N   UNL     1     -41.472 -56.184  17.354  1.00  0.00    -0.191 NA
HETATM    7  C   UNL     1     -43.599 -54.918  14.970  1.00  0.00     0.124 A 
HETATM    8  N   UNL     1     -44.110 -54.290  13.856  1.00  0.00    -0.303 N 
HETATM    9  C   UNL     1     -43.295 -53.625  12.933  1.00  0.00     0.332 A 
HETATM   10  O   UNL     1     -43.735 -53.040  11.941  1.00  0.00    -0.246 OA
ENDROOT
BRANCH   1  11
HETATM   11  C   UNL     1     -41.037 -53.019  12.258  1.00  0.00     0.239 C 
BRANCH  11  12
HETATM   12  C   UNL     1     -40.956 -51.528  12.591  1.00  0.00     0.236 C 
HETATM   13  O   UNL     1     -40.230 -51.086  13.475  1.00  0.00    -0.272 OA
HETATM   14  N   UNL     1     -41.716 -50.722  11.767  1.00  0.00    -0.355 N 
HETATM   15  H   UNL     1     -42.024 -51.116  10.880  1.00  0.00     0.162 HD
BRANCH  14  16
HETATM   16  C   UNL     1     -41.752 -49.282  11.932  1.00  0.00     0.084 C 
HETATM   17  C   UNL     1     -43.161 -48.773  12.243  1.00  0.00     0.025 C 
HETATM   18  C   UNL     1     -43.271 -47.395  11.591  1.00  0.00     0.002 C 
HETATM   19  C   UNL     1     -41.928 -47.130  10.923  1.00  0.00     0.002 C 
HETATM   20  C   UNL     1     -41.348 -48.516  10.676  1.00  0.00     0.025 C 
ENDBRANCH  14  16
ENDBRANCH  11  12
ENDBRANCH   1  11
BRANCH   8  21
HETATM   21  C   UNL     1     -45.550 -54.296  13.711  1.00  0.00     0.094 A 
HETATM   22  C   UNL     1     -46.382 -53.168  14.281  1.00  0.00     0.028 A 
HETATM   23  C   UNL     1     -46.497 -54.544  14.858  1.00  0.00     0.028 A 
ENDBRANCH   8  21
TORSDOF 4
ENDMDL
MODEL 3
REMARK VINA RESULT:      -5.8      0.955      3.235
REMARK  4 active torsions:
REMARK  status: ('A' for Active; 'I' for Inactive)
REMARK    1  A    between atoms: C_2  and  C_3 
REMARK       I    between atoms: C_2  and  N_17 
REMARK    2  A    between atoms: C_3  and  N_4 
REMARK    3  A    between atoms: N_11  and  C_12 
REMARK    4  A    between atoms: N_17  and  C_18 
ROOT
HETATM    1  N   UNL     1     -40.264 -51.066  12.469  1.00  0.00    -0.256 N 
HETATM    2  C   UNL     1     -40.741 -49.798  12.176  1.00  0.00     0.274 A 
HETATM    3  O   UNL     1     -41.772 -49.586  11.542  1.00  0.00    -0.266 OA
HETATM    4  C   UNL     1     -39.962 -48.664  12.715  1.00  0.00     0.128 A 
HETATM    5  C   UNL     1     -40.370 -47.330  12.462  1.00  0.00     0.106 C 
HETATM    6  N   UNL     1     -40.644 -46.215  12.300  1.00  0.00    -0.191 NA
HETATM    7  C   UNL     1     -38.883 -48.930  13.459  1.00  0.00     0.124 A 
HETATM    8  N   UNL     1     -38.455 -50.212  13.719  1.00  0.00    -0.303 N 
HETATM    9  C   UNL     1     -39.138 -51.338  13.248  1.00  0.00     0.332 A 
HETATM   10  O   UNL     1     -38.782 -52.495  13.487  1.00  0.00    -0.246 OA
ENDROOT
BRANCH   1  11
HETATM   11  C   UNL     1     -40.992 -52.208  11.933  1.00  0.00     0.239 C 
BRANCH  11  12
HETATM   12  C   UNL     1     -42.139 -52.564  12.881  1.00  0.00     0.236 C 
HETATM   13  O   UNL     1     -41.977 -53.242  13.890  1.00  0.00    -0.272 OA
HETATM   14  N   UNL     1     -43.352 -52.001  12.538  1.00  0.00    -0.355 N 
HETATM   15  H   UNL     1     -43.338 -51.212  11.894  1.00  0.00     0.162 HD
BRANCH  14  16
HETATM   16  C   UNL     1     -44.547 -52.225  13.328  1.00  0.00     0.084 C 
HETATM   17  C   UNL     1     -45.807 -52.289  12.463  1.00  0.00     0.025 C 
HETATM   18  C   UNL     1     -46.935 -51.694  13.305  1.00  0.00     0.002 C 
HETATM   19  C   UNL     1     -46.311 -51.306  14.640  1.00  0.00     0.002 C 
HETATM   20  C   UNL     1     -44.835 -51.106  14.325  1.00  0.00     0.025 C 
ENDBRANCH  14  16
ENDBRANCH  11  12
ENDBRANCH   1  11
BRANCH   8  21
HETATM   21  C   UNL     1     -37.286 -50.347  14.562  1.00  0.00     0.094 A 
HETATM   22  C   UNL     1     -37.436 -50.501  16.060  1.00  0.00     0.028 A 
HETATM   23  C   UNL     1     -36.809 -49.264  15.497  1.00  0.00     0.028 A 
ENDBRANCH   8  21
TORSDOF 4
ENDMDL
MODEL 4
REMARK VINA RESULT:      -5.8      2.884      6.412
REMARK  4 active torsions:
REMARK  status: ('A' for Active; 'I' for Inactive)
REMARK    1  A    between atoms: C_2  and  C_3 
REMARK       I    between atoms: C_2  and  N_17 
REMARK    2  A    between atoms: C_3  and  N_4 
REMARK    3  A    between atoms: N_11  and  C_12 
REMARK    4  A    between atoms: N_17  and  C_18 
ROOT
HETATM    1  N   UNL     1     -41.303 -52.778  12.873  1.00  0.00    -0.256 N 
HETATM    2  C   UNL     1     -42.596 -53.267  12.979  1.00  0.00     0.274 A 
HETATM    3  O   UNL     1     -43.480 -53.041  12.157  1.00  0.00    -0.266 OA
HETATM    4  C   UNL     1     -42.871 -54.144  14.135  1.00  0.00     0.128 A 
HETATM    5  C   UNL     1     -44.167 -54.687  14.330  1.00  0.00     0.106 C 
HETATM    6  N   UNL     1     -45.198 -55.169  14.551  1.00  0.00    -0.191 NA
HETATM    7  C   UNL     1     -41.869 -54.426  14.973  1.00  0.00     0.124 A 
HETATM    8  N   UNL     1     -40.601 -53.912  14.819  1.00  0.00    -0.303 N 
HETATM    9  C   UNL     1     -40.259 -53.077  13.750  1.00  0.00     0.332 A 
HETATM   10  O   UNL     1     -39.125 -52.623  13.583  1.00  0.00    -0.246 OA
ENDROOT
BRANCH   1  11
HETATM   11  C   UNL     1     -41.000 -51.890  11.759  1.00  0.00     0.239 C 
BRANCH  11  12
HETATM   12  C   UNL     1     -41.405 -50.462  12.128  1.00  0.00     0.236 C 
HETATM   13  O   UNL     1     -41.503 -50.081  13.290  1.00  0.00    -0.272 OA
HETATM   14  N   UNL     1     -41.585 -49.626  11.043  1.00  0.00    -0.355 N 
HETATM   15  H   UNL     1     -41.180 -49.917  10.155  1.00  0.00     0.162 HD
BRANCH  14  16
HETATM   16  C   UNL     1     -41.963 -48.236  11.207  1.00  0.00     0.084 C 
HETATM   17  C   UNL     1     -42.923 -47.767  10.113  1.00  0.00     0.025 C 
HETATM   18  C   UNL     1     -42.597 -46.296   9.859  1.00  0.00     0.002 C 
HETATM   19  C   UNL     1     -41.463 -45.940  10.812  1.00  0.00     0.002 C 
HETATM   20  C   UNL     1     -40.785 -47.270  11.108  1.00  0.00     0.025 C 
ENDBRANCH  14  16
ENDBRANCH  11  12
ENDBRANCH   1  11
BRANCH   8  21
HETATM   21  C   UNL     1     -39.611 -54.326  15.789  1.00  0.00     0.094 A 
HETATM   22  C   UNL     1     -38.681 -55.481  15.490  1.00  0.00     0.028 A 
HETATM   23  C   UNL     1     -39.705 -55.610  16.573  1.00  0.00     0.028 A 
ENDBRANCH   8  21
TORSDOF 4
ENDMDL
MODEL 5
REMARK VINA RESULT:      -5.7      2.899      4.695
REMARK  4 active torsions:
REMARK  status: ('A' for Active; 'I' for Inactive)
REMARK    1  A    between atoms: C_2  and  C_3 
REMARK       I    between atoms: C_2  and  N_17 
REMARK    2  A    between atoms: C_3  and  N_4 
REMARK    3  A    between atoms: N_11  and  C_12 
REMARK    4  A    between atoms: N_17  and  C_18 
ROOT
HETATM    1  N   UNL     1     -40.920 -48.012  11.137  1.00  0.00    -0.256 N 
HETATM    2  C   UNL     1     -41.949 -47.434  10.410  1.00  0.00     0.274 A 
HETATM    3  O   UNL     1     -42.785 -48.078   9.780  1.00  0.00    -0.266 OA
HETATM    4  C   UNL     1     -42.039 -45.960  10.458  1.00  0.00     0.128 A 
HETATM    5  C   UNL     1     -43.054 -45.280   9.740  1.00  0.00     0.106 C 
HETATM    6  N   UNL     1     -43.859 -44.657   9.184  1.00  0.00    -0.191 NA
HETATM    7  C   UNL     1     -41.155 -45.294  11.208  1.00  0.00     0.124 A 
HETATM    8  N   UNL     1     -40.152 -45.920  11.912  1.00  0.00    -0.303 N 
HETATM    9  C   UNL     1     -40.001 -47.311  11.921  1.00  0.00     0.332 A 
HETATM   10  O   UNL     1     -39.122 -47.893  12.561  1.00  0.00    -0.246 OA
ENDROOT
BRANCH   1  11
HETATM   11  C   UNL     1     -40.786 -49.461  11.094  1.00  0.00     0.239 C 
BRANCH  11  12
HETATM   12  C   UNL     1     -41.655 -50.082  12.188  1.00  0.00     0.236 C 
HETATM   13  O   UNL     1     -42.072 -49.438  13.146  1.00  0.00    -0.272 OA
HETATM   14  N   UNL     1     -41.984 -51.405  11.968  1.00  0.00    -0.355 N 
HETATM   15  H   UNL     1     -41.877 -51.763  11.021  1.00  0.00     0.162 HD
BRANCH  14  16
HETATM   16  C   UNL     1     -42.809 -52.150  12.899  1.00  0.00     0.084 C 
HETATM   17  C   UNL     1     -41.976 -53.047  13.817  1.00  0.00     0.025 C 
HETATM   18  C   UNL     1     -42.827 -54.286  14.091  1.00  0.00     0.002 C 
HETATM   19  C   UNL     1     -44.134 -54.082  13.335  1.00  0.00     0.002 C 
HETATM   20  C   UNL     1     -43.778 -53.111  12.218  1.00  0.00     0.025 C 
ENDBRANCH  14  16
ENDBRANCH  11  12
ENDBRANCH   1  11
BRANCH   8  21
HETATM   21  C   UNL     1     -39.286 -45.071  12.702  1.00  0.00     0.094 A 
HETATM   22  C   UNL     1     -39.656 -44.709  14.123  1.00  0.00     0.028 A 
HETATM   23  C   UNL     1     -39.628 -43.649  13.067  1.00  0.00     0.028 A 
ENDBRANCH   8  21
TORSDOF 4
ENDMDL
MODEL 6
REMARK VINA RESULT:      -5.7      3.444      5.799
REMARK  4 active torsions:
REMARK  status: ('A' for Active; 'I' for Inactive)
REMARK    1  A    between atoms: C_2  and  C_3 
REMARK       I    between atoms: C_2  and  N_17 
REMARK    2  A    between atoms: C_3  and  N_4 
REMARK    3  A    between atoms: N_11  and  C_12 
REMARK    4  A    between atoms: N_17  and  C_18 
ROOT
HETATM    1  N   UNL     1     -43.529 -53.815  13.364  1.00  0.00    -0.256 N 
HETATM    2  C   UNL     1     -42.405 -53.086  13.008  1.00  0.00     0.274 A 
HETATM    3  O   UNL     1     -42.400 -52.223  12.134  1.00  0.00    -0.266 OA
HETATM    4  C   UNL     1     -41.175 -53.360  13.780  1.00  0.00     0.128 A 
HETATM    5  C   UNL     1     -39.975 -52.667  13.484  1.00  0.00     0.106 C 
HETATM    6  N   UNL     1     -38.959 -52.137  13.301  1.00  0.00    -0.191 NA
HETATM    7  C   UNL     1     -41.232 -54.256  14.770  1.00  0.00     0.124 A 
HETATM    8  N   UNL     1     -42.378 -54.952  15.081  1.00  0.00    -0.303 N 
HETATM    9  C   UNL     1     -43.584 -54.748  14.401  1.00  0.00     0.332 A 
HETATM   10  O   UNL     1     -44.626 -55.347  14.677  1.00  0.00    -0.246 OA
ENDROOT
BRANCH   1  11
HETATM   11  C   UNL     1     -44.754 -53.590  12.609  1.00  0.00     0.239 C 
BRANCH  11  12
HETATM   12  C   UNL     1     -45.511 -52.408  13.217  1.00  0.00     0.236 C 
HETATM   13  O   UNL     1     -46.111 -51.585  12.533  1.00  0.00    -0.272 OA
HETATM   14  N   UNL     1     -45.516 -52.389  14.598  1.00  0.00    -0.355 N 
HETATM   15  H   UNL     1     -45.283 -53.255  15.079  1.00  0.00     0.162 HD
BRANCH  14  16
HETATM   16  C   UNL     1     -46.193 -51.345  15.342  1.00  0.00     0.084 C 
HETATM   17  C   UNL     1     -45.320 -50.779  16.464  1.00  0.00     0.025 C 
HETATM   18  C   UNL     1     -46.272 -50.405  17.600  1.00  0.00     0.002 C 
HETATM   19  C   UNL     1     -47.674 -50.754  17.113  1.00  0.00     0.002 C 
HETATM   20  C   UNL     1     -47.452 -51.827  16.057  1.00  0.00     0.025 C 
ENDBRANCH  14  16
ENDBRANCH  11  12
ENDBRANCH   1  11
BRANCH   8  21
HETATM   21  C   UNL     1     -42.297 -55.871  16.196  1.00  0.00     0.094 A 
HETATM   22  C   UNL     1     -42.486 -55.375  17.613  1.00  0.00     0.028 A 
HETATM   23  C   UNL     1     -41.150 -55.887  17.175  1.00  0.00     0.028 A 
ENDBRANCH   8  21
TORSDOF 4
ENDMDL
MODEL 7
REMARK VINA RESULT:      -5.4      3.093      7.170
REMARK  4 active torsions:
REMARK  status: ('A' for Active; 'I' for Inactive)
REMARK    1  A    between atoms: C_2  and  C_3 
REMARK       I    between atoms: C_2  and  N_17 
REMARK    2  A    between atoms: C_3  and  N_4 
REMARK    3  A    between atoms: N_11  and  C_12 
REMARK    4  A    between atoms: N_17  and  C_18 
ROOT
HETATM    1  N   UNL     1     -41.550 -53.687  13.309  1.00  0.00    -0.256 N 
HETATM    2  C   UNL     1     -42.918 -53.895  13.216  1.00  0.00     0.274 A 
HETATM    3  O   UNL     1     -43.584 -53.623  12.221  1.00  0.00    -0.266 OA
HETATM    4  C   UNL     1     -43.565 -54.526  14.385  1.00  0.00     0.128 A 
HETATM    5  C   UNL     1     -44.961 -54.773  14.384  1.00  0.00     0.106 C 
HETATM    6  N   UNL     1     -46.094 -55.009  14.454  1.00  0.00    -0.191 NA
HETATM    7  C   UNL     1     -42.800 -54.872  15.425  1.00  0.00     0.124 A 
HETATM    8  N   UNL     1     -41.444 -54.642  15.463  1.00  0.00    -0.303 N 
HETATM    9  C   UNL     1     -40.756 -54.053  14.397  1.00  0.00     0.332 A 
HETATM   10  O   UNL     1     -39.539 -53.856  14.403  1.00  0.00    -0.246 OA
ENDROOT
BRANCH   1  11
HETATM   11  C   UNL     1     -40.882 -53.045  12.186  1.00  0.00     0.239 C 
BRANCH  11  12
HETATM   12  C   UNL     1     -40.818 -51.536  12.432  1.00  0.00     0.236 C 
HETATM   13  O   UNL     1     -41.767 -50.790  12.218  1.00  0.00    -0.272 OA
HETATM   14  N   UNL     1     -39.626 -51.102  12.977  1.00  0.00    -0.355 N 
HETATM   15  H   UNL     1     -39.029 -51.801  13.416  1.00  0.00     0.162 HD
BRANCH  14  16
HETATM   16  C   UNL     1     -39.393 -49.704  13.284  1.00  0.00     0.084 C 
HETATM   17  C   UNL     1     -37.943 -49.291  13.023  1.00  0.00     0.025 C 
HETATM   18  C   UNL     1     -37.605 -48.232  14.072  1.00  0.00     0.002 C 
HETATM   19  C   UNL     1     -38.862 -48.048  14.913  1.00  0.00     0.002 C 
HETATM   20  C   UNL     1     -39.620 -49.358  14.753  1.00  0.00     0.025 C 
ENDBRANCH  14  16
ENDBRANCH  11  12
ENDBRANCH   1  11
BRANCH   8  21
HETATM   21  C   UNL     1     -40.741 -55.096  16.644  1.00  0.00     0.094 A 
HETATM   22  C   UNL     1     -40.108 -56.469  16.679  1.00  0.00     0.028 A 
HETATM   23  C   UNL     1     -41.273 -56.164  17.566  1.00  0.00     0.028 A 
ENDBRANCH   8  21
TORSDOF 4
ENDMDL
MODEL 8
REMARK VINA RESULT:      -5.4      1.999      2.381
REMARK  4 active torsions:
REMARK  status: ('A' for Active; 'I' for Inactive)
REMARK    1  A    between atoms: C_2  and  C_3 
REMARK       I    between atoms: C_2  and  N_17 
REMARK    2  A    between atoms: C_3  and  N_4 
REMARK    3  A    between atoms: N_11  and  C_12 
REMARK    4  A    between atoms: N_17  and  C_18 
ROOT
HETATM    1  N   UNL     1     -40.237 -49.388  12.077  1.00  0.00    -0.256 N 
HETATM    2  C   UNL     1     -39.321 -49.389  13.117  1.00  0.00     0.274 A 
HETATM    3  O   UNL     1     -38.889 -50.410  13.646  1.00  0.00    -0.266 OA
HETATM    4  C   UNL     1     -38.825 -48.067  13.554  1.00  0.00     0.128 A 
HETATM    5  C   UNL     1     -37.891 -47.967  14.615  1.00  0.00     0.106 C 
HETATM    6  N   UNL     1     -37.125 -47.809  15.472  1.00  0.00    -0.191 NA
HETATM    7  C   UNL     1     -39.264 -46.980  12.912  1.00  0.00     0.124 A 
HETATM    8  N   UNL     1     -40.175 -47.038  11.882  1.00  0.00    -0.303 N 
HETATM    9  C   UNL     1     -40.690 -48.250  11.408  1.00  0.00     0.332 A 
HETATM   10  O   UNL     1     -41.492 -48.325  10.474  1.00  0.00    -0.246 OA
ENDROOT
BRANCH   1  11
HETATM   11  C   UNL     1     -40.767 -50.671  11.636  1.00  0.00     0.239 C 
BRANCH  11  12
HETATM   12  C   UNL     1     -41.916 -51.086  12.556  1.00  0.00     0.236 C 
HETATM   13  O   UNL     1     -42.604 -50.272  13.163  1.00  0.00    -0.272 OA
HETATM   14  N   UNL     1     -42.152 -52.446  12.590  1.00  0.00    -0.355 N 
HETATM   15  H   UNL     1     -41.766 -53.008  11.834  1.00  0.00     0.162 HD
BRANCH  14  16
HETATM   16  C   UNL     1     -43.209 -53.016  13.403  1.00  0.00     0.084 C 
HETATM   17  C   UNL     1     -42.668 -53.996  14.446  1.00  0.00     0.025 C 
HETATM   18  C   UNL     1     -43.737 -55.076  14.613  1.00  0.00     0.002 C 
HETATM   19  C   UNL     1     -44.875 -54.698  13.672  1.00  0.00     0.002 C 
HETATM   20  C   UNL     1     -44.214 -53.840  12.603  1.00  0.00     0.025 C 
ENDBRANCH  14  16
ENDBRANCH  11  12
ENDBRANCH   1  11
BRANCH   8  21
HETATM   21  C   UNL     1     -40.538 -45.781  11.264  1.00  0.00     0.094 A 
HETATM   22  C   UNL     1     -39.627 -45.141  10.240  1.00  0.00     0.028 A 
HETATM   23  C   UNL     1     -39.840 -44.479  11.564  1.00  0.00     0.028 A 
ENDBRANCH   8  21
TORSDOF 4
ENDMDL
MODEL 9
REMARK VINA RESULT:      -5.1      2.254      2.573
REMARK  4 active torsions:
REMARK  status: ('A' for Active; 'I' for Inactive)
REMARK    1  A    between atoms: C_2  and  C_3 
REMARK       I    between atoms: C_2  and  N_17 
REMARK    2  A    between atoms: C_3  and  N_4 
REMARK    3  A    between atoms: N_11  and  C_12 
REMARK    4  A    between atoms: N_17  and  C_18 
ROOT
HETATM    1  N   UNL     1     -40.590 -49.669  12.482  1.00  0.00    -0.256 N 
HETATM    2  C   UNL     1     -39.273 -49.377  12.802  1.00  0.00     0.274 A 
HETATM    3  O   UNL     1     -38.306 -49.877  12.235  1.00  0.00    -0.266 OA
HETATM    4  C   UNL     1     -39.066 -48.366  13.860  1.00  0.00     0.128 A 
HETATM    5  C   UNL     1     -37.754 -48.007  14.259  1.00  0.00     0.106 C 
HETATM    6  N   UNL     1     -36.712 -47.661  14.634  1.00  0.00    -0.191 NA
HETATM    7  C   UNL     1     -40.139 -47.791  14.410  1.00  0.00     0.124 A 
HETATM    8  N   UNL     1     -41.427 -48.120  14.052  1.00  0.00    -0.303 N 
HETATM    9  C   UNL     1     -41.708 -49.063  13.058  1.00  0.00     0.332 A 
HETATM   10  O   UNL     1     -42.854 -49.358  12.708  1.00  0.00    -0.246 OA
ENDROOT
BRANCH   1  11
HETATM   11  C   UNL     1     -40.834 -50.678  11.461  1.00  0.00     0.239 C 
BRANCH  11  12
HETATM   12  C   UNL     1     -41.011 -52.042  12.131  1.00  0.00     0.236 C 
HETATM   13  O   UNL     1     -40.062 -52.748  12.454  1.00  0.00    -0.272 OA
HETATM   14  N   UNL     1     -42.324 -52.374  12.401  1.00  0.00    -0.355 N 
HETATM   15  H   UNL     1     -43.008 -51.620  12.402  1.00  0.00     0.162 HD
BRANCH  14  16
HETATM   16  C   UNL     1     -42.677 -53.626  13.041  1.00  0.00     0.084 C 
HETATM   17  C   UNL     1     -44.116 -54.045  12.735  1.00  0.00     0.025 C 
HETATM   18  C   UNL     1     -44.627 -54.765  13.983  1.00  0.00     0.002 C 
HETATM   19  C   UNL     1     -43.476 -54.756  14.981  1.00  0.00     0.002 C 
HETATM   20  C   UNL     1     -42.622 -53.566  14.565  1.00  0.00     0.025 C 
ENDBRANCH  14  16
ENDBRANCH  11  12
ENDBRANCH   1  11
BRANCH   8  21
HETATM   21  C   UNL     1     -42.490 -47.395  14.714  1.00  0.00     0.094 A 
HETATM   22  C   UNL     1     -43.067 -46.143  14.091  1.00  0.00     0.028 A 
HETATM   23  C   UNL     1     -42.294 -46.051  15.368  1.00  0.00     0.028 A 
ENDBRANCH   8  21
TORSDOF 4
ENDMDL
