MODEL 1
REMARK VINA RESULT:      -5.7      0.000      0.000
REMARK  3 active torsions:
REMARK  status: ('A' for Active; 'I' for Inactive)
REMARK    1  A    between atoms: C_2  and  C_4 
REMARK       I    between atoms: C_4  and  N_6 
REMARK    2  A    between atoms: N_6  and  C_7 
REMARK    3  A    between atoms: C_10  and  N_14 
ROOT
HETATM    1  C   UNL     1     -40.450 -50.010  11.713  1.00  0.00     0.107 A 
HETATM    2  C   UNL     1     -39.486 -49.081  12.071  1.00  0.00     0.051 A 
HETATM    3  C   UNL     1     -39.676 -47.737  11.718  1.00  0.00     0.034 A 
HETATM    4  C   UNL     1     -40.797 -47.344  10.991  1.00  0.00     0.046 A 
HETATM    5  C   UNL     1     -41.682 -48.383  10.677  1.00  0.00     0.119 A 
HETATM    6  N   UNL     1     -41.568 -49.682  11.048  1.00  0.00    -0.350 N 
ATOM      7  HN  UNL     1     -42.289 -50.370  10.833  1.00  0.00     0.166 HD
ENDROOT
BRANCH   1   8
HETATM    8  N   UNL     1     -40.354 -51.360  12.042  1.00  0.00    -0.313 N 
HETATM    9  C   UNL     1     -41.384 -52.099  12.583  1.00  0.00     0.226 C 
HETATM   10  O   UNL     1     -42.491 -51.654  12.865  1.00  0.00    -0.273 OA
HETATM   11  H   UNL     1     -39.404 -51.655  12.212  1.00  0.00     0.170 HD
BRANCH   9  12
HETATM   12  C   UNL     1     -41.021 -53.565  12.779  1.00  0.00     0.070 C 
HETATM   13  C   UNL     1     -39.800 -53.694  13.690  1.00  0.00     0.019 C 
HETATM   14  C   UNL     1     -42.224 -54.292  13.376  1.00  0.00     0.019 C 
ENDBRANCH   9  12
ENDBRANCH   1   8
BRANCH   4  15
HETATM   15  N   UNL     1     -41.016 -46.043  10.603  1.00  0.00    -0.376 N 
HETATM   16  C   UNL     1     -39.913 -45.130  10.270  1.00  0.00     0.149 C 
HETATM   17  C   UNL     1     -40.098 -43.817  11.046  1.00  0.00     0.187 C 
HETATM   18  O   UNL     1     -41.379 -43.226  10.768  1.00  0.00    -0.388 OA
HETATM   19  C   UNL     1     -42.440 -44.126  11.137  1.00  0.00     0.187 C 
HETATM   20  C   UNL     1     -42.348 -45.467  10.382  1.00  0.00     0.149 C 
ENDBRANCH   4  15
TORSDOF 3
ENDMDL
MODEL 2
REMARK VINA RESULT:      -5.6      3.624      5.926
REMARK  3 active torsions:
REMARK  status: ('A' for Active; 'I' for Inactive)
REMARK    1  A    between atoms: C_2  and  C_4 
REMARK       I    between atoms: C_4  and  N_6 
REMARK    2  A    between atoms: N_6  and  C_7 
REMARK    3  A    between atoms: C_10  and  N_14 
ROOT
HETATM    1  C   UNL     1     -43.215 -47.795  10.970  1.00  0.00     0.107 A 
HETATM    2  C   UNL     1     -42.953 -47.010  12.080  1.00  0.00     0.051 A 
HETATM    3  C   UNL     1     -41.679 -47.068  12.666  1.00  0.00     0.034 A 
HETATM    4  C   UNL     1     -40.702 -47.924  12.162  1.00  0.00     0.046 A 
HETATM    5  C   UNL     1     -41.104 -48.676  11.051  1.00  0.00     0.119 A 
HETATM    6  N   UNL     1     -42.301 -48.608  10.419  1.00  0.00    -0.350 N 
ATOM      7  HN  UNL     1     -42.496 -49.145   9.573  1.00  0.00     0.166 HD
ENDROOT
BRANCH   1   8
HETATM    8  N   UNL     1     -44.442 -47.784  10.312  1.00  0.00    -0.313 N 
HETATM    9  C   UNL     1     -44.586 -47.719   8.943  1.00  0.00     0.226 C 
HETATM   10  O   UNL     1     -43.658 -47.635   8.146  1.00  0.00    -0.273 OA
HETATM   11  H   UNL     1     -45.196 -47.449  10.895  1.00  0.00     0.170 HD
BRANCH   9  12
HETATM   12  C   UNL     1     -46.040 -47.790   8.495  1.00  0.00     0.070 C 
HETATM   13  C   UNL     1     -46.689 -49.079   9.000  1.00  0.00     0.019 C 
HETATM   14  C   UNL     1     -46.777 -46.564   9.029  1.00  0.00     0.019 C 
ENDBRANCH   9  12
ENDBRANCH   1   8
BRANCH   4  15
HETATM   15  N   UNL     1     -39.449 -48.032  12.715  1.00  0.00    -0.376 N 
HETATM   16  C   UNL     1     -38.485 -49.052  12.278  1.00  0.00     0.149 C 
HETATM   17  C   UNL     1     -37.939 -49.787  13.511  1.00  0.00     0.187 C 
HETATM   18  O   UNL     1     -37.350 -48.866  14.445  1.00  0.00    -0.388 OA
HETATM   19  C   UNL     1     -38.324 -47.902  14.885  1.00  0.00     0.187 C 
HETATM   20  C   UNL     1     -38.909 -47.095  13.709  1.00  0.00     0.149 C 
ENDBRANCH   4  15
TORSDOF 3
ENDMDL
MODEL 3
REMARK VINA RESULT:      -5.4      1.369      1.561
REMARK  3 active torsions:
REMARK  status: ('A' for Active; 'I' for Inactive)
REMARK    1  A    between atoms: C_2  and  C_4 
REMARK       I    between atoms: C_4  and  N_6 
REMARK    2  A    between atoms: N_6  and  C_7 
REMARK    3  A    between atoms: C_10  and  N_14 
ROOT
HETATM    1  C   UNL     1     -42.006 -50.478  12.246  1.00  0.00     0.107 A 
HETATM    2  C   UNL     1     -42.714 -49.452  12.849  1.00  0.00     0.051 A 
HETATM    3  C   UNL     1     -42.550 -48.143  12.371  1.00  0.00     0.034 A 
HETATM    4  C   UNL     1     -41.666 -47.871  11.329  1.00  0.00     0.046 A 
HETATM    5  C   UNL     1     -41.000 -48.995  10.823  1.00  0.00     0.119 A 
HETATM    6  N   UNL     1     -41.172 -50.281  11.214  1.00  0.00    -0.350 N 
ATOM      7  HN  UNL     1     -40.694 -51.054  10.750  1.00  0.00     0.166 HD
ENDROOT
BRANCH   1   8
HETATM    8  N   UNL     1     -42.124 -51.808  12.640  1.00  0.00    -0.313 N 
HETATM    9  C   UNL     1     -41.058 -52.669  12.787  1.00  0.00     0.226 C 
HETATM   10  O   UNL     1     -39.889 -52.379  12.563  1.00  0.00    -0.273 OA
HETATM   11  H   UNL     1     -43.036 -52.195  12.445  1.00  0.00     0.170 HD
BRANCH   9  12
HETATM   12  C   UNL     1     -41.473 -54.045  13.294  1.00  0.00     0.070 C 
HETATM   13  C   UNL     1     -40.879 -54.303  14.678  1.00  0.00     0.019 C 
HETATM   14  C   UNL     1     -42.998 -54.112  13.335  1.00  0.00     0.019 C 
ENDBRANCH   9  12
ENDBRANCH   1   8
BRANCH   4  15
HETATM   15  N   UNL     1     -41.456 -46.603  10.842  1.00  0.00    -0.376 N 
HETATM   16  C   UNL     1     -40.110 -46.027  10.716  1.00  0.00     0.149 C 
HETATM   17  C   UNL     1     -40.097 -44.637  11.370  1.00  0.00     0.187 C 
HETATM   18  O   UNL     1     -41.097 -43.781  10.791  1.00  0.00    -0.388 OA
HETATM   19  C   UNL     1     -42.408 -44.351  10.961  1.00  0.00     0.187 C 
HETATM   20  C   UNL     1     -42.520 -45.744  10.308  1.00  0.00     0.149 C 
ENDBRANCH   4  15
TORSDOF 3
ENDMDL
MODEL 4
REMARK VINA RESULT:      -5.3      2.422      7.752
REMARK  3 active torsions:
REMARK  status: ('A' for Active; 'I' for Inactive)
REMARK    1  A    between atoms: C_2  and  C_4 
REMARK       I    between atoms: C_4  and  N_6 
REMARK    2  A    between atoms: N_6  and  C_7 
REMARK    3  A    between atoms: C_10  and  N_14 
ROOT
HETATM    1  C   UNL     1     -42.138 -49.363  12.194  1.00  0.00     0.107 A 
HETATM    2  C   UNL     1     -43.245 -49.574  13.000  1.00  0.00     0.051 A 
HETATM    3  C   UNL     1     -43.589 -50.889  13.348  1.00  0.00     0.034 A 
HETATM    4  C   UNL     1     -42.853 -51.969  12.865  1.00  0.00     0.046 A 
HETATM    5  C   UNL     1     -41.773 -51.617  12.045  1.00  0.00     0.119 A 
HETATM    6  N   UNL     1     -41.370 -50.361  11.733  1.00  0.00    -0.350 N 
ATOM      7  HN  UNL     1     -40.531 -50.185  11.179  1.00  0.00     0.166 HD
ENDROOT
BRANCH   1   8
HETATM    8  N   UNL     1     -41.711 -48.091  11.818  1.00  0.00    -0.313 N 
HETATM    9  C   UNL     1     -41.892 -47.555  10.562  1.00  0.00     0.226 C 
HETATM   10  O   UNL     1     -42.421 -48.137   9.622  1.00  0.00    -0.273 OA
HETATM   11  H   UNL     1     -40.949 -47.751  12.386  1.00  0.00     0.170 HD
BRANCH   9  12
HETATM   12  C   UNL     1     -41.385 -46.122  10.452  1.00  0.00     0.070 C 
HETATM   13  C   UNL     1     -42.267 -45.181  11.272  1.00  0.00     0.019 C 
HETATM   14  C   UNL     1     -39.939 -46.075  10.939  1.00  0.00     0.019 C 
ENDBRANCH   9  12
ENDBRANCH   1   8
BRANCH   4  15
HETATM   15  N   UNL     1     -43.165 -53.274  13.160  1.00  0.00    -0.376 N 
HETATM   16  C   UNL     1     -44.390 -53.917  12.666  1.00  0.00     0.149 C 
HETATM   17  C   UNL     1     -45.115 -54.586  13.843  1.00  0.00     0.187 C 
HETATM   18  O   UNL     1     -44.257 -55.524  14.515  1.00  0.00    -0.388 OA
HETATM   19  C   UNL     1     -43.084 -54.862  15.021  1.00  0.00     0.187 C 
HETATM   20  C   UNL     1     -42.276 -54.182  13.897  1.00  0.00     0.149 C 
ENDBRANCH   4  15
TORSDOF 3
ENDMDL
MODEL 5
REMARK VINA RESULT:      -5.3      3.267      6.163
REMARK  3 active torsions:
REMARK  status: ('A' for Active; 'I' for Inactive)
REMARK    1  A    between atoms: C_2  and  C_4 
REMARK       I    between atoms: C_4  and  N_6 
REMARK    2  A    between atoms: N_6  and  C_7 
REMARK    3  A    between atoms: C_10  and  N_14 
ROOT
HETATM    1  C   UNL     1     -40.712 -47.449  10.994  1.00  0.00     0.107 A 
HETATM    2  C   UNL     1     -40.316 -46.497  11.918  1.00  0.00     0.051 A 
HETATM    3  C   UNL     1     -39.396 -46.861  12.914  1.00  0.00     0.034 A 
HETATM    4  C   UNL     1     -38.914 -48.165  12.994  1.00  0.00     0.046 A 
HETATM    5  C   UNL     1     -39.411 -49.031  12.012  1.00  0.00     0.119 A 
HETATM    6  N   UNL     1     -40.251 -48.708  10.999  1.00  0.00    -0.350 N 
ATOM      7  HN  UNL     1     -40.518 -49.384  10.282  1.00  0.00     0.166 HD
ENDROOT
BRANCH   1   8
HETATM    8  N   UNL     1     -41.602 -47.169   9.959  1.00  0.00    -0.313 N 
HETATM    9  C   UNL     1     -42.941 -47.494   9.982  1.00  0.00     0.226 C 
HETATM   10  O   UNL     1     -43.501 -48.090  10.896  1.00  0.00    -0.273 OA
HETATM   11  H   UNL     1     -41.144 -47.065   9.066  1.00  0.00     0.170 HD
BRANCH   9  12
HETATM   12  C   UNL     1     -43.690 -47.010   8.747  1.00  0.00     0.070 C 
HETATM   13  C   UNL     1     -43.434 -47.948   7.568  1.00  0.00     0.019 C 
HETATM   14  C   UNL     1     -45.179 -46.940   9.073  1.00  0.00     0.019 C 
ENDBRANCH   9  12
ENDBRANCH   1   8
BRANCH   4  15
HETATM   15  N   UNL     1     -38.030 -48.575  13.964  1.00  0.00    -0.376 N 
HETATM   16  C   UNL     1     -37.821 -49.994  14.284  1.00  0.00     0.149 C 
HETATM   17  C   UNL     1     -37.941 -50.189  15.803  1.00  0.00     0.187 C 
HETATM   18  O   UNL     1     -37.018 -49.343  16.510  1.00  0.00    -0.388 OA
HETATM   19  C   UNL     1     -37.269 -47.959  16.208  1.00  0.00     0.187 C 
HETATM   20  C   UNL     1     -37.143 -47.665  14.700  1.00  0.00     0.149 C 
ENDBRANCH   4  15
TORSDOF 3
ENDMDL
MODEL 6
REMARK VINA RESULT:      -5.3      2.091      2.891
REMARK  3 active torsions:
REMARK  status: ('A' for Active; 'I' for Inactive)
REMARK    1  A    between atoms: C_2  and  C_4 
REMARK       I    between atoms: C_4  and  N_6 
REMARK    2  A    between atoms: N_6  and  C_7 
REMARK    3  A    between atoms: C_10  and  N_14 
ROOT
HETATM    1  C   UNL     1     -42.760 -51.220  13.041  1.00  0.00     0.107 A 
HETATM    2  C   UNL     1     -41.504 -51.177  12.459  1.00  0.00     0.051 A 
HETATM    3  C   UNL     1     -41.128 -50.032  11.740  1.00  0.00     0.034 A 
HETATM    4  C   UNL     1     -42.013 -48.968  11.585  1.00  0.00     0.046 A 
HETATM    5  C   UNL     1     -43.255 -49.148  12.206  1.00  0.00     0.119 A 
HETATM    6  N   UNL     1     -43.638 -50.209  12.957  1.00  0.00    -0.350 N 
ATOM      7  HN  UNL     1     -44.541 -50.237  13.431  1.00  0.00     0.166 HD
ENDROOT
BRANCH   1   8
HETATM    8  N   UNL     1     -43.207 -52.305  13.790  1.00  0.00    -0.313 N 
HETATM    9  C   UNL     1     -44.287 -53.090  13.447  1.00  0.00     0.226 C 
HETATM   10  O   UNL     1     -44.996 -52.912  12.463  1.00  0.00    -0.273 OA
HETATM   11  H   UNL     1     -42.940 -52.247  14.762  1.00  0.00     0.170 HD
BRANCH   9  12
HETATM   12  C   UNL     1     -44.509 -54.248  14.412  1.00  0.00     0.070 C 
HETATM   13  C   UNL     1     -45.471 -55.269  13.805  1.00  0.00     0.019 C 
HETATM   14  C   UNL     1     -43.159 -54.890  14.724  1.00  0.00     0.019 C 
ENDBRANCH   9  12
ENDBRANCH   1   8
BRANCH   4  15
HETATM   15  N   UNL     1     -41.698 -47.836  10.871  1.00  0.00    -0.376 N 
HETATM   16  C   UNL     1     -40.467 -47.073  11.117  1.00  0.00     0.149 C 
HETATM   17  C   UNL     1     -40.822 -45.588  11.288  1.00  0.00     0.187 C 
HETATM   18  O   UNL     1     -41.536 -45.091  10.143  1.00  0.00    -0.388 OA
HETATM   19  C   UNL     1     -42.755 -45.830   9.948  1.00  0.00     0.187 C 
HETATM   20  C   UNL     1     -42.489 -47.335   9.740  1.00  0.00     0.149 C 
ENDBRANCH   4  15
TORSDOF 3
ENDMDL
MODEL 7
REMARK VINA RESULT:      -5.3      4.068      7.214
REMARK  3 active torsions:
REMARK  status: ('A' for Active; 'I' for Inactive)
REMARK    1  A    between atoms: C_2  and  C_4 
REMARK       I    between atoms: C_4  and  N_6 
REMARK    2  A    between atoms: N_6  and  C_7 
REMARK    3  A    between atoms: C_10  and  N_14 
ROOT
HETATM    1  C   UNL     1     -40.892 -51.909  12.972  1.00  0.00     0.107 A 
HETATM    2  C   UNL     1     -41.193 -53.261  12.941  1.00  0.00     0.051 A 
HETATM    3  C   UNL     1     -42.532 -53.661  13.074  1.00  0.00     0.034 A 
HETATM    4  C   UNL     1     -43.540 -52.718  13.265  1.00  0.00     0.046 A 
HETATM    5  C   UNL     1     -43.097 -51.390  13.297  1.00  0.00     0.119 A 
HETATM    6  N   UNL     1     -41.826 -50.957  13.114  1.00  0.00    -0.350 N 
ATOM      7  HN  UNL     1     -41.592 -49.964  13.088  1.00  0.00     0.166 HD
ENDROOT
BRANCH   1   8
HETATM    8  N   UNL     1     -39.595 -51.423  12.826  1.00  0.00    -0.313 N 
HETATM    9  C   UNL     1     -39.244 -50.402  11.970  1.00  0.00     0.226 C 
HETATM   10  O   UNL     1     -40.019 -49.821  11.219  1.00  0.00    -0.273 OA
HETATM   11  H   UNL     1     -38.892 -52.098  13.089  1.00  0.00     0.170 HD
BRANCH   9  12
HETATM   12  C   UNL     1     -37.770 -50.030  12.064  1.00  0.00     0.070 C 
HETATM   13  C   UNL     1     -37.019 -51.047  12.924  1.00  0.00     0.019 C 
HETATM   14  C   UNL     1     -37.188 -49.974  10.654  1.00  0.00     0.019 C 
ENDBRANCH   9  12
ENDBRANCH   1   8
BRANCH   4  15
HETATM   15  N   UNL     1     -44.861 -53.063  13.422  1.00  0.00    -0.376 N 
HETATM   16  C   UNL     1     -45.943 -52.072  13.340  1.00  0.00     0.149 C 
HETATM   17  C   UNL     1     -46.854 -52.220  14.568  1.00  0.00     0.187 C 
HETATM   18  O   UNL     1     -47.367 -53.559  14.675  1.00  0.00    -0.388 OA
HETATM   19  C   UNL     1     -46.288 -54.505  14.792  1.00  0.00     0.187 C 
HETATM   20  C   UNL     1     -45.334 -54.444  13.582  1.00  0.00     0.149 C 
ENDBRANCH   4  15
TORSDOF 3
ENDMDL
MODEL 8
REMARK VINA RESULT:      -5.2      1.715      2.284
REMARK  3 active torsions:
REMARK  status: ('A' for Active; 'I' for Inactive)
REMARK    1  A    between atoms: C_2  and  C_4 
REMARK       I    between atoms: C_4  and  N_6 
REMARK    2  A    between atoms: N_6  and  C_7 
REMARK    3  A    between atoms: C_10  and  N_14 
ROOT
HETATM    1  C   UNL     1     -42.639 -50.117  12.561  1.00  0.00     0.107 A 
HETATM    2  C   UNL     1     -43.035 -49.164  13.484  1.00  0.00     0.051 A 
HETATM    3  C   UNL     1     -42.633 -47.832  13.298  1.00  0.00     0.034 A 
HETATM    4  C   UNL     1     -41.823 -47.477  12.222  1.00  0.00     0.046 A 
HETATM    5  C   UNL     1     -41.479 -48.540  11.377  1.00  0.00     0.119 A 
HETATM    6  N   UNL     1     -41.892 -49.826  11.485  1.00  0.00    -0.350 N 
ATOM      7  HN  UNL     1     -41.648 -50.532  10.790  1.00  0.00     0.166 HD
ENDROOT
BRANCH   1   8
HETATM    8  N   UNL     1     -43.010 -51.457  12.654  1.00  0.00    -0.313 N 
HETATM    9  C   UNL     1     -42.120 -52.496  12.817  1.00  0.00     0.226 C 
HETATM   10  O   UNL     1     -40.901 -52.372  12.871  1.00  0.00    -0.273 OA
HETATM   11  H   UNL     1     -43.903 -51.646  12.224  1.00  0.00     0.170 HD
BRANCH   9  12
HETATM   12  C   UNL     1     -42.807 -53.848  12.957  1.00  0.00     0.070 C 
HETATM   13  C   UNL     1     -42.635 -54.389  14.375  1.00  0.00     0.019 C 
HETATM   14  C   UNL     1     -44.286 -53.683  12.612  1.00  0.00     0.019 C 
ENDBRANCH   9  12
ENDBRANCH   1   8
BRANCH   4  15
HETATM   15  N   UNL     1     -41.386 -46.191  12.011  1.00  0.00    -0.376 N 
HETATM   16  C   UNL     1     -42.231 -45.022  12.289  1.00  0.00     0.149 C 
HETATM   17  C   UNL     1     -42.230 -44.099  11.062  1.00  0.00     0.187 C 
HETATM   18  O   UNL     1     -40.891 -43.714  10.703  1.00  0.00    -0.388 OA
HETATM   19  C   UNL     1     -40.097 -44.874  10.400  1.00  0.00     0.187 C 
HETATM   20  C   UNL     1     -40.020 -45.849  11.593  1.00  0.00     0.149 C 
ENDBRANCH   4  15
TORSDOF 3
ENDMDL
MODEL 9
REMARK VINA RESULT:      -5.1      1.632      7.338
REMARK  3 active torsions:
REMARK  status: ('A' for Active; 'I' for Inactive)
REMARK    1  A    between atoms: C_2  and  C_4 
REMARK       I    between atoms: C_4  and  N_6 
REMARK    2  A    between atoms: N_6  and  C_7 
REMARK    3  A    between atoms: C_10  and  N_14 
ROOT
HETATM    1  C   UNL     1     -39.804 -48.293  11.545  1.00  0.00     0.107 A 
HETATM    2  C   UNL     1     -38.966 -48.668  12.582  1.00  0.00     0.051 A 
HETATM    3  C   UNL     1     -39.034 -49.984  13.066  1.00  0.00     0.034 A 
HETATM    4  C   UNL     1     -39.950 -50.890  12.537  1.00  0.00     0.046 A 
HETATM    5  C   UNL     1     -40.749 -50.376  11.508  1.00  0.00     0.119 A 
HETATM    6  N   UNL     1     -40.677 -49.134  10.971  1.00  0.00    -0.350 N 
ATOM      7  HN  UNL     1     -41.254 -48.854  10.177  1.00  0.00     0.166 HD
ENDROOT
BRANCH   1   8
HETATM    8  N   UNL     1     -39.788 -47.016  10.989  1.00  0.00    -0.313 N 
HETATM    9  C   UNL     1     -40.769 -46.070  11.196  1.00  0.00     0.226 C 
HETATM   10  O   UNL     1     -41.780 -46.246  11.867  1.00  0.00    -0.273 OA
HETATM   11  H   UNL     1     -39.233 -46.962  10.148  1.00  0.00     0.170 HD
BRANCH   9  12
HETATM   12  C   UNL     1     -40.461 -44.740  10.520  1.00  0.00     0.070 C 
HETATM   13  C   UNL     1     -40.316 -43.634  11.565  1.00  0.00     0.019 C 
HETATM   14  C   UNL     1     -39.180 -44.890   9.704  1.00  0.00     0.019 C 
ENDBRANCH   9  12
ENDBRANCH   1   8
BRANCH   4  15
HETATM   15  N   UNL     1     -40.068 -52.181  12.992  1.00  0.00    -0.376 N 
HETATM   16  C   UNL     1     -40.942 -53.165  12.337  1.00  0.00     0.149 C 
HETATM   17  C   UNL     1     -41.832 -53.829  13.398  1.00  0.00     0.187 C 
HETATM   18  O   UNL     1     -41.041 -54.430  14.438  1.00  0.00    -0.388 OA
HETATM   19  C   UNL     1     -40.223 -53.439  15.086  1.00  0.00     0.187 C 
HETATM   20  C   UNL     1     -39.274 -52.737  14.095  1.00  0.00     0.149 C 
ENDBRANCH   4  15
TORSDOF 3
ENDMDL
