MODEL 1
REMARK VINA RESULT:      -6.7      0.000      0.000
REMARK  6 active torsions:
REMARK  status: ('A' for Active; 'I' for Inactive)
REMARK    1  A    between atoms: C_5  and  O_6 
REMARK    2  A    between atoms: O_6  and  C_7 
REMARK    3  A    between atoms: C_7  and  C_8 
REMARK    4  A    between atoms: C_8  and  O_9 
REMARK    5  A    between atoms: C_8  and  C_10 
REMARK    6  A    between atoms: C_10  and  N_11 
ROOT
HETATM    1  N   UNL     1     -42.110 -50.878  12.956  1.00  0.00    -0.284 N 
HETATM    2  N   UNL     1     -43.276 -50.183  12.845  1.00  0.00    -0.308 N 
ATOM      3  HN  UNL     1     -44.207 -50.468  13.150  1.00  0.00     0.186 HD
HETATM    4  C   UNL     1     -42.922 -49.041  12.245  1.00  0.00     0.122 A 
HETATM    5  C   UNL     1     -41.557 -49.012  11.954  1.00  0.00     0.032 A 
HETATM    6  C   UNL     1     -40.687 -48.067  11.329  1.00  0.00     0.122 A 
HETATM    7  N   UNL     1     -39.423 -48.338  11.172  1.00  0.00    -0.306 N 
ATOM      8  HN  UNL     1     -38.803 -47.661  10.727  1.00  0.00     0.186 HD
HETATM    9  N   UNL     1     -38.918 -49.570  11.621  1.00  0.00    -0.261 N 
HETATM   10  C   UNL     1     -37.507 -49.807  11.396  1.00  0.00     0.181 C 
HETATM   11  C   UNL     1     -39.679 -50.573  12.257  1.00  0.00     0.290 A 
HETATM   12  O   UNL     1     -39.217 -51.641  12.644  1.00  0.00    -0.264 OA
HETATM   13  C   UNL     1     -41.058 -50.209  12.403  1.00  0.00     0.133 A 
ENDROOT
BRANCH   1  14
HETATM   14  C   UNL     1     -42.110 -52.185  13.600  1.00  0.00     0.183 C 
BRANCH  14  15
HETATM   15  C   UNL     1     -42.515 -53.349  12.681  1.00  0.00     0.162 C 
BRANCH  15  16
HETATM   16  C   UNL     1     -43.550 -54.281  13.339  1.00  0.00     0.209 C 
BRANCH  16  17
HETATM   17  O   UNL     1     -44.848 -53.946  12.838  1.00  0.00    -0.349 OA
BRANCH  17  18
HETATM   18  C   UNL     1     -45.654 -53.244  13.690  1.00  0.00     0.068 A 
HETATM   19  C   UNL     1     -45.835 -53.818  14.950  1.00  0.00     0.037 A 
HETATM   20  C   UNL     1     -46.563 -53.150  15.936  1.00  0.00     0.009 A 
HETATM   21  C   UNL     1     -47.109 -51.889  15.676  1.00  0.00    -0.062 A 
HETATM   22  C   UNL     1     -47.825 -51.121  16.748  1.00  0.00     0.048 C 
HETATM   23  C   UNL     1     -46.938 -51.324  14.407  1.00  0.00     0.009 A 
HETATM   24  C   UNL     1     -46.215 -51.998  13.418  1.00  0.00     0.037 A 
ENDBRANCH  17  18
ENDBRANCH  16  17
ENDBRANCH  15  16
BRANCH  15  25
HETATM   25  O   UNL     1     -42.984 -52.853  11.420  1.00  0.00    -0.392 OA
HETATM   26  H   UNL     1     -42.851 -53.584  10.776  1.00  0.00     0.210 HD
ENDBRANCH  15  25
ENDBRANCH  14  15
ENDBRANCH   1  14
TORSDOF 6
ENDMDL
MODEL 2
REMARK VINA RESULT:      -6.5      1.383      2.324
REMARK  6 active torsions:
REMARK  status: ('A' for Active; 'I' for Inactive)
REMARK    1  A    between atoms: C_5  and  O_6 
REMARK    2  A    between atoms: O_6  and  C_7 
REMARK    3  A    between atoms: C_7  and  C_8 
REMARK    4  A    between atoms: C_8  and  O_9 
REMARK    5  A    between atoms: C_8  and  C_10 
REMARK    6  A    between atoms: C_10  and  N_11 
ROOT
HETATM    1  N   UNL     1     -40.543 -51.997  13.617  1.00  0.00    -0.284 N 
HETATM    2  N   UNL     1     -39.370 -52.520  14.070  1.00  0.00    -0.308 N 
ATOM      3  HN  UNL     1     -39.239 -53.309  14.703  1.00  0.00     0.186 HD
HETATM    4  C   UNL     1     -38.429 -51.763  13.495  1.00  0.00     0.122 A 
HETATM    5  C   UNL     1     -38.987 -50.755  12.705  1.00  0.00     0.032 A 
HETATM    6  C   UNL     1     -38.454 -49.700  11.904  1.00  0.00     0.122 A 
HETATM    7  N   UNL     1     -39.249 -48.877  11.282  1.00  0.00    -0.306 N 
ATOM      8  HN  UNL     1     -38.865 -48.124  10.711  1.00  0.00     0.186 HD
HETATM    9  N   UNL     1     -40.640 -49.033  11.405  1.00  0.00    -0.261 N 
HETATM   10  C   UNL     1     -41.459 -48.070  10.700  1.00  0.00     0.181 C 
HETATM   11  C   UNL     1     -41.277 -50.040  12.159  1.00  0.00     0.290 A 
HETATM   12  O   UNL     1     -42.494 -50.160  12.250  1.00  0.00    -0.264 OA
HETATM   13  C   UNL     1     -40.346 -50.914  12.812  1.00  0.00     0.133 A 
ENDROOT
BRANCH   1  14
HETATM   14  C   UNL     1     -41.805 -52.600  14.024  1.00  0.00     0.183 C 
BRANCH  14  15
HETATM   15  C   UNL     1     -42.270 -53.768  13.139  1.00  0.00     0.162 C 
BRANCH  15  16
HETATM   16  C   UNL     1     -43.409 -53.363  12.185  1.00  0.00     0.209 C 
BRANCH  16  17
HETATM   17  O   UNL     1     -44.602 -54.043  12.586  1.00  0.00    -0.349 OA
BRANCH  17  18
HETATM   18  C   UNL     1     -45.427 -53.355  13.431  1.00  0.00     0.068 A 
HETATM   19  C   UNL     1     -45.672 -53.971  14.659  1.00  0.00     0.037 A 
HETATM   20  C   UNL     1     -46.426 -53.323  15.640  1.00  0.00     0.009 A 
HETATM   21  C   UNL     1     -46.933 -52.041  15.407  1.00  0.00    -0.062 A 
HETATM   22  C   UNL     1     -47.674 -51.297  16.478  1.00  0.00     0.048 C 
HETATM   23  C   UNL     1     -46.696 -51.433  14.169  1.00  0.00     0.009 A 
HETATM   24  C   UNL     1     -45.948 -52.087  13.184  1.00  0.00     0.037 A 
ENDBRANCH  17  18
ENDBRANCH  16  17
ENDBRANCH  15  16
BRANCH  15  25
HETATM   25  O   UNL     1     -41.160 -54.327  12.422  1.00  0.00    -0.392 OA
HETATM   26  H   UNL     1     -41.534 -54.699  11.593  1.00  0.00     0.210 HD
ENDBRANCH  15  25
ENDBRANCH  14  15
ENDBRANCH   1  14
TORSDOF 6
ENDMDL
MODEL 3
REMARK VINA RESULT:      -6.4      2.365      3.284
REMARK  6 active torsions:
REMARK  status: ('A' for Active; 'I' for Inactive)
REMARK    1  A    between atoms: C_5  and  O_6 
REMARK    2  A    between atoms: O_6  and  C_7 
REMARK    3  A    between atoms: C_7  and  C_8 
REMARK    4  A    between atoms: C_8  and  O_9 
REMARK    5  A    between atoms: C_8  and  C_10 
REMARK    6  A    between atoms: C_10  and  N_11 
ROOT
HETATM    1  N   UNL     1     -40.659 -48.767  11.228  1.00  0.00    -0.284 N 
HETATM    2  N   UNL     1     -41.570 -48.988  10.241  1.00  0.00    -0.308 N 
ATOM      3  HN  UNL     1     -41.780 -49.867   9.767  1.00  0.00     0.186 HD
HETATM    4  C   UNL     1     -42.128 -47.790  10.034  1.00  0.00     0.122 A 
HETATM    5  C   UNL     1     -41.568 -46.811  10.858  1.00  0.00     0.032 A 
HETATM    6  C   UNL     1     -41.781 -45.409  11.033  1.00  0.00     0.122 A 
HETATM    7  N   UNL     1     -41.066 -44.736  11.889  1.00  0.00    -0.306 N 
ATOM      8  HN  UNL     1     -41.220 -43.735  12.012  1.00  0.00     0.186 HD
HETATM    9  N   UNL     1     -40.082 -45.398  12.641  1.00  0.00    -0.261 N 
HETATM   10  C   UNL     1     -39.316 -44.580  13.559  1.00  0.00     0.181 C 
HETATM   11  C   UNL     1     -39.790 -46.775  12.559  1.00  0.00     0.290 A 
HETATM   12  O   UNL     1     -38.928 -47.333  13.228  1.00  0.00    -0.264 OA
HETATM   13  C   UNL     1     -40.615 -47.457  11.604  1.00  0.00     0.133 A 
ENDROOT
BRANCH   1  14
HETATM   14  C   UNL     1     -39.867 -49.878  11.739  1.00  0.00     0.183 C 
BRANCH  14  15
HETATM   15  C   UNL     1     -40.692 -51.042  12.312  1.00  0.00     0.162 C 
BRANCH  15  16
HETATM   16  C   UNL     1     -41.742 -50.568  13.334  1.00  0.00     0.209 C 
BRANCH  16  17
HETATM   17  O   UNL     1     -43.019 -50.532  12.692  1.00  0.00    -0.349 OA
BRANCH  17  18
HETATM   18  C   UNL     1     -44.091 -50.859  13.474  1.00  0.00     0.068 A 
HETATM   19  C   UNL     1     -43.936 -50.603  14.837  1.00  0.00     0.037 A 
HETATM   20  C   UNL     1     -44.994 -50.811  15.724  1.00  0.00     0.009 A 
HETATM   21  C   UNL     1     -46.229 -51.268  15.252  1.00  0.00    -0.062 A 
HETATM   22  C   UNL     1     -47.400 -51.420  16.176  1.00  0.00     0.048 C 
HETATM   23  C   UNL     1     -46.376 -51.537  13.887  1.00  0.00     0.009 A 
HETATM   24  C   UNL     1     -45.312 -51.336  13.001  1.00  0.00     0.037 A 
ENDBRANCH  17  18
ENDBRANCH  16  17
ENDBRANCH  15  16
BRANCH  15  25
HETATM   25  O   UNL     1     -41.296 -51.797  11.252  1.00  0.00    -0.392 OA
HETATM   26  H   UNL     1     -41.725 -52.570  11.683  1.00  0.00     0.210 HD
ENDBRANCH  15  25
ENDBRANCH  14  15
ENDBRANCH   1  14
TORSDOF 6
ENDMDL
MODEL 4
REMARK VINA RESULT:      -6.4      1.990      2.441
REMARK  6 active torsions:
REMARK  status: ('A' for Active; 'I' for Inactive)
REMARK    1  A    between atoms: C_5  and  O_6 
REMARK    2  A    between atoms: O_6  and  C_7 
REMARK    3  A    between atoms: C_7  and  C_8 
REMARK    4  A    between atoms: C_8  and  O_9 
REMARK    5  A    between atoms: C_8  and  C_10 
REMARK    6  A    between atoms: C_10  and  N_11 
ROOT
HETATM    1  N   UNL     1     -40.388 -51.605  12.171  1.00  0.00    -0.284 N 
HETATM    2  N   UNL     1     -40.894 -50.940  11.096  1.00  0.00    -0.308 N 
ATOM      3  HN  UNL     1     -41.559 -51.284  10.403  1.00  0.00     0.186 HD
HETATM    4  C   UNL     1     -40.320 -49.734  11.156  1.00  0.00     0.122 A 
HETATM    5  C   UNL     1     -39.441 -49.633  12.237  1.00  0.00     0.032 A 
HETATM    6  C   UNL     1     -38.589 -48.603  12.741  1.00  0.00     0.122 A 
HETATM    7  N   UNL     1     -37.845 -48.817  13.788  1.00  0.00    -0.306 N 
ATOM      8  HN  UNL     1     -37.238 -48.080  14.147  1.00  0.00     0.186 HD
HETATM    9  N   UNL     1     -37.885 -50.071  14.421  1.00  0.00    -0.261 N 
HETATM   10  C   UNL     1     -37.016 -50.240  15.568  1.00  0.00     0.181 C 
HETATM   11  C   UNL     1     -38.691 -51.156  14.018  1.00  0.00     0.290 A 
HETATM   12  O   UNL     1     -38.712 -52.242  14.587  1.00  0.00    -0.264 OA
HETATM   13  C   UNL     1     -39.488 -50.852  12.865  1.00  0.00     0.133 A 
ENDROOT
BRANCH   1  14
HETATM   14  C   UNL     1     -40.821 -52.969  12.443  1.00  0.00     0.183 C 
BRANCH  14  15
HETATM   15  C   UNL     1     -42.275 -53.093  12.927  1.00  0.00     0.162 C 
BRANCH  15  16
HETATM   16  C   UNL     1     -42.589 -52.136  14.092  1.00  0.00     0.209 C 
BRANCH  16  17
HETATM   17  O   UNL     1     -43.628 -51.243  13.681  1.00  0.00    -0.349 OA
BRANCH  17  18
HETATM   18  C   UNL     1     -44.670 -51.096  14.554  1.00  0.00     0.068 A 
HETATM   19  C   UNL     1     -45.911 -51.525  14.081  1.00  0.00     0.037 A 
HETATM   20  C   UNL     1     -47.032 -51.508  14.912  1.00  0.00     0.009 A 
HETATM   21  C   UNL     1     -46.920 -51.074  16.237  1.00  0.00    -0.062 A 
HETATM   22  C   UNL     1     -48.095 -51.127  17.168  1.00  0.00     0.048 C 
HETATM   23  C   UNL     1     -45.677 -50.632  16.703  1.00  0.00     0.009 A 
HETATM   24  C   UNL     1     -44.557 -50.641  15.866  1.00  0.00     0.037 A 
ENDBRANCH  17  18
ENDBRANCH  16  17
ENDBRANCH  15  16
BRANCH  15  25
HETATM   25  O   UNL     1     -43.186 -52.905  11.835  1.00  0.00    -0.392 OA
HETATM   26  H   UNL     1     -44.031 -53.322  12.113  1.00  0.00     0.210 HD
ENDBRANCH  15  25
ENDBRANCH  14  15
ENDBRANCH   1  14
TORSDOF 6
ENDMDL
MODEL 5
REMARK VINA RESULT:      -6.3      2.597      4.131
REMARK  6 active torsions:
REMARK  status: ('A' for Active; 'I' for Inactive)
REMARK    1  A    between atoms: C_5  and  O_6 
REMARK    2  A    between atoms: O_6  and  C_7 
REMARK    3  A    between atoms: C_7  and  C_8 
REMARK    4  A    between atoms: C_8  and  O_9 
REMARK    5  A    between atoms: C_8  and  C_10 
REMARK    6  A    between atoms: C_10  and  N_11 
ROOT
HETATM    1  N   UNL     1     -41.084 -48.684  12.027  1.00  0.00    -0.284 N 
HETATM    2  N   UNL     1     -41.898 -49.096  11.016  1.00  0.00    -0.308 N 
ATOM      3  HN  UNL     1     -42.291 -50.026  10.867  1.00  0.00     0.186 HD
HETATM    4  C   UNL     1     -42.066 -48.004  10.262  1.00  0.00     0.122 A 
HETATM    5  C   UNL     1     -41.352 -46.914  10.767  1.00  0.00     0.032 A 
HETATM    6  C   UNL     1     -41.178 -45.556  10.358  1.00  0.00     0.122 A 
HETATM    7  N   UNL     1     -40.408 -44.756  11.039  1.00  0.00    -0.306 N 
ATOM      8  HN  UNL     1     -40.286 -43.787  10.746  1.00  0.00     0.186 HD
HETATM    9  N   UNL     1     -39.746 -45.239  12.181  1.00  0.00    -0.261 N 
HETATM   10  C   UNL     1     -38.894 -44.296  12.876  1.00  0.00     0.181 C 
HETATM   11  C   UNL     1     -39.849 -46.553  12.681  1.00  0.00     0.290 A 
HETATM   12  O   UNL     1     -39.264 -46.952  13.682  1.00  0.00    -0.264 OA
HETATM   13  C   UNL     1     -40.715 -47.378  11.890  1.00  0.00     0.133 A 
ENDROOT
BRANCH   1  14
HETATM   14  C   UNL     1     -40.704 -49.623  13.073  1.00  0.00     0.183 C 
BRANCH  14  15
HETATM   15  C   UNL     1     -39.513 -50.528  12.719  1.00  0.00     0.162 C 
BRANCH  15  16
HETATM   16  C   UNL     1     -39.592 -51.900  13.414  1.00  0.00     0.209 C 
BRANCH  16  17
HETATM   17  O   UNL     1     -40.254 -52.817  12.538  1.00  0.00    -0.349 OA
BRANCH  17  18
HETATM   18  C   UNL     1     -41.467 -53.280  12.964  1.00  0.00     0.068 A 
HETATM   19  C   UNL     1     -42.571 -52.804  12.256  1.00  0.00     0.037 A 
HETATM   20  C   UNL     1     -43.855 -53.274  12.540  1.00  0.00     0.009 A 
HETATM   21  C   UNL     1     -44.047 -54.241  13.532  1.00  0.00    -0.062 A 
HETATM   22  C   UNL     1     -45.406 -54.818  13.795  1.00  0.00     0.048 C 
HETATM   23  C   UNL     1     -42.939 -54.706  14.250  1.00  0.00     0.009 A 
HETATM   24  C   UNL     1     -41.655 -54.227  13.969  1.00  0.00     0.037 A 
ENDBRANCH  17  18
ENDBRANCH  16  17
ENDBRANCH  15  16
BRANCH  15  25
HETATM   25  O   UNL     1     -39.396 -50.668  11.296  1.00  0.00    -0.392 OA
HETATM   26  H   UNL     1     -38.514 -50.305  11.061  1.00  0.00     0.210 HD
ENDBRANCH  15  25
ENDBRANCH  14  15
ENDBRANCH   1  14
TORSDOF 6
ENDMDL
MODEL 6
REMARK VINA RESULT:      -6.2      3.264      4.607
REMARK  6 active torsions:
REMARK  status: ('A' for Active; 'I' for Inactive)
REMARK    1  A    between atoms: C_5  and  O_6 
REMARK    2  A    between atoms: O_6  and  C_7 
REMARK    3  A    between atoms: C_7  and  C_8 
REMARK    4  A    between atoms: C_8  and  O_9 
REMARK    5  A    between atoms: C_8  and  C_10 
REMARK    6  A    between atoms: C_10  and  N_11 
ROOT
HETATM    1  N   UNL     1     -43.485 -53.667  12.890  1.00  0.00    -0.284 N 
HETATM    2  N   UNL     1     -43.038 -52.887  11.867  1.00  0.00    -0.308 N 
ATOM      3  HN  UNL     1     -43.573 -52.513  11.082  1.00  0.00     0.186 HD
HETATM    4  C   UNL     1     -41.735 -52.722  12.125  1.00  0.00     0.122 A 
HETATM    5  C   UNL     1     -41.347 -53.404  13.280  1.00  0.00     0.032 A 
HETATM    6  C   UNL     1     -40.112 -53.567  13.979  1.00  0.00     0.122 A 
HETATM    7  N   UNL     1     -40.053 -54.305  15.050  1.00  0.00    -0.306 N 
ATOM      8  HN  UNL     1     -39.170 -54.419  15.548  1.00  0.00     0.186 HD
HETATM    9  N   UNL     1     -41.215 -54.943  15.516  1.00  0.00    -0.261 N 
HETATM   10  C   UNL     1     -41.067 -55.761  16.702  1.00  0.00     0.181 C 
HETATM   11  C   UNL     1     -42.487 -54.848  14.914  1.00  0.00     0.290 A 
HETATM   12  O   UNL     1     -43.489 -55.412  15.340  1.00  0.00    -0.264 OA
HETATM   13  C   UNL     1     -42.483 -54.018  13.745  1.00  0.00     0.133 A 
ENDROOT
BRANCH   1  14
HETATM   14  C   UNL     1     -44.894 -54.033  12.952  1.00  0.00     0.183 C 
BRANCH  14  15
HETATM   15  C   UNL     1     -45.865 -52.841  12.948  1.00  0.00     0.162 C 
BRANCH  15  16
HETATM   16  C   UNL     1     -45.376 -51.683  13.837  1.00  0.00     0.209 C 
BRANCH  16  17
HETATM   17  O   UNL     1     -45.326 -52.139  15.192  1.00  0.00    -0.349 OA
BRANCH  17  18
HETATM   18  C   UNL     1     -45.999 -51.376  16.105  1.00  0.00     0.068 A 
HETATM   19  C   UNL     1     -47.371 -51.619  16.190  1.00  0.00     0.037 A 
HETATM   20  C   UNL     1     -48.149 -50.965  17.148  1.00  0.00     0.009 A 
HETATM   21  C   UNL     1     -47.558 -50.068  18.043  1.00  0.00    -0.062 A 
HETATM   22  C   UNL     1     -48.362 -49.420  19.130  1.00  0.00     0.048 C 
HETATM   23  C   UNL     1     -46.184 -49.817  17.945  1.00  0.00     0.009 A 
HETATM   24  C   UNL     1     -45.408 -50.466  16.979  1.00  0.00     0.037 A 
ENDBRANCH  17  18
ENDBRANCH  16  17
ENDBRANCH  15  16
BRANCH  15  25
HETATM   25  O   UNL     1     -46.114 -52.402  11.605  1.00  0.00    -0.392 OA
HETATM   26  H   UNL     1     -45.408 -51.750  11.399  1.00  0.00     0.210 HD
ENDBRANCH  15  25
ENDBRANCH  14  15
ENDBRANCH   1  14
TORSDOF 6
ENDMDL
MODEL 7
REMARK VINA RESULT:      -6.1      2.030      2.717
REMARK  6 active torsions:
REMARK  status: ('A' for Active; 'I' for Inactive)
REMARK    1  A    between atoms: C_5  and  O_6 
REMARK    2  A    between atoms: O_6  and  C_7 
REMARK    3  A    between atoms: C_7  and  C_8 
REMARK    4  A    between atoms: C_8  and  O_9 
REMARK    5  A    between atoms: C_8  and  C_10 
REMARK    6  A    between atoms: C_10  and  N_11 
ROOT
HETATM    1  N   UNL     1     -40.403 -50.076  12.591  1.00  0.00    -0.284 N 
HETATM    2  N   UNL     1     -39.737 -50.427  13.726  1.00  0.00    -0.308 N 
ATOM      3  HN  UNL     1     -39.666 -51.353  14.149  1.00  0.00     0.186 HD
HETATM    4  C   UNL     1     -39.199 -49.282  14.159  1.00  0.00     0.122 A 
HETATM    5  C   UNL     1     -39.533 -48.209  13.330  1.00  0.00     0.032 A 
HETATM    6  C   UNL     1     -39.240 -46.810  13.337  1.00  0.00     0.122 A 
HETATM    7  N   UNL     1     -39.727 -46.030  12.415  1.00  0.00    -0.306 N 
ATOM      8  HN  UNL     1     -39.517 -45.033  12.422  1.00  0.00     0.186 HD
HETATM    9  N   UNL     1     -40.545 -46.574  11.410  1.00  0.00    -0.261 N 
HETATM   10  C   UNL     1     -41.064 -45.642  10.430  1.00  0.00     0.181 C 
HETATM   11  C   UNL     1     -40.893 -47.936  11.298  1.00  0.00     0.290 A 
HETATM   12  O   UNL     1     -41.607 -48.389  10.410  1.00  0.00    -0.264 OA
HETATM   13  C   UNL     1     -40.320 -48.739  12.339  1.00  0.00     0.133 A 
ENDROOT
BRANCH   1  14
HETATM   14  C   UNL     1     -41.101 -51.097  11.820  1.00  0.00     0.183 C 
BRANCH  14  15
HETATM   15  C   UNL     1     -41.033 -52.510  12.422  1.00  0.00     0.162 C 
BRANCH  15  16
HETATM   16  C   UNL     1     -42.373 -52.948  13.043  1.00  0.00     0.209 C 
BRANCH  16  17
HETATM   17  O   UNL     1     -43.384 -52.018  12.645  1.00  0.00    -0.349 OA
BRANCH  17  18
HETATM   18  C   UNL     1     -44.459 -51.910  13.483  1.00  0.00     0.068 A 
HETATM   19  C   UNL     1     -44.171 -52.030  14.843  1.00  0.00     0.037 A 
HETATM   20  C   UNL     1     -45.171 -51.849  15.800  1.00  0.00     0.009 A 
HETATM   21  C   UNL     1     -46.475 -51.530  15.404  1.00  0.00    -0.062 A 
HETATM   22  C   UNL     1     -47.543 -51.252  16.419  1.00  0.00     0.048 C 
HETATM   23  C   UNL     1     -46.762 -51.425  14.039  1.00  0.00     0.009 A 
HETATM   24  C   UNL     1     -45.761 -51.615  13.082  1.00  0.00     0.037 A 
ENDBRANCH  17  18
ENDBRANCH  16  17
ENDBRANCH  15  16
BRANCH  15  25
HETATM   25  O   UNL     1     -40.578 -53.452  11.441  1.00  0.00    -0.392 OA
HETATM   26  H   UNL     1     -41.388 -53.859  11.061  1.00  0.00     0.210 HD
ENDBRANCH  15  25
ENDBRANCH  14  15
ENDBRANCH   1  14
TORSDOF 6
ENDMDL
MODEL 8
REMARK VINA RESULT:      -6.0      1.824      2.839
REMARK  6 active torsions:
REMARK  status: ('A' for Active; 'I' for Inactive)
REMARK    1  A    between atoms: C_5  and  O_6 
REMARK    2  A    between atoms: O_6  and  C_7 
REMARK    3  A    between atoms: C_7  and  C_8 
REMARK    4  A    between atoms: C_8  and  O_9 
REMARK    5  A    between atoms: C_8  and  C_10 
REMARK    6  A    between atoms: C_10  and  N_11 
ROOT
HETATM    1  N   UNL     1     -39.899 -50.803  12.795  1.00  0.00    -0.284 N 
HETATM    2  N   UNL     1     -38.811 -50.909  11.982  1.00  0.00    -0.308 N 
ATOM      3  HN  UNL     1     -38.250 -51.739  11.791  1.00  0.00     0.186 HD
HETATM    4  C   UNL     1     -38.647 -49.676  11.491  1.00  0.00     0.122 A 
HETATM    5  C   UNL     1     -39.598 -48.787  11.998  1.00  0.00     0.032 A 
HETATM    6  C   UNL     1     -39.863 -47.395  11.817  1.00  0.00     0.122 A 
HETATM    7  N   UNL     1     -40.837 -46.820  12.463  1.00  0.00    -0.306 N 
ATOM      8  HN  UNL     1     -41.024 -45.826  12.333  1.00  0.00     0.186 HD
HETATM    9  N   UNL     1     -41.627 -47.579  13.342  1.00  0.00    -0.261 N 
HETATM   10  C   UNL     1     -42.680 -46.867  14.037  1.00  0.00     0.181 C 
HETATM   11  C   UNL     1     -41.464 -48.957  13.592  1.00  0.00     0.290 A 
HETATM   12  O   UNL     1     -42.169 -49.602  14.361  1.00  0.00    -0.264 OA
HETATM   13  C   UNL     1     -40.381 -49.529  12.846  1.00  0.00     0.133 A 
ENDROOT
BRANCH   1  14
HETATM   14  C   UNL     1     -40.394 -51.983  13.491  1.00  0.00     0.183 C 
BRANCH  14  15
HETATM   15  C   UNL     1     -41.248 -52.925  12.626  1.00  0.00     0.162 C 
BRANCH  15  16
HETATM   16  C   UNL     1     -42.601 -52.300  12.239  1.00  0.00     0.209 C 
BRANCH  16  17
HETATM   17  O   UNL     1     -43.647 -53.171  12.680  1.00  0.00    -0.349 OA
BRANCH  17  18
HETATM   18  C   UNL     1     -44.491 -52.660  13.626  1.00  0.00     0.068 A 
HETATM   19  C   UNL     1     -45.582 -51.945  13.130  1.00  0.00     0.037 A 
HETATM   20  C   UNL     1     -46.561 -51.453  13.995  1.00  0.00     0.009 A 
HETATM   21  C   UNL     1     -46.465 -51.683  15.372  1.00  0.00    -0.062 A 
HETATM   22  C   UNL     1     -47.548 -51.233  16.307  1.00  0.00     0.048 C 
HETATM   23  C   UNL     1     -45.362 -52.388  15.866  1.00  0.00     0.009 A 
HETATM   24  C   UNL     1     -44.378 -52.873  14.999  1.00  0.00     0.037 A 
ENDBRANCH  17  18
ENDBRANCH  16  17
ENDBRANCH  15  16
BRANCH  15  25
HETATM   25  O   UNL     1     -40.514 -53.343  11.466  1.00  0.00    -0.392 OA
HETATM   26  H   UNL     1     -40.239 -54.270  11.641  1.00  0.00     0.210 HD
ENDBRANCH  15  25
ENDBRANCH  14  15
ENDBRANCH   1  14
TORSDOF 6
ENDMDL
MODEL 9
REMARK VINA RESULT:      -5.9      2.473      3.870
REMARK  6 active torsions:
REMARK  status: ('A' for Active; 'I' for Inactive)
REMARK    1  A    between atoms: C_5  and  O_6 
REMARK    2  A    between atoms: O_6  and  C_7 
REMARK    3  A    between atoms: C_7  and  C_8 
REMARK    4  A    between atoms: C_8  and  O_9 
REMARK    5  A    between atoms: C_8  and  C_10 
REMARK    6  A    between atoms: C_10  and  N_11 
ROOT
HETATM    1  N   UNL     1     -43.195 -53.721  13.276  1.00  0.00    -0.284 N 
HETATM    2  N   UNL     1     -43.618 -54.674  14.152  1.00  0.00    -0.308 N 
ATOM      3  HN  UNL     1     -44.536 -55.116  14.203  1.00  0.00     0.186 HD
HETATM    4  C   UNL     1     -42.554 -54.898  14.931  1.00  0.00     0.122 A 
HETATM    5  C   UNL     1     -41.474 -54.086  14.578  1.00  0.00     0.032 A 
HETATM    6  C   UNL     1     -40.144 -53.919  15.072  1.00  0.00     0.122 A 
HETATM    7  N   UNL     1     -39.348 -53.039  14.536  1.00  0.00    -0.306 N 
ATOM      8  HN  UNL     1     -38.399 -52.921  14.890  1.00  0.00     0.186 HD
HETATM    9  N   UNL     1     -39.806 -52.252  13.465  1.00  0.00    -0.261 N 
HETATM   10  C   UNL     1     -38.869 -51.283  12.934  1.00  0.00     0.181 C 
HETATM   11  C   UNL     1     -41.091 -52.336  12.892  1.00  0.00     0.290 A 
HETATM   12  O   UNL     1     -41.469 -51.641  11.955  1.00  0.00    -0.264 OA
HETATM   13  C   UNL     1     -41.914 -53.326  13.523  1.00  0.00     0.133 A 
ENDROOT
BRANCH   1  14
HETATM   14  C   UNL     1     -44.102 -53.242  12.241  1.00  0.00     0.183 C 
BRANCH  14  15
HETATM   15  C   UNL     1     -45.475 -52.781  12.756  1.00  0.00     0.162 C 
BRANCH  15  16
HETATM   16  C   UNL     1     -45.389 -51.471  13.561  1.00  0.00     0.209 C 
BRANCH  16  17
HETATM   17  O   UNL     1     -45.005 -51.785  14.903  1.00  0.00    -0.349 OA
BRANCH  17  18
HETATM   18  C   UNL     1     -45.857 -51.358  15.883  1.00  0.00     0.068 A 
HETATM   19  C   UNL     1     -45.310 -50.460  16.801  1.00  0.00     0.037 A 
HETATM   20  C   UNL     1     -46.105 -49.885  17.793  1.00  0.00     0.009 A 
HETATM   21  C   UNL     1     -47.468 -50.192  17.869  1.00  0.00    -0.062 A 
HETATM   22  C   UNL     1     -48.355 -49.523  18.876  1.00  0.00     0.048 C 
HETATM   23  C   UNL     1     -48.010 -51.104  16.956  1.00  0.00     0.009 A 
HETATM   24  C   UNL     1     -47.209 -51.685  15.968  1.00  0.00     0.037 A 
ENDBRANCH  17  18
ENDBRANCH  16  17
ENDBRANCH  15  16
BRANCH  15  25
HETATM   25  O   UNL     1     -46.406 -52.670  11.671  1.00  0.00    -0.392 OA
HETATM   26  H   UNL     1     -45.867 -52.692  10.849  1.00  0.00     0.210 HD
ENDBRANCH  15  25
ENDBRANCH  14  15
ENDBRANCH   1  14
TORSDOF 6
ENDMDL
