MODEL 1
REMARK VINA RESULT:      -6.7      0.000      0.000
REMARK  6 active torsions:
REMARK  status: ('A' for Active; 'I' for Inactive)
REMARK    1  A    between atoms: N_2  and  C_4 
REMARK    2  A    between atoms: C_4  and  C_5 
REMARK    3  A    between atoms: C_4  and  C_18 
REMARK    4  A    between atoms: C_5  and  N_6 
REMARK       I    between atoms: N_6  and  C_7 
REMARK    5  A    between atoms: C_7  and  C_9 
REMARK    6  A    between atoms: C_9  and  N_10 
ROOT
HETATM    1  N   UNL     1     -42.444 -50.925  12.536  1.00  0.00    -0.358 N 
HETATM    2  C   UNL     1     -41.411 -50.122  12.099  1.00  0.00     0.236 C 
HETATM    3  O   UNL     1     -40.473 -50.514  11.410  1.00  0.00    -0.272 OA
HETATM    4  H   UNL     1     -43.314 -50.426  12.701  1.00  0.00     0.162 HD
ENDROOT
BRANCH   1   5
HETATM    5  C   UNL     1     -42.545 -52.349  12.266  1.00  0.00     0.159 C 
BRANCH   5   6
HETATM    6  C   UNL     1     -43.259 -53.274  13.353  1.00  0.00     0.243 C 
BRANCH   6   7
HETATM    7  N   UNL     1     -42.254 -54.358  13.719  1.00  0.00     0.086 N 
HETATM    8  C   UNL     1     -40.962 -54.208  13.027  1.00  0.00     0.310 C 
HETATM    9  C   UNL     1     -41.958 -54.520  15.142  1.00  0.00     0.310 C 
ENDBRANCH   6   7
BRANCH   6  10
HETATM   10  C   UNL     1     -44.683 -53.816  12.830  1.00  0.00     0.020 C 
HETATM   11  C   UNL     1     -45.768 -52.736  12.547  1.00  0.00     0.007 C 
HETATM   12  C   UNL     1     -46.277 -52.044  13.815  1.00  0.00     0.000 C 
HETATM   13  C   UNL     1     -46.872 -53.054  14.792  1.00  0.00     0.000 C 
HETATM   14  C   UNL     1     -45.904 -54.200  15.056  1.00  0.00     0.000 C 
HETATM   15  C   UNL     1     -45.447 -54.822  13.739  1.00  0.00     0.007 C 
ENDBRANCH   6  10
ENDBRANCH   5   6
ENDBRANCH   1   5
BRANCH   2  16
HETATM   16  C   UNL     1     -41.544 -48.661  12.536  1.00  0.00     0.235 C 
BRANCH  16  17
HETATM   17  N   UNL     1     -42.055 -47.783  11.482  1.00  0.00    -0.301 N 
HETATM   18  C   UNL     1     -43.395 -47.823  11.154  1.00  0.00     0.102 A 
HETATM   19  C   UNL     1     -43.894 -47.115  10.140  1.00  0.00     0.092 A 
HETATM   20  C   UNL     1     -42.985 -46.279   9.333  1.00  0.00     0.250 A 
HETATM   21  O   UNL     1     -43.390 -45.652   8.356  1.00  0.00    -0.268 OA
HETATM   22  N   UNL     1     -41.684 -46.256   9.754  1.00  0.00    -0.275 N 
HETATM   23  C   UNL     1     -41.167 -46.952  10.817  1.00  0.00     0.329 A 
HETATM   24  H   UNL     1     -41.047 -45.679   9.229  1.00  0.00     0.173 HD
HETATM   25  O   UNL     1     -39.987 -46.827  11.142  1.00  0.00    -0.246 OA
ENDBRANCH  16  17
ENDBRANCH   2  16
TORSDOF 6
ENDMDL
MODEL 2
REMARK VINA RESULT:      -6.4      2.748      3.908
REMARK  6 active torsions:
REMARK  status: ('A' for Active; 'I' for Inactive)
REMARK    1  A    between atoms: N_2  and  C_4 
REMARK    2  A    between atoms: C_4  and  C_5 
REMARK    3  A    between atoms: C_4  and  C_18 
REMARK    4  A    between atoms: C_5  and  N_6 
REMARK       I    between atoms: N_6  and  C_7 
REMARK    5  A    between atoms: C_7  and  C_9 
REMARK    6  A    between atoms: C_9  and  N_10 
ROOT
HETATM    1  N   UNL     1     -43.337 -48.566  11.686  1.00  0.00    -0.358 N 
HETATM    2  C   UNL     1     -42.627 -47.966  10.667  1.00  0.00     0.236 C 
HETATM    3  O   UNL     1     -41.454 -48.212  10.402  1.00  0.00    -0.272 OA
HETATM    4  H   UNL     1     -44.340 -48.603  11.526  1.00  0.00     0.162 HD
ENDROOT
BRANCH   1   5
HETATM    5  C   UNL     1     -42.782 -49.547  12.603  1.00  0.00     0.159 C 
BRANCH   5   6
HETATM    6  C   UNL     1     -43.491 -49.741  14.019  1.00  0.00     0.243 C 
BRANCH   6   7
HETATM    7  N   UNL     1     -42.565 -49.112  15.051  1.00  0.00     0.086 N 
HETATM    8  C   UNL     1     -41.197 -49.658  15.012  1.00  0.00     0.310 C 
HETATM    9  C   UNL     1     -42.443 -47.655  15.017  1.00  0.00     0.310 C 
ENDBRANCH   6   7
BRANCH   6  10
HETATM   10  C   UNL     1     -43.863 -51.284  14.291  1.00  0.00     0.020 C 
HETATM   11  C   UNL     1     -44.800 -51.961  13.248  1.00  0.00     0.007 C 
HETATM   12  C   UNL     1     -46.228 -51.410  13.271  1.00  0.00     0.000 C 
HETATM   13  C   UNL     1     -46.863 -51.586  14.647  1.00  0.00     0.000 C 
HETATM   14  C   UNL     1     -45.966 -51.029  15.744  1.00  0.00     0.000 C 
HETATM   15  C   UNL     1     -44.566 -51.628  15.637  1.00  0.00     0.007 C 
ENDBRANCH   6  10
ENDBRANCH   5   6
ENDBRANCH   1   5
BRANCH   2  16
HETATM   16  C   UNL     1     -43.449 -46.958   9.859  1.00  0.00     0.235 C 
BRANCH  16  17
HETATM   17  N   UNL     1     -44.438 -47.585   8.980  1.00  0.00    -0.301 N 
HETATM   18  C   UNL     1     -45.724 -47.788   9.438  1.00  0.00     0.102 A 
HETATM   19  C   UNL     1     -46.636 -48.439   8.715  1.00  0.00     0.092 A 
HETATM   20  C   UNL     1     -46.254 -48.975   7.395  1.00  0.00     0.250 A 
HETATM   21  O   UNL     1     -47.045 -49.629   6.717  1.00  0.00    -0.268 OA
HETATM   22  N   UNL     1     -44.978 -48.689   6.995  1.00  0.00    -0.275 N 
HETATM   23  C   UNL     1     -44.044 -47.990   7.714  1.00  0.00     0.329 A 
HETATM   24  H   UNL     1     -44.699 -49.031   6.089  1.00  0.00     0.173 HD
HETATM   25  O   UNL     1     -42.933 -47.746   7.243  1.00  0.00    -0.246 OA
ENDBRANCH  16  17
ENDBRANCH   2  16
TORSDOF 6
ENDMDL
MODEL 3
REMARK VINA RESULT:      -6.3      3.427      7.439
REMARK  6 active torsions:
REMARK  status: ('A' for Active; 'I' for Inactive)
REMARK    1  A    between atoms: N_2  and  C_4 
REMARK    2  A    between atoms: C_4  and  C_5 
REMARK    3  A    between atoms: C_4  and  C_18 
REMARK    4  A    between atoms: C_5  and  N_6 
REMARK       I    between atoms: N_6  and  C_7 
REMARK    5  A    between atoms: C_7  and  C_9 
REMARK    6  A    between atoms: C_9  and  N_10 
ROOT
HETATM    1  N   UNL     1     -42.172 -52.332  11.716  1.00  0.00    -0.358 N 
HETATM    2  C   UNL     1     -42.768 -52.989  12.772  1.00  0.00     0.236 C 
HETATM    3  O   UNL     1     -42.278 -53.084  13.894  1.00  0.00    -0.272 OA
HETATM    4  H   UNL     1     -42.829 -51.970  11.031  1.00  0.00     0.162 HD
ENDROOT
BRANCH   1   5
HETATM    5  C   UNL     1     -40.870 -51.690  11.781  1.00  0.00     0.159 C 
BRANCH   5   6
HETATM    6  C   UNL     1     -40.793 -50.197  12.339  1.00  0.00     0.243 C 
BRANCH   6   7
HETATM    7  N   UNL     1     -42.013 -49.470  11.790  1.00  0.00     0.086 N 
HETATM    8  C   UNL     1     -42.838 -48.848  12.841  1.00  0.00     0.310 C 
HETATM    9  C   UNL     1     -41.762 -48.442  10.782  1.00  0.00     0.310 C 
ENDBRANCH   6   7
BRANCH   6  10
HETATM   10  C   UNL     1     -39.379 -49.507  11.996  1.00  0.00     0.020 C 
HETATM   11  C   UNL     1     -38.138 -50.447  11.990  1.00  0.00     0.007 C 
HETATM   12  C   UNL     1     -37.767 -50.968  13.381  1.00  0.00     0.000 C 
HETATM   13  C   UNL     1     -37.472 -49.817  14.339  1.00  0.00     0.000 C 
HETATM   14  C   UNL     1     -38.603 -48.797  14.339  1.00  0.00     0.000 C 
HETATM   15  C   UNL     1     -38.906 -48.342  12.913  1.00  0.00     0.007 C 
ENDBRANCH   6  10
ENDBRANCH   5   6
ENDBRANCH   1   5
BRANCH   2  16
HETATM   16  C   UNL     1     -44.134 -53.589  12.428  1.00  0.00     0.235 C 
BRANCH  16  17
HETATM   17  N   UNL     1     -45.196 -53.184  13.352  1.00  0.00    -0.301 N 
HETATM   18  C   UNL     1     -45.601 -51.865  13.387  1.00  0.00     0.102 A 
HETATM   19  C   UNL     1     -46.495 -51.425  14.273  1.00  0.00     0.092 A 
HETATM   20  C   UNL     1     -47.053 -52.370  15.258  1.00  0.00     0.250 A 
HETATM   21  O   UNL     1     -47.838 -51.999  16.129  1.00  0.00    -0.268 OA
HETATM   22  N   UNL     1     -46.637 -53.666  15.125  1.00  0.00    -0.275 N 
HETATM   23  C   UNL     1     -45.746 -54.137  14.195  1.00  0.00     0.329 A 
HETATM   24  H   UNL     1     -47.017 -54.334  15.776  1.00  0.00     0.173 HD
HETATM   25  O   UNL     1     -45.471 -55.335  14.130  1.00  0.00    -0.246 OA
ENDBRANCH  16  17
ENDBRANCH   2  16
TORSDOF 6
ENDMDL
MODEL 4
REMARK VINA RESULT:      -5.9      1.833      2.451
REMARK  6 active torsions:
REMARK  status: ('A' for Active; 'I' for Inactive)
REMARK    1  A    between atoms: N_2  and  C_4 
REMARK    2  A    between atoms: C_4  and  C_5 
REMARK    3  A    between atoms: C_4  and  C_18 
REMARK    4  A    between atoms: C_5  and  N_6 
REMARK       I    between atoms: N_6  and  C_7 
REMARK    5  A    between atoms: C_7  and  C_9 
REMARK    6  A    between atoms: C_9  and  N_10 
ROOT
HETATM    1  N   UNL     1     -42.167 -51.197  11.913  1.00  0.00    -0.358 N 
HETATM    2  C   UNL     1     -40.942 -50.567  11.977  1.00  0.00     0.236 C 
HETATM    3  O   UNL     1     -39.950 -51.036  12.527  1.00  0.00    -0.272 OA
HETATM    4  H   UNL     1     -42.729 -50.930  11.110  1.00  0.00     0.162 HD
ENDROOT
BRANCH   1   5
HETATM    5  C   UNL     1     -42.457 -52.487  12.517  1.00  0.00     0.159 C 
BRANCH   5   6
HETATM    6  C   UNL     1     -43.151 -52.508  13.953  1.00  0.00     0.243 C 
BRANCH   6   7
HETATM    7  N   UNL     1     -42.114 -53.059  14.922  1.00  0.00     0.086 N 
HETATM    8  C   UNL     1     -41.128 -53.942  14.274  1.00  0.00     0.310 C 
HETATM    9  C   UNL     1     -41.361 -52.078  15.700  1.00  0.00     0.310 C 
ENDBRANCH   6   7
BRANCH   6  10
HETATM   10  C   UNL     1     -44.549 -53.309  13.926  1.00  0.00     0.020 C 
HETATM   11  C   UNL     1     -45.558 -52.894  12.815  1.00  0.00     0.007 C 
HETATM   12  C   UNL     1     -46.141 -51.494  13.020  1.00  0.00     0.000 C 
HETATM   13  C   UNL     1     -46.859 -51.388  14.363  1.00  0.00     0.000 C 
HETATM   14  C   UNL     1     -45.969 -51.863  15.503  1.00  0.00     0.000 C 
HETATM   15  C   UNL     1     -45.431 -53.260  15.207  1.00  0.00     0.007 C 
ENDBRANCH   6  10
ENDBRANCH   5   6
ENDBRANCH   1   5
BRANCH   2  16
HETATM   16  C   UNL     1     -40.914 -49.210  11.268  1.00  0.00     0.235 C 
BRANCH  16  17
HETATM   17  N   UNL     1     -41.603 -48.152  12.010  1.00  0.00    -0.301 N 
HETATM   18  C   UNL     1     -41.156 -47.800  13.267  1.00  0.00     0.102 A 
HETATM   19  C   UNL     1     -41.804 -46.911  14.022  1.00  0.00     0.092 A 
HETATM   20  C   UNL     1     -43.044 -46.303  13.508  1.00  0.00     0.250 A 
HETATM   21  O   UNL     1     -43.704 -45.520  14.191  1.00  0.00    -0.268 OA
HETATM   22  N   UNL     1     -43.391 -46.668  12.237  1.00  0.00    -0.275 N 
HETATM   23  C   UNL     1     -42.715 -47.552  11.438  1.00  0.00     0.329 A 
HETATM   24  H   UNL     1     -44.227 -46.252  11.857  1.00  0.00     0.173 HD
HETATM   25  O   UNL     1     -43.087 -47.780  10.287  1.00  0.00    -0.246 OA
ENDBRANCH  16  17
ENDBRANCH   2  16
TORSDOF 6
ENDMDL
MODEL 5
REMARK VINA RESULT:      -5.8      3.347      6.745
REMARK  6 active torsions:
REMARK  status: ('A' for Active; 'I' for Inactive)
REMARK    1  A    between atoms: N_2  and  C_4 
REMARK    2  A    between atoms: C_4  and  C_5 
REMARK    3  A    between atoms: C_4  and  C_18 
REMARK    4  A    between atoms: C_5  and  N_6 
REMARK       I    between atoms: N_6  and  C_7 
REMARK    5  A    between atoms: C_7  and  C_9 
REMARK    6  A    between atoms: C_9  and  N_10 
ROOT
HETATM    1  N   UNL     1     -42.378 -52.351  11.774  1.00  0.00    -0.358 N 
HETATM    2  C   UNL     1     -42.846 -53.224  12.734  1.00  0.00     0.236 C 
HETATM    3  O   UNL     1     -42.232 -53.528  13.753  1.00  0.00    -0.272 OA
HETATM    4  H   UNL     1     -43.111 -51.877  11.253  1.00  0.00     0.162 HD
ENDROOT
BRANCH   1   5
HETATM    5  C   UNL     1     -41.082 -51.697  11.825  1.00  0.00     0.159 C 
BRANCH   5   6
HETATM    6  C   UNL     1     -41.024 -50.171  12.288  1.00  0.00     0.243 C 
BRANCH   6   7
HETATM    7  N   UNL     1     -39.714 -50.002  13.046  1.00  0.00     0.086 N 
HETATM    8  C   UNL     1     -39.129 -51.282  13.482  1.00  0.00     0.310 C 
HETATM    9  C   UNL     1     -38.655 -49.261  12.363  1.00  0.00     0.310 C 
ENDBRANCH   6   7
BRANCH   6  10
HETATM   10  C   UNL     1     -42.344 -49.749  13.110  1.00  0.00     0.020 C 
HETATM   11  C   UNL     1     -43.465 -49.041  12.295  1.00  0.00     0.007 C 
HETATM   12  C   UNL     1     -43.074 -47.638  11.821  1.00  0.00     0.000 C 
HETATM   13  C   UNL     1     -42.720 -46.738  13.002  1.00  0.00     0.000 C 
HETATM   14  C   UNL     1     -41.688 -47.398  13.908  1.00  0.00     0.000 C 
HETATM   15  C   UNL     1     -42.160 -48.789  14.321  1.00  0.00     0.007 C 
ENDBRANCH   6  10
ENDBRANCH   5   6
ENDBRANCH   1   5
BRANCH   2  16
HETATM   16  C   UNL     1     -44.240 -53.781  12.427  1.00  0.00     0.235 C 
BRANCH  16  17
HETATM   17  N   UNL     1     -45.274 -53.298  13.344  1.00  0.00    -0.301 N 
HETATM   18  C   UNL     1     -45.633 -51.966  13.323  1.00  0.00     0.102 A 
HETATM   19  C   UNL     1     -46.499 -51.455  14.199  1.00  0.00     0.092 A 
HETATM   20  C   UNL     1     -47.075 -52.334  15.233  1.00  0.00     0.250 A 
HETATM   21  O   UNL     1     -47.835 -51.896  16.095  1.00  0.00    -0.268 OA
HETATM   22  N   UNL     1     -46.706 -53.648  15.154  1.00  0.00    -0.275 N 
HETATM   23  C   UNL     1     -45.845 -54.192  14.237  1.00  0.00     0.329 A 
HETATM   24  H   UNL     1     -47.100 -54.272  15.841  1.00  0.00     0.173 HD
HETATM   25  O   UNL     1     -45.612 -55.400  14.223  1.00  0.00    -0.246 OA
ENDBRANCH  16  17
ENDBRANCH   2  16
TORSDOF 6
ENDMDL
MODEL 6
REMARK VINA RESULT:      -5.8      2.757      3.680
REMARK  6 active torsions:
REMARK  status: ('A' for Active; 'I' for Inactive)
REMARK    1  A    between atoms: N_2  and  C_4 
REMARK    2  A    between atoms: C_4  and  C_5 
REMARK    3  A    between atoms: C_4  and  C_18 
REMARK    4  A    between atoms: C_5  and  N_6 
REMARK       I    between atoms: N_6  and  C_7 
REMARK    5  A    between atoms: C_7  and  C_9 
REMARK    6  A    between atoms: C_9  and  N_10 
ROOT
HETATM    1  N   UNL     1     -41.943 -51.494  11.860  1.00  0.00    -0.358 N 
HETATM    2  C   UNL     1     -40.585 -51.348  12.054  1.00  0.00     0.236 C 
HETATM    3  O   UNL     1     -39.857 -52.214  12.532  1.00  0.00    -0.272 OA
HETATM    4  H   UNL     1     -42.316 -50.924  11.105  1.00  0.00     0.162 HD
ENDROOT
BRANCH   1   5
HETATM    5  C   UNL     1     -42.699 -52.680  12.222  1.00  0.00     0.159 C 
BRANCH   5   6
HETATM    6  C   UNL     1     -43.670 -52.599  13.486  1.00  0.00     0.243 C 
BRANCH   6   7
HETATM    7  N   UNL     1     -42.945 -53.297  14.629  1.00  0.00     0.086 N 
HETATM    8  C   UNL     1     -42.078 -54.399  14.177  1.00  0.00     0.310 C 
HETATM    9  C   UNL     1     -42.135 -52.450  15.503  1.00  0.00     0.310 C 
ENDBRANCH   6   7
BRANCH   6  10
HETATM   10  C   UNL     1     -45.133 -53.184  13.151  1.00  0.00     0.020 C 
HETATM   11  C   UNL     1     -46.256 -52.133  12.914  1.00  0.00     0.007 C 
HETATM   12  C   UNL     1     -46.641 -51.362  14.179  1.00  0.00     0.000 C 
HETATM   13  C   UNL     1     -47.116 -52.310  15.277  1.00  0.00     0.000 C 
HETATM   14  C   UNL     1     -46.111 -53.429  15.513  1.00  0.00     0.000 C 
HETATM   15  C   UNL     1     -45.785 -54.133  14.198  1.00  0.00     0.007 C 
ENDBRANCH   6  10
ENDBRANCH   5   6
ENDBRANCH   1   5
BRANCH   2  16
HETATM   16  C   UNL     1     -40.042 -49.992  11.595  1.00  0.00     0.235 C 
BRANCH  16  17
HETATM   17  N   UNL     1     -39.552 -49.159  12.695  1.00  0.00    -0.301 N 
HETATM   18  C   UNL     1     -38.195 -49.068  12.927  1.00  0.00     0.102 A 
HETATM   19  C   UNL     1     -37.701 -48.401  13.971  1.00  0.00     0.092 A 
HETATM   20  C   UNL     1     -38.632 -47.759  14.917  1.00  0.00     0.250 A 
HETATM   21  O   UNL     1     -38.225 -47.181  15.924  1.00  0.00    -0.268 OA
HETATM   22  N   UNL     1     -39.957 -47.855  14.590  1.00  0.00    -0.275 N 
HETATM   23  C   UNL     1     -40.474 -48.507  13.500  1.00  0.00     0.329 A 
HETATM   24  H   UNL     1     -40.612 -47.410  15.213  1.00  0.00     0.173 HD
HETATM   25  O   UNL     1     -41.682 -48.496  13.270  1.00  0.00    -0.246 OA
ENDBRANCH  16  17
ENDBRANCH   2  16
TORSDOF 6
ENDMDL
MODEL 7
REMARK VINA RESULT:      -5.7      3.914      4.511
REMARK  6 active torsions:
REMARK  status: ('A' for Active; 'I' for Inactive)
REMARK    1  A    between atoms: N_2  and  C_4 
REMARK    2  A    between atoms: C_4  and  C_5 
REMARK    3  A    between atoms: C_4  and  C_18 
REMARK    4  A    between atoms: C_5  and  N_6 
REMARK       I    between atoms: N_6  and  C_7 
REMARK    5  A    between atoms: C_7  and  C_9 
REMARK    6  A    between atoms: C_9  and  N_10 
ROOT
HETATM    1  N   UNL     1     -42.023 -52.303  12.509  1.00  0.00    -0.358 N 
HETATM    2  C   UNL     1     -40.655 -52.474  12.566  1.00  0.00     0.236 C 
HETATM    3  O   UNL     1     -40.101 -53.514  12.912  1.00  0.00    -0.272 OA
HETATM    4  H   UNL     1     -42.324 -51.606  11.833  1.00  0.00     0.162 HD
ENDROOT
BRANCH   1   5
HETATM    5  C   UNL     1     -42.992 -53.320  12.879  1.00  0.00     0.159 C 
BRANCH   5   6
HETATM    6  C   UNL     1     -43.875 -53.079  14.186  1.00  0.00     0.243 C 
BRANCH   6   7
HETATM    7  N   UNL     1     -43.149 -53.776  15.329  1.00  0.00     0.086 N 
HETATM    8  C   UNL     1     -42.532 -55.053  14.929  1.00  0.00     0.310 C 
HETATM    9  C   UNL     1     -42.117 -53.002  16.016  1.00  0.00     0.310 C 
ENDBRANCH   6   7
BRANCH   6  10
HETATM   10  C   UNL     1     -45.401 -53.545  13.966  1.00  0.00     0.020 C 
HETATM   11  C   UNL     1     -46.361 -52.487  13.346  1.00  0.00     0.007 C 
HETATM   12  C   UNL     1     -46.650 -51.310  14.282  1.00  0.00     0.000 C 
HETATM   13  C   UNL     1     -47.271 -51.789  15.591  1.00  0.00     0.000 C 
HETATM   14  C   UNL     1     -46.438 -52.895  16.225  1.00  0.00     0.000 C 
HETATM   15  C   UNL     1     -46.196 -54.017  15.218  1.00  0.00     0.007 C 
ENDBRANCH   6  10
ENDBRANCH   5   6
ENDBRANCH   1   5
BRANCH   2  16
HETATM   16  C   UNL     1     -39.864 -51.237  12.132  1.00  0.00     0.235 C 
BRANCH  16  17
HETATM   17  N   UNL     1     -39.060 -50.654  13.208  1.00  0.00    -0.301 N 
HETATM   18  C   UNL     1     -39.658 -49.815  14.126  1.00  0.00     0.102 A 
HETATM   19  C   UNL     1     -38.954 -49.184  15.068  1.00  0.00     0.092 A 
HETATM   20  C   UNL     1     -37.493 -49.372  15.117  1.00  0.00     0.250 A 
HETATM   21  O   UNL     1     -36.797 -48.769  15.932  1.00  0.00    -0.268 OA
HETATM   22  N   UNL     1     -36.986 -50.256  14.205  1.00  0.00    -0.275 N 
HETATM   23  C   UNL     1     -37.704 -50.938  13.256  1.00  0.00     0.329 A 
HETATM   24  H   UNL     1     -35.991 -50.414  14.230  1.00  0.00     0.173 HD
HETATM   25  O   UNL     1     -37.157 -51.748  12.509  1.00  0.00    -0.246 OA
ENDBRANCH  16  17
ENDBRANCH   2  16
TORSDOF 6
ENDMDL
MODEL 8
REMARK VINA RESULT:      -5.5      2.132      3.051
REMARK  6 active torsions:
REMARK  status: ('A' for Active; 'I' for Inactive)
REMARK    1  A    between atoms: N_2  and  C_4 
REMARK    2  A    between atoms: C_4  and  C_5 
REMARK    3  A    between atoms: C_4  and  C_18 
REMARK    4  A    between atoms: C_5  and  N_6 
REMARK       I    between atoms: N_6  and  C_7 
REMARK    5  A    between atoms: C_7  and  C_9 
REMARK    6  A    between atoms: C_9  and  N_10 
ROOT
HETATM    1  N   UNL     1     -42.403 -49.288  12.596  1.00  0.00    -0.358 N 
HETATM    2  C   UNL     1     -42.525 -48.338  11.604  1.00  0.00     0.236 C 
HETATM    3  O   UNL     1     -43.586 -47.820  11.267  1.00  0.00    -0.272 OA
HETATM    4  H   UNL     1     -41.492 -49.302  13.046  1.00  0.00     0.162 HD
ENDROOT
BRANCH   1   5
HETATM    5  C   UNL     1     -43.518 -49.825  13.357  1.00  0.00     0.159 C 
BRANCH   5   6
HETATM    6  C   UNL     1     -43.492 -51.373  13.742  1.00  0.00     0.243 C 
BRANCH   6   7
HETATM    7  N   UNL     1     -42.084 -51.867  13.436  1.00  0.00     0.086 N 
HETATM    8  C   UNL     1     -41.518 -52.704  14.509  1.00  0.00     0.310 C 
HETATM    9  C   UNL     1     -41.907 -52.602  12.185  1.00  0.00     0.310 C 
ENDBRANCH   6   7
BRANCH   6  10
HETATM   10  C   UNL     1     -44.672 -52.189  13.009  1.00  0.00     0.020 C 
HETATM   11  C   UNL     1     -46.064 -51.492  12.963  1.00  0.00     0.007 C 
HETATM   12  C   UNL     1     -46.730 -51.379  14.337  1.00  0.00     0.000 C 
HETATM   13  C   UNL     1     -46.920 -52.754  14.970  1.00  0.00     0.000 C 
HETATM   14  C   UNL     1     -45.619 -53.544  14.975  1.00  0.00     0.000 C 
HETATM   15  C   UNL     1     -45.027 -53.597  13.568  1.00  0.00     0.007 C 
ENDBRANCH   6  10
ENDBRANCH   5   6
ENDBRANCH   1   5
BRANCH   2  16
HETATM   16  C   UNL     1     -41.192 -47.958  10.952  1.00  0.00     0.235 C 
BRANCH  16  17
HETATM   17  N   UNL     1     -40.575 -46.769  11.543  1.00  0.00    -0.301 N 
HETATM   18  C   UNL     1     -39.790 -46.898  12.670  1.00  0.00     0.102 A 
HETATM   19  C   UNL     1     -39.283 -45.838  13.302  1.00  0.00     0.092 A 
HETATM   20  C   UNL     1     -39.585 -44.488  12.794  1.00  0.00     0.250 A 
HETATM   21  O   UNL     1     -39.186 -43.480  13.374  1.00  0.00    -0.268 OA
HETATM   22  N   UNL     1     -40.328 -44.449  11.646  1.00  0.00    -0.275 N 
HETATM   23  C   UNL     1     -40.825 -45.532  10.968  1.00  0.00     0.329 A 
HETATM   24  H   UNL     1     -40.535 -43.537  11.269  1.00  0.00     0.173 HD
HETATM   25  O   UNL     1     -41.446 -45.391   9.915  1.00  0.00    -0.246 OA
ENDBRANCH  16  17
ENDBRANCH   2  16
TORSDOF 6
ENDMDL
MODEL 9
REMARK VINA RESULT:      -5.4     14.069     15.098
REMARK  6 active torsions:
REMARK  status: ('A' for Active; 'I' for Inactive)
REMARK    1  A    between atoms: N_2  and  C_4 
REMARK    2  A    between atoms: C_4  and  C_5 
REMARK    3  A    between atoms: C_4  and  C_18 
REMARK    4  A    between atoms: C_5  and  N_6 
REMARK       I    between atoms: N_6  and  C_7 
REMARK    5  A    between atoms: C_7  and  C_9 
REMARK    6  A    between atoms: C_9  and  N_10 
ROOT
HETATM    1  N   UNL     1     -47.198 -49.315  -1.601  1.00  0.00    -0.358 N 
HETATM    2  C   UNL     1     -47.131 -47.939  -1.661  1.00  0.00     0.236 C 
HETATM    3  O   UNL     1     -47.736 -47.183  -0.905  1.00  0.00    -0.272 OA
HETATM    4  H   UNL     1     -46.370 -49.785  -1.959  1.00  0.00     0.162 HD
ENDROOT
BRANCH   1   5
HETATM    5  C   UNL     1     -48.016 -50.056  -0.656  1.00  0.00     0.159 C 
BRANCH   5   6
HETATM    6  C   UNL     1     -49.314 -50.802  -1.206  1.00  0.00     0.243 C 
BRANCH   6   7
HETATM    7  N   UNL     1     -50.484 -49.856  -0.972  1.00  0.00     0.086 N 
HETATM    8  C   UNL     1     -50.390 -49.124   0.303  1.00  0.00     0.310 C 
HETATM    9  C   UNL     1     -50.740 -48.863  -2.015  1.00  0.00     0.310 C 
ENDBRANCH   6   7
BRANCH   6  10
HETATM   10  C   UNL     1     -49.482 -52.264  -0.551  1.00  0.00     0.020 C 
HETATM   11  C   UNL     1     -48.504 -53.363  -1.061  1.00  0.00     0.007 C 
HETATM   12  C   UNL     1     -48.757 -53.771  -2.514  1.00  0.00     0.000 C 
HETATM   13  C   UNL     1     -50.179 -54.294  -2.698  1.00  0.00     0.000 C 
HETATM   14  C   UNL     1     -51.203 -53.315  -2.141  1.00  0.00     0.000 C 
HETATM   15  C   UNL     1     -50.865 -52.962  -0.695  1.00  0.00     0.007 C 
ENDBRANCH   6  10
ENDBRANCH   5   6
ENDBRANCH   1   5
BRANCH   2  16
HETATM   16  C   UNL     1     -46.202 -47.417  -2.761  1.00  0.00     0.235 C 
BRANCH  16  17
HETATM   17  N   UNL     1     -44.795 -47.375  -2.361  1.00  0.00    -0.301 N 
HETATM   18  C   UNL     1     -44.373 -46.428  -1.451  1.00  0.00     0.102 A 
HETATM   19  C   UNL     1     -43.088 -46.285  -1.125  1.00  0.00     0.092 A 
HETATM   20  C   UNL     1     -42.085 -47.151  -1.770  1.00  0.00     0.250 A 
HETATM   21  O   UNL     1     -40.883 -47.020  -1.542  1.00  0.00    -0.268 OA
HETATM   22  N   UNL     1     -42.588 -48.095  -2.622  1.00  0.00    -0.275 N 
HETATM   23  C   UNL     1     -43.911 -48.275  -2.937  1.00  0.00     0.329 A 
HETATM   24  H   UNL     1     -41.923 -48.711  -3.063  1.00  0.00     0.173 HD
HETATM   25  O   UNL     1     -44.266 -49.186  -3.684  1.00  0.00    -0.246 OA
ENDBRANCH  16  17
ENDBRANCH   2  16
TORSDOF 6
ENDMDL
