MODEL 1
REMARK VINA RESULT:      -6.6      0.000      0.000
REMARK  4 active torsions:
REMARK  status: ('A' for Active; 'I' for Inactive)
REMARK    1  A    between atoms: C_5  and  C_7 
REMARK    2  A    between atoms: N_12  and  C_13 
REMARK    3  A    between atoms: C_13  and  C_14 
REMARK    4  A    between atoms: C_14  and  O_15 
ROOT
HETATM    1  C   UNL     1     -40.158 -48.812  11.682  1.00  0.00     0.065 A 
HETATM    2  C   UNL     1     -38.683 -48.913  11.536  1.00  0.00     0.038 A 
HETATM    3  C   UNL     1     -38.066 -49.948  12.105  1.00  0.00     0.078 A 
HETATM    4  C   UNL     1     -38.840 -50.972  12.827  1.00  0.00     0.262 A 
HETATM    5  O   UNL     1     -38.258 -51.940  13.313  1.00  0.00    -0.267 OA
HETATM    6  N   UNL     1     -40.210 -50.776  12.887  1.00  0.00    -0.254 N 
HETATM    7  N   UNL     1     -40.867 -49.703  12.312  1.00  0.00    -0.294 N 
ATOM      8  HN  UNL     1     -41.881 -49.613  12.380  1.00  0.00     0.187 HD
ENDROOT
BRANCH   6   9
HETATM    9  C   UNL     1     -41.050 -51.761  13.570  1.00  0.00     0.190 C 
BRANCH   9  10
HETATM   10  C   UNL     1     -41.722 -52.788  12.613  1.00  0.00     0.076 C 
HETATM   11  C   UNL     1     -43.257 -52.663  12.572  1.00  0.00     0.040 C 
HETATM   12  C   UNL     1     -43.922 -53.075  13.883  1.00  0.00     0.003 C 
HETATM   13  C   UNL     1     -43.527 -54.495  14.279  1.00  0.00     0.000 C 
HETATM   14  C   UNL     1     -42.012 -54.674  14.332  1.00  0.00     0.003 C 
HETATM   15  C   UNL     1     -41.346 -54.226  13.032  1.00  0.00     0.040 C 
BRANCH  10  16
HETATM   16  O   UNL     1     -41.251 -52.624  11.264  1.00  0.00    -0.388 OA
HETATM   17  H   UNL     1     -41.283 -51.676  11.022  1.00  0.00     0.210 HD
ENDBRANCH  10  16
ENDBRANCH   9  10
ENDBRANCH   6   9
BRANCH   1  18
HETATM   18  C   UNL     1     -40.855 -47.681  11.081  1.00  0.00     0.033 A 
HETATM   19  C   UNL     1     -40.451 -46.359  11.031  1.00  0.00     0.022 A 
HETATM   20  C   UNL     1     -41.397 -45.519  10.369  1.00  0.00     0.015 A 
HETATM   21  C   UNL     1     -42.482 -46.228   9.902  1.00  0.00    -0.021 A 
HETATM   22  C   UNL     1     -43.681 -45.735   9.166  1.00  0.00     0.056 C 
HETATM   23  S   UNL     1     -42.345 -47.890  10.258  1.00  0.00    -0.093 SA
ENDBRANCH   1  18
TORSDOF 4
ENDMDL
MODEL 2
REMARK VINA RESULT:      -6.0      3.483      5.443
REMARK  4 active torsions:
REMARK  status: ('A' for Active; 'I' for Inactive)
REMARK    1  A    between atoms: C_5  and  C_7 
REMARK    2  A    between atoms: N_12  and  C_13 
REMARK    3  A    between atoms: C_13  and  C_14 
REMARK    4  A    between atoms: C_14  and  O_15 
ROOT
HETATM    1  C   UNL     1     -41.002 -52.957  14.034  1.00  0.00     0.065 A 
HETATM    2  C   UNL     1     -40.731 -54.108  14.933  1.00  0.00     0.038 A 
HETATM    3  C   UNL     1     -41.767 -54.832  15.356  1.00  0.00     0.078 A 
HETATM    4  C   UNL     1     -43.133 -54.508  14.911  1.00  0.00     0.262 A 
HETATM    5  O   UNL     1     -44.072 -55.211  15.281  1.00  0.00    -0.267 OA
HETATM    6  N   UNL     1     -43.260 -53.419  14.064  1.00  0.00    -0.254 N 
HETATM    7  N   UNL     1     -42.198 -52.650  13.623  1.00  0.00    -0.294 N 
ATOM      8  HN  UNL     1     -42.349 -51.862  12.992  1.00  0.00     0.187 HD
ENDROOT
BRANCH   6   9
HETATM    9  C   UNL     1     -44.584 -53.047  13.563  1.00  0.00     0.190 C 
BRANCH   9  10
HETATM   10  C   UNL     1     -44.926 -51.540  13.747  1.00  0.00     0.076 C 
HETATM   11  C   UNL     1     -44.372 -50.948  15.056  1.00  0.00     0.040 C 
HETATM   12  C   UNL     1     -45.056 -51.510  16.299  1.00  0.00     0.003 C 
HETATM   13  C   UNL     1     -46.568 -51.305  16.236  1.00  0.00     0.000 C 
HETATM   14  C   UNL     1     -47.168 -51.873  14.953  1.00  0.00     0.003 C 
HETATM   15  C   UNL     1     -46.456 -51.337  13.712  1.00  0.00     0.040 C 
BRANCH  10  16
HETATM   16  O   UNL     1     -44.390 -50.751  12.669  1.00  0.00    -0.388 OA
HETATM   17  H   UNL     1     -44.716 -51.105  11.816  1.00  0.00     0.210 HD
ENDBRANCH  10  16
ENDBRANCH   9  10
ENDBRANCH   6   9
BRANCH   1  18
HETATM   18  C   UNL     1     -39.887 -52.141  13.569  1.00  0.00     0.033 A 
HETATM   19  C   UNL     1     -38.585 -52.130  14.036  1.00  0.00     0.022 A 
HETATM   20  C   UNL     1     -37.761 -51.189  13.347  1.00  0.00     0.015 A 
HETATM   21  C   UNL     1     -38.447 -50.529  12.352  1.00  0.00    -0.021 A 
HETATM   22  C   UNL     1     -37.962 -49.480  11.412  1.00  0.00     0.056 C 
HETATM   23  S   UNL     1     -40.067 -51.056  12.253  1.00  0.00    -0.093 SA
ENDBRANCH   1  18
TORSDOF 4
ENDMDL
MODEL 3
REMARK VINA RESULT:      -5.9      3.171      6.172
REMARK  4 active torsions:
REMARK  status: ('A' for Active; 'I' for Inactive)
REMARK    1  A    between atoms: C_5  and  C_7 
REMARK    2  A    between atoms: N_12  and  C_13 
REMARK    3  A    between atoms: C_13  and  C_14 
REMARK    4  A    between atoms: C_14  and  O_15 
ROOT
HETATM    1  C   UNL     1     -43.430 -52.790  14.148  1.00  0.00     0.065 A 
HETATM    2  C   UNL     1     -42.960 -54.049  14.781  1.00  0.00     0.038 A 
HETATM    3  C   UNL     1     -41.753 -54.505  14.451  1.00  0.00     0.078 A 
HETATM    4  C   UNL     1     -40.906 -53.756  13.506  1.00  0.00     0.262 A 
HETATM    5  O   UNL     1     -39.780 -54.172  13.243  1.00  0.00    -0.267 OA
HETATM    6  N   UNL     1     -41.447 -52.590  12.989  1.00  0.00    -0.254 N 
HETATM    7  N   UNL     1     -42.702 -52.107  13.313  1.00  0.00    -0.294 N 
ATOM      8  HN  UNL     1     -43.048 -51.237  12.908  1.00  0.00     0.187 HD
ENDROOT
BRANCH   6   9
HETATM    9  C   UNL     1     -40.659 -51.780  12.061  1.00  0.00     0.190 C 
BRANCH   9  10
HETATM   10  C   UNL     1     -40.316 -50.360  12.598  1.00  0.00     0.076 C 
HETATM   11  C   UNL     1     -39.336 -49.590  11.692  1.00  0.00     0.040 C 
HETATM   12  C   UNL     1     -37.935 -50.196  11.682  1.00  0.00     0.003 C 
HETATM   13  C   UNL     1     -37.367 -50.294  13.096  1.00  0.00     0.000 C 
HETATM   14  C   UNL     1     -38.304 -51.047  14.037  1.00  0.00     0.003 C 
HETATM   15  C   UNL     1     -39.715 -50.462  14.016  1.00  0.00     0.040 C 
BRANCH  10  16
HETATM   16  O   UNL     1     -41.500 -49.551  12.718  1.00  0.00    -0.388 OA
HETATM   17  H   UNL     1     -41.684 -49.386  13.666  1.00  0.00     0.210 HD
ENDBRANCH  10  16
ENDBRANCH   9  10
ENDBRANCH   6   9
BRANCH   1  18
HETATM   18  C   UNL     1     -44.754 -52.277  14.482  1.00  0.00     0.033 A 
HETATM   19  C   UNL     1     -45.712 -51.767  13.624  1.00  0.00     0.022 A 
HETATM   20  C   UNL     1     -46.893 -51.346  14.307  1.00  0.00     0.015 A 
HETATM   21  C   UNL     1     -46.817 -51.573  15.664  1.00  0.00    -0.021 A 
HETATM   22  C   UNL     1     -47.822 -51.279  16.724  1.00  0.00     0.056 C 
HETATM   23  S   UNL     1     -45.335 -52.298  16.095  1.00  0.00    -0.093 SA
ENDBRANCH   1  18
TORSDOF 4
ENDMDL
MODEL 4
REMARK VINA RESULT:      -5.9      1.587      2.158
REMARK  4 active torsions:
REMARK  status: ('A' for Active; 'I' for Inactive)
REMARK    1  A    between atoms: C_5  and  C_7 
REMARK    2  A    between atoms: N_12  and  C_13 
REMARK    3  A    between atoms: C_13  and  C_14 
REMARK    4  A    between atoms: C_14  and  O_15 
ROOT
HETATM    1  C   UNL     1     -41.252 -49.369  11.592  1.00  0.00     0.065 A 
HETATM    2  C   UNL     1     -39.809 -49.539  11.901  1.00  0.00     0.038 A 
HETATM    3  C   UNL     1     -39.396 -50.727  12.341  1.00  0.00     0.078 A 
HETATM    4  C   UNL     1     -40.350 -51.841  12.483  1.00  0.00     0.262 A 
HETATM    5  O   UNL     1     -39.944 -52.941  12.854  1.00  0.00    -0.267 OA
HETATM    6  N   UNL     1     -41.667 -51.566  12.154  1.00  0.00    -0.254 N 
HETATM    7  N   UNL     1     -42.115 -50.337  11.706  1.00  0.00    -0.294 N 
ATOM      8  HN  UNL     1     -43.097 -50.192  11.470  1.00  0.00     0.187 HD
ENDROOT
BRANCH   6   9
HETATM    9  C   UNL     1     -42.670 -52.627  12.250  1.00  0.00     0.190 C 
BRANCH   9  10
HETATM   10  C   UNL     1     -43.829 -52.312  13.240  1.00  0.00     0.076 C 
HETATM   11  C   UNL     1     -43.343 -52.061  14.680  1.00  0.00     0.040 C 
HETATM   12  C   UNL     1     -42.784 -53.316  15.346  1.00  0.00     0.003 C 
HETATM   13  C   UNL     1     -43.807 -54.450  15.333  1.00  0.00     0.000 C 
HETATM   14  C   UNL     1     -44.324 -54.736  13.925  1.00  0.00     0.003 C 
HETATM   15  C   UNL     1     -44.848 -53.471  13.248  1.00  0.00     0.040 C 
BRANCH  10  16
HETATM   16  O   UNL     1     -44.555 -51.139  12.832  1.00  0.00    -0.388 OA
HETATM   17  H   UNL     1     -45.512 -51.282  12.981  1.00  0.00     0.210 HD
ENDBRANCH  10  16
ENDBRANCH   9  10
ENDBRANCH   6   9
BRANCH   1  18
HETATM   18  C   UNL     1     -41.731 -48.075  11.122  1.00  0.00     0.033 A 
HETATM   19  C   UNL     1     -42.424 -47.794   9.958  1.00  0.00     0.022 A 
HETATM   20  C   UNL     1     -42.723 -46.405   9.818  1.00  0.00     0.015 A 
HETATM   21  C   UNL     1     -42.278 -45.667  10.892  1.00  0.00    -0.021 A 
HETATM   22  C   UNL     1     -42.385 -44.201  11.134  1.00  0.00     0.056 C 
HETATM   23  S   UNL     1     -41.517 -46.654  12.057  1.00  0.00    -0.093 SA
ENDBRANCH   1  18
TORSDOF 4
ENDMDL
MODEL 5
REMARK VINA RESULT:      -5.9      2.246      6.539
REMARK  4 active torsions:
REMARK  status: ('A' for Active; 'I' for Inactive)
REMARK    1  A    between atoms: C_5  and  C_7 
REMARK    2  A    between atoms: N_12  and  C_13 
REMARK    3  A    between atoms: C_13  and  C_14 
REMARK    4  A    between atoms: C_14  and  O_15 
ROOT
HETATM    1  C   UNL     1     -41.366 -51.376  12.717  1.00  0.00     0.065 A 
HETATM    2  C   UNL     1     -40.003 -51.174  13.272  1.00  0.00     0.038 A 
HETATM    3  C   UNL     1     -39.308 -50.116  12.858  1.00  0.00     0.078 A 
HETATM    4  C   UNL     1     -39.898 -49.164  11.901  1.00  0.00     0.262 A 
HETATM    5  O   UNL     1     -39.256 -48.172  11.560  1.00  0.00    -0.267 OA
HETATM    6  N   UNL     1     -41.181 -49.451  11.463  1.00  0.00    -0.254 N 
HETATM    7  N   UNL     1     -41.913 -50.550  11.874  1.00  0.00    -0.294 N 
ATOM      8  HN  UNL     1     -42.859 -50.709  11.523  1.00  0.00     0.187 HD
ENDROOT
BRANCH   6   9
HETATM    9  C   UNL     1     -41.843 -48.542  10.527  1.00  0.00     0.190 C 
BRANCH   9  10
HETATM   10  C   UNL     1     -42.968 -47.683  11.173  1.00  0.00     0.076 C 
HETATM   11  C   UNL     1     -44.317 -47.799  10.438  1.00  0.00     0.040 C 
HETATM   12  C   UNL     1     -44.293 -47.170   9.048  1.00  0.00     0.003 C 
HETATM   13  C   UNL     1     -43.862 -45.707   9.112  1.00  0.00     0.000 C 
HETATM   14  C   UNL     1     -42.529 -45.535   9.835  1.00  0.00     0.003 C 
HETATM   15  C   UNL     1     -42.544 -46.198  11.211  1.00  0.00     0.040 C 
BRANCH  10  16
HETATM   16  O   UNL     1     -43.199 -48.072  12.538  1.00  0.00    -0.388 OA
HETATM   17  H   UNL     1     -42.357 -48.020  13.037  1.00  0.00     0.210 HD
ENDBRANCH  10  16
ENDBRANCH   9  10
ENDBRANCH   6   9
BRANCH   1  18
HETATM   18  C   UNL     1     -42.142 -52.535  13.144  1.00  0.00     0.033 A 
HETATM   19  C   UNL     1     -41.706 -53.638  13.856  1.00  0.00     0.022 A 
HETATM   20  C   UNL     1     -42.745 -54.589  14.088  1.00  0.00     0.015 A 
HETATM   21  C   UNL     1     -43.954 -54.172  13.575  1.00  0.00    -0.021 A 
HETATM   22  C   UNL     1     -45.274 -54.863  13.600  1.00  0.00     0.056 C 
HETATM   23  S   UNL     1     -43.825 -52.643  12.831  1.00  0.00    -0.093 SA
ENDBRANCH   1  18
TORSDOF 4
ENDMDL
MODEL 6
REMARK VINA RESULT:      -5.8      1.510      1.864
REMARK  4 active torsions:
REMARK  status: ('A' for Active; 'I' for Inactive)
REMARK    1  A    between atoms: C_5  and  C_7 
REMARK    2  A    between atoms: N_12  and  C_13 
REMARK    3  A    between atoms: C_13  and  C_14 
REMARK    4  A    between atoms: C_14  and  O_15 
ROOT
HETATM    1  C   UNL     1     -39.352 -48.899  12.554  1.00  0.00     0.065 A 
HETATM    2  C   UNL     1     -37.951 -49.356  12.372  1.00  0.00     0.038 A 
HETATM    3  C   UNL     1     -37.647 -50.605  12.721  1.00  0.00     0.078 A 
HETATM    4  C   UNL     1     -38.688 -51.507  13.242  1.00  0.00     0.262 A 
HETATM    5  O   UNL     1     -38.397 -52.668  13.523  1.00  0.00    -0.267 OA
HETATM    6  N   UNL     1     -39.961 -50.973  13.357  1.00  0.00    -0.254 N 
HETATM    7  N   UNL     1     -40.293 -49.676  13.009  1.00  0.00    -0.294 N 
ATOM      8  HN  UNL     1     -41.250 -49.336  13.106  1.00  0.00     0.187 HD
ENDROOT
BRANCH   6   9
HETATM    9  C   UNL     1     -41.054 -51.813  13.847  1.00  0.00     0.190 C 
BRANCH   9  10
HETATM   10  C   UNL     1     -41.668 -52.745  12.762  1.00  0.00     0.076 C 
HETATM   11  C   UNL     1     -43.160 -52.467  12.498  1.00  0.00     0.040 C 
HETATM   12  C   UNL     1     -44.052 -52.840  13.679  1.00  0.00     0.003 C 
HETATM   13  C   UNL     1     -43.859 -54.302  14.075  1.00  0.00     0.000 C 
HETATM   14  C   UNL     1     -42.394 -54.632  14.345  1.00  0.00     0.003 C 
HETATM   15  C   UNL     1     -41.498 -54.223  13.177  1.00  0.00     0.040 C 
BRANCH  10  16
HETATM   16  O   UNL     1     -40.984 -52.598  11.505  1.00  0.00    -0.388 OA
HETATM   17  H   UNL     1     -41.578 -52.155  10.864  1.00  0.00     0.210 HD
ENDBRANCH  10  16
ENDBRANCH   9  10
ENDBRANCH   6   9
BRANCH   1  18
HETATM   18  C   UNL     1     -39.708 -47.532  12.192  1.00  0.00     0.033 A 
HETATM   19  C   UNL     1     -40.331 -47.090  11.039  1.00  0.00     0.022 A 
HETATM   20  C   UNL     1     -40.512 -45.674  11.019  1.00  0.00     0.015 A 
HETATM   21  C   UNL     1     -40.051 -45.076  12.171  1.00  0.00    -0.021 A 
HETATM   22  C   UNL     1     -40.048 -43.634  12.546  1.00  0.00     0.056 C 
HETATM   23  S   UNL     1     -39.416 -46.224  13.262  1.00  0.00    -0.093 SA
ENDBRANCH   1  18
TORSDOF 4
ENDMDL
MODEL 7
REMARK VINA RESULT:      -5.7      2.370      6.512
REMARK  4 active torsions:
REMARK  status: ('A' for Active; 'I' for Inactive)
REMARK    1  A    between atoms: C_5  and  C_7 
REMARK    2  A    between atoms: N_12  and  C_13 
REMARK    3  A    between atoms: C_13  and  C_14 
REMARK    4  A    between atoms: C_14  and  O_15 
ROOT
HETATM    1  C   UNL     1     -42.115 -51.352  12.579  1.00  0.00     0.065 A 
HETATM    2  C   UNL     1     -40.802 -51.910  12.993  1.00  0.00     0.038 A 
HETATM    3  C   UNL     1     -39.698 -51.280  12.596  1.00  0.00     0.078 A 
HETATM    4  C   UNL     1     -39.792 -50.047  11.795  1.00  0.00     0.262 A 
HETATM    5  O   UNL     1     -38.763 -49.457  11.470  1.00  0.00    -0.267 OA
HETATM    6  N   UNL     1     -41.070 -49.616  11.479  1.00  0.00    -0.254 N 
HETATM    7  N   UNL     1     -42.227 -50.264  11.874  1.00  0.00    -0.294 N 
ATOM      8  HN  UNL     1     -43.145 -49.897  11.620  1.00  0.00     0.187 HD
ENDROOT
BRANCH   6   9
HETATM    9  C   UNL     1     -41.246 -48.389  10.703  1.00  0.00     0.190 C 
BRANCH   9  10
HETATM   10  C   UNL     1     -41.919 -47.232  11.498  1.00  0.00     0.076 C 
HETATM   11  C   UNL     1     -41.997 -45.915  10.702  1.00  0.00     0.040 C 
HETATM   12  C   UNL     1     -40.628 -45.285  10.459  1.00  0.00     0.003 C 
HETATM   13  C   UNL     1     -39.887 -45.053  11.774  1.00  0.00     0.000 C 
HETATM   14  C   UNL     1     -39.785 -46.329  12.604  1.00  0.00     0.003 C 
HETATM   15  C   UNL     1     -41.152 -46.978  12.814  1.00  0.00     0.040 C 
BRANCH  10  16
HETATM   16  O   UNL     1     -43.264 -47.575  11.874  1.00  0.00    -0.388 OA
HETATM   17  H   UNL     1     -43.845 -46.797  11.747  1.00  0.00     0.210 HD
ENDBRANCH  10  16
ENDBRANCH   9  10
ENDBRANCH   6   9
BRANCH   1  18
HETATM   18  C   UNL     1     -43.338 -52.032  12.990  1.00  0.00     0.033 A 
HETATM   19  C   UNL     1     -44.560 -51.468  13.308  1.00  0.00     0.022 A 
HETATM   20  C   UNL     1     -45.536 -52.442  13.679  1.00  0.00     0.015 A 
HETATM   21  C   UNL     1     -45.042 -53.726  13.604  1.00  0.00    -0.021 A 
HETATM   22  C   UNL     1     -45.725 -55.015  13.905  1.00  0.00     0.056 C 
HETATM   23  S   UNL     1     -43.419 -53.742  13.079  1.00  0.00    -0.093 SA
ENDBRANCH   1  18
TORSDOF 4
ENDMDL
MODEL 8
REMARK VINA RESULT:      -5.7      2.646      4.486
REMARK  4 active torsions:
REMARK  status: ('A' for Active; 'I' for Inactive)
REMARK    1  A    between atoms: C_5  and  C_7 
REMARK    2  A    between atoms: N_12  and  C_13 
REMARK    3  A    between atoms: C_13  and  C_14 
REMARK    4  A    between atoms: C_14  and  O_15 
ROOT
HETATM    1  C   UNL     1     -41.353 -52.080  13.347  1.00  0.00     0.065 A 
HETATM    2  C   UNL     1     -40.640 -53.371  13.176  1.00  0.00     0.038 A 
HETATM    3  C   UNL     1     -41.117 -54.441  13.810  1.00  0.00     0.078 A 
HETATM    4  C   UNL     1     -42.338 -54.339  14.628  1.00  0.00     0.262 A 
HETATM    5  O   UNL     1     -42.785 -55.345  15.175  1.00  0.00    -0.267 OA
HETATM    6  N   UNL     1     -42.922 -53.085  14.704  1.00  0.00    -0.254 N 
HETATM    7  N   UNL     1     -42.435 -51.962  14.061  1.00  0.00    -0.294 N 
ATOM      8  HN  UNL     1     -42.911 -51.063  14.146  1.00  0.00     0.187 HD
ENDROOT
BRANCH   6   9
HETATM    9  C   UNL     1     -44.149 -52.908  15.482  1.00  0.00     0.190 C 
BRANCH   9  10
HETATM   10  C   UNL     1     -45.403 -53.566  14.839  1.00  0.00     0.076 C 
HETATM   11  C   UNL     1     -45.341 -53.615  13.301  1.00  0.00     0.040 C 
HETATM   12  C   UNL     1     -45.432 -52.233  12.659  1.00  0.00     0.003 C 
HETATM   13  C   UNL     1     -46.694 -51.499  13.104  1.00  0.00     0.000 C 
HETATM   14  C   UNL     1     -46.806 -51.426  14.624  1.00  0.00     0.003 C 
HETATM   15  C   UNL     1     -46.678 -52.807  15.267  1.00  0.00     0.040 C 
BRANCH  10  16
HETATM   16  O   UNL     1     -45.569 -54.921  15.295  1.00  0.00    -0.388 OA
HETATM   17  H   UNL     1     -45.406 -55.536  14.550  1.00  0.00     0.210 HD
ENDBRANCH  10  16
ENDBRANCH   9  10
ENDBRANCH   6   9
BRANCH   1  18
HETATM   18  C   UNL     1     -40.843 -50.891  12.675  1.00  0.00     0.033 A 
HETATM   19  C   UNL     1     -39.539 -50.616  12.301  1.00  0.00     0.022 A 
HETATM   20  C   UNL     1     -39.404 -49.343  11.670  1.00  0.00     0.015 A 
HETATM   21  C   UNL     1     -40.612 -48.692  11.550  1.00  0.00    -0.021 A 
HETATM   22  C   UNL     1     -40.906 -47.356  10.960  1.00  0.00     0.056 C 
HETATM   23  S   UNL     1     -41.891 -49.624  12.188  1.00  0.00    -0.093 SA
ENDBRANCH   1  18
TORSDOF 4
ENDMDL
MODEL 9
REMARK VINA RESULT:      -5.6      4.836      7.105
REMARK  4 active torsions:
REMARK  status: ('A' for Active; 'I' for Inactive)
REMARK    1  A    between atoms: C_5  and  C_7 
REMARK    2  A    between atoms: N_12  and  C_13 
REMARK    3  A    between atoms: C_13  and  C_14 
REMARK    4  A    between atoms: C_14  and  O_15 
ROOT
HETATM    1  C   UNL     1     -46.128 -51.592  15.398  1.00  0.00     0.065 A 
HETATM    2  C   UNL     1     -46.843 -51.478  14.101  1.00  0.00     0.038 A 
HETATM    3  C   UNL     1     -46.309 -52.072  13.035  1.00  0.00     0.078 A 
HETATM    4  C   UNL     1     -45.061 -52.844  13.159  1.00  0.00     0.262 A 
HETATM    5  O   UNL     1     -44.603 -53.417  12.172  1.00  0.00    -0.267 OA
HETATM    6  N   UNL     1     -44.491 -52.889  14.421  1.00  0.00    -0.254 N 
HETATM    7  N   UNL     1     -45.025 -52.270  15.536  1.00  0.00    -0.294 N 
ATOM      8  HN  UNL     1     -44.566 -52.343  16.445  1.00  0.00     0.187 HD
ENDROOT
BRANCH   6   9
HETATM    9  C   UNL     1     -43.260 -53.652  14.629  1.00  0.00     0.190 C 
BRANCH   9  10
HETATM   10  C   UNL     1     -41.974 -52.778  14.662  1.00  0.00     0.076 C 
HETATM   11  C   UNL     1     -41.252 -52.710  13.302  1.00  0.00     0.040 C 
HETATM   12  C   UNL     1     -40.634 -54.043  12.891  1.00  0.00     0.003 C 
HETATM   13  C   UNL     1     -39.676 -54.561  13.961  1.00  0.00     0.000 C 
HETATM   14  C   UNL     1     -40.343 -54.644  15.331  1.00  0.00     0.003 C 
HETATM   15  C   UNL     1     -40.993 -53.319  15.724  1.00  0.00     0.040 C 
BRANCH  10  16
HETATM   16  O   UNL     1     -42.276 -51.424  15.044  1.00  0.00    -0.388 OA
HETATM   17  H   UNL     1     -41.441 -50.935  15.193  1.00  0.00     0.210 HD
ENDBRANCH  10  16
ENDBRANCH   9  10
ENDBRANCH   6   9
BRANCH   1  18
HETATM   18  C   UNL     1     -46.684 -50.940  16.577  1.00  0.00     0.033 A 
HETATM   19  C   UNL     1     -47.984 -50.993  17.047  1.00  0.00     0.022 A 
HETATM   20  C   UNL     1     -48.174 -50.217  18.230  1.00  0.00     0.015 A 
HETATM   21  C   UNL     1     -47.007 -49.617  18.650  1.00  0.00    -0.021 A 
HETATM   22  C   UNL     1     -46.775 -48.731  19.825  1.00  0.00     0.056 C 
HETATM   23  S   UNL     1     -45.700 -50.002  17.623  1.00  0.00    -0.093 SA
ENDBRANCH   1  18
TORSDOF 4
ENDMDL
