MODEL 1
REMARK VINA RESULT:      -6.1      0.000      0.000
REMARK  5 active torsions:
REMARK  status: ('A' for Active; 'I' for Inactive)
REMARK    1  A    between atoms: C_2  and  C_3 
REMARK       I    between atoms: C_2  and  N_17 
REMARK    2  A    between atoms: C_3  and  N_4 
REMARK    3  A    between atoms: N_11  and  C_12 
REMARK    4  A    between atoms: N_17  and  C_18 
REMARK    5  A    between atoms: C_18  and  C_19 
ROOT
HETATM    1  N   UNL     1     -41.345 -49.222  12.556  1.00  0.00    -0.256 N 
HETATM    2  C   UNL     1     -39.971 -49.411  12.572  1.00  0.00     0.274 A 
HETATM    3  O   UNL     1     -39.160 -48.489  12.546  1.00  0.00    -0.266 OA
HETATM    4  C   UNL     1     -39.498 -50.818  12.589  1.00  0.00     0.128 A 
HETATM    5  C   UNL     1     -38.108 -51.107  12.512  1.00  0.00     0.106 C 
HETATM    6  N   UNL     1     -36.988 -51.413  12.442  1.00  0.00    -0.191 NA
HETATM    7  C   UNL     1     -40.414 -51.794  12.665  1.00  0.00     0.124 A 
HETATM    8  N   UNL     1     -41.767 -51.539  12.735  1.00  0.00    -0.303 N 
HETATM    9  C   UNL     1     -42.285 -50.242  12.655  1.00  0.00     0.332 A 
HETATM   10  O   UNL     1     -43.496 -50.013  12.678  1.00  0.00    -0.246 OA
ENDROOT
BRANCH   1  11
HETATM   11  C   UNL     1     -41.869 -47.866  12.464  1.00  0.00     0.239 C 
BRANCH  11  12
HETATM   12  C   UNL     1     -41.894 -47.415  11.002  1.00  0.00     0.236 C 
HETATM   13  O   UNL     1     -41.051 -46.657  10.534  1.00  0.00    -0.272 OA
HETATM   14  N   UNL     1     -42.978 -47.867  10.282  1.00  0.00    -0.357 N 
HETATM   15  H   UNL     1     -43.758 -48.305  10.775  1.00  0.00     0.162 HD
BRANCH  14  16
HETATM   16  C   UNL     1     -43.159 -47.594   8.866  1.00  0.00     0.154 C 
BRANCH  16  17
HETATM   17  C   UNL     1     -44.627 -47.545   8.440  1.00  0.00     0.139 C 
HETATM   18  C   UNL     1     -45.638 -47.647   9.572  1.00  0.00     0.035 C 
HETATM   19  C   UNL     1     -46.731 -48.530   9.016  1.00  0.00     0.029 C 
HETATM   20  C   UNL     1     -46.349 -48.790   7.578  1.00  0.00     0.168 C 
HETATM   21  O   UNL     1     -44.930 -48.620   7.530  1.00  0.00    -0.384 OA
ENDBRANCH  16  17
ENDBRANCH  14  16
ENDBRANCH  11  12
ENDBRANCH   1  11
BRANCH   8  22
HETATM   22  C   UNL     1     -42.717 -52.624  12.894  1.00  0.00     0.094 A 
HETATM   23  C   UNL     1     -42.967 -53.113  14.303  1.00  0.00     0.028 A 
HETATM   24  C   UNL     1     -42.473 -54.063  13.267  1.00  0.00     0.028 A 
ENDBRANCH   8  22
TORSDOF 5
ENDMDL
MODEL 2
REMARK VINA RESULT:      -6.0      2.553      4.388
REMARK  5 active torsions:
REMARK  status: ('A' for Active; 'I' for Inactive)
REMARK    1  A    between atoms: C_2  and  C_3 
REMARK       I    between atoms: C_2  and  N_17 
REMARK    2  A    between atoms: C_3  and  N_4 
REMARK    3  A    between atoms: N_11  and  C_12 
REMARK    4  A    between atoms: N_17  and  C_18 
REMARK    5  A    between atoms: C_18  and  C_19 
ROOT
HETATM    1  N   UNL     1     -41.180 -52.509  12.846  1.00  0.00    -0.256 N 
HETATM    2  C   UNL     1     -42.433 -53.098  12.928  1.00  0.00     0.274 A 
HETATM    3  O   UNL     1     -43.345 -52.865  12.138  1.00  0.00    -0.266 OA
HETATM    4  C   UNL     1     -42.654 -54.027  14.065  1.00  0.00     0.128 A 
HETATM    5  C   UNL     1     -43.936 -54.602  14.281  1.00  0.00     0.106 C 
HETATM    6  N   UNL     1     -44.960 -55.098  14.521  1.00  0.00    -0.191 NA
HETATM    7  C   UNL     1     -41.620 -54.290  14.878  1.00  0.00     0.124 A 
HETATM    8  N   UNL     1     -40.370 -53.741  14.691  1.00  0.00    -0.303 N 
HETATM    9  C   UNL     1     -40.111 -52.807  13.683  1.00  0.00     0.332 A 
HETATM   10  O   UNL     1     -39.003 -52.283  13.538  1.00  0.00    -0.246 OA
ENDROOT
BRANCH   1  11
HETATM   11  C   UNL     1     -40.928 -51.532  11.795  1.00  0.00     0.239 C 
BRANCH  11  12
HETATM   12  C   UNL     1     -41.383 -50.145  12.254  1.00  0.00     0.236 C 
HETATM   13  O   UNL     1     -40.784 -49.509  13.115  1.00  0.00    -0.272 OA
HETATM   14  N   UNL     1     -42.555 -49.706  11.678  1.00  0.00    -0.357 N 
HETATM   15  H   UNL     1     -43.125 -50.363  11.141  1.00  0.00     0.162 HD
BRANCH  14  16
HETATM   16  C   UNL     1     -43.125 -48.396  11.939  1.00  0.00     0.154 C 
BRANCH  16  17
HETATM   17  C   UNL     1     -43.345 -47.565  10.675  1.00  0.00     0.139 C 
HETATM   18  C   UNL     1     -44.772 -47.546  10.147  1.00  0.00     0.035 C 
HETATM   19  C   UNL     1     -44.614 -47.625   8.646  1.00  0.00     0.029 C 
HETATM   20  C   UNL     1     -43.127 -47.572   8.392  1.00  0.00     0.168 C 
HETATM   21  O   UNL     1     -42.523 -48.050   9.596  1.00  0.00    -0.384 OA
ENDBRANCH  16  17
ENDBRANCH  14  16
ENDBRANCH  11  12
ENDBRANCH   1  11
BRANCH   8  22
HETATM   22  C   UNL     1     -39.262 -54.115  15.550  1.00  0.00     0.094 A 
HETATM   23  C   UNL     1     -38.646 -55.476  15.316  1.00  0.00     0.028 A 
HETATM   24  C   UNL     1     -39.210 -55.139  16.654  1.00  0.00     0.028 A 
ENDBRANCH   8  22
TORSDOF 5
ENDMDL
MODEL 3
REMARK VINA RESULT:      -5.8      3.869      7.133
REMARK  5 active torsions:
REMARK  status: ('A' for Active; 'I' for Inactive)
REMARK    1  A    between atoms: C_2  and  C_3 
REMARK       I    between atoms: C_2  and  N_17 
REMARK    2  A    between atoms: C_3  and  N_4 
REMARK    3  A    between atoms: N_11  and  C_12 
REMARK    4  A    between atoms: N_17  and  C_18 
REMARK    5  A    between atoms: C_18  and  C_19 
ROOT
HETATM    1  N   UNL     1     -44.836 -53.620  14.639  1.00  0.00    -0.256 N 
HETATM    2  C   UNL     1     -45.407 -53.349  13.404  1.00  0.00     0.274 A 
HETATM    3  O   UNL     1     -45.161 -53.994  12.388  1.00  0.00    -0.266 OA
HETATM    4  C   UNL     1     -46.333 -52.191  13.344  1.00  0.00     0.128 A 
HETATM    5  C   UNL     1     -46.891 -51.784  12.100  1.00  0.00     0.106 C 
HETATM    6  N   UNL     1     -47.372 -51.393  11.117  1.00  0.00    -0.191 NA
HETATM    7  C   UNL     1     -46.612 -51.542  14.483  1.00  0.00     0.124 A 
HETATM    8  N   UNL     1     -46.080 -51.914  15.699  1.00  0.00    -0.303 N 
HETATM    9  C   UNL     1     -45.149 -52.952  15.818  1.00  0.00     0.332 A 
HETATM   10  O   UNL     1     -44.641 -53.262  16.898  1.00  0.00    -0.246 OA
ENDROOT
BRANCH   1  11
HETATM   11  C   UNL     1     -43.862 -54.698  14.744  1.00  0.00     0.239 C 
BRANCH  11  12
HETATM   12  C   UNL     1     -42.461 -54.167  14.434  1.00  0.00     0.236 C 
HETATM   13  O   UNL     1     -41.711 -53.744  15.306  1.00  0.00    -0.272 OA
HETATM   14  N   UNL     1     -42.145 -54.134  13.093  1.00  0.00    -0.357 N 
HETATM   15  H   UNL     1     -42.882 -54.286  12.402  1.00  0.00     0.162 HD
BRANCH  14  16
HETATM   16  C   UNL     1     -40.847 -53.714  12.594  1.00  0.00     0.154 C 
BRANCH  16  17
HETATM   17  C   UNL     1     -40.799 -52.239  12.192  1.00  0.00     0.139 C 
HETATM   18  C   UNL     1     -39.963 -51.344  13.094  1.00  0.00     0.035 C 
HETATM   19  C   UNL     1     -40.768 -50.069  13.200  1.00  0.00     0.029 C 
HETATM   20  C   UNL     1     -41.947 -50.257  12.276  1.00  0.00     0.168 C 
HETATM   21  O   UNL     1     -42.122 -51.672  12.173  1.00  0.00    -0.384 OA
ENDBRANCH  16  17
ENDBRANCH  14  16
ENDBRANCH  11  12
ENDBRANCH   1  11
BRANCH   8  22
HETATM   22  C   UNL     1     -46.470 -51.231  16.918  1.00  0.00     0.094 A 
HETATM   23  C   UNL     1     -47.550 -51.883  17.751  1.00  0.00     0.028 A 
HETATM   24  C   UNL     1     -47.748 -50.499  17.238  1.00  0.00     0.028 A 
ENDBRANCH   8  22
TORSDOF 5
ENDMDL
MODEL 4
REMARK VINA RESULT:      -5.7      3.510      6.383
REMARK  5 active torsions:
REMARK  status: ('A' for Active; 'I' for Inactive)
REMARK    1  A    between atoms: C_2  and  C_3 
REMARK       I    between atoms: C_2  and  N_17 
REMARK    2  A    between atoms: C_3  and  N_4 
REMARK    3  A    between atoms: N_11  and  C_12 
REMARK    4  A    between atoms: N_17  and  C_18 
REMARK    5  A    between atoms: C_18  and  C_19 
ROOT
HETATM    1  N   UNL     1     -41.966 -53.664  13.172  1.00  0.00    -0.256 N 
HETATM    2  C   UNL     1     -43.325 -53.942  13.134  1.00  0.00     0.274 A 
HETATM    3  O   UNL     1     -44.038 -53.704  12.162  1.00  0.00    -0.266 OA
HETATM    4  C   UNL     1     -43.915 -54.526  14.365  1.00  0.00     0.128 A 
HETATM    5  C   UNL     1     -45.315 -54.755  14.448  1.00  0.00     0.106 C 
HETATM    6  N   UNL     1     -46.452 -54.958  14.587  1.00  0.00    -0.191 NA
HETATM    7  C   UNL     1     -43.094 -54.813  15.386  1.00  0.00     0.124 A 
HETATM    8  N   UNL     1     -41.735 -54.595  15.330  1.00  0.00    -0.303 N 
HETATM    9  C   UNL     1     -41.123 -53.985  14.229  1.00  0.00     0.332 A 
HETATM   10  O   UNL     1     -39.913 -53.753  14.192  1.00  0.00    -0.246 OA
ENDROOT
BRANCH   1  11
HETATM   11  C   UNL     1     -41.346 -53.021  12.021  1.00  0.00     0.239 C 
BRANCH  11  12
HETATM   12  C   UNL     1     -41.408 -51.501  12.177  1.00  0.00     0.236 C 
HETATM   13  O   UNL     1     -41.993 -50.959  13.109  1.00  0.00    -0.272 OA
HETATM   14  N   UNL     1     -40.820 -50.795  11.150  1.00  0.00    -0.357 N 
HETATM   15  H   UNL     1     -40.548 -51.287  10.297  1.00  0.00     0.162 HD
BRANCH  14  16
HETATM   16  C   UNL     1     -40.726 -49.345  11.136  1.00  0.00     0.154 C 
BRANCH  16  17
HETATM   17  C   UNL     1     -39.437 -48.814  11.763  1.00  0.00     0.139 C 
HETATM   18  C   UNL     1     -38.228 -49.729  11.643  1.00  0.00     0.035 C 
HETATM   19  C   UNL     1     -37.534 -49.607  12.980  1.00  0.00     0.029 C 
HETATM   20  C   UNL     1     -38.308 -48.558  13.742  1.00  0.00     0.168 C 
HETATM   21  O   UNL     1     -39.618 -48.568  13.171  1.00  0.00    -0.384 OA
ENDBRANCH  16  17
ENDBRANCH  14  16
ENDBRANCH  11  12
ENDBRANCH   1  11
BRANCH   8  22
HETATM   22  C   UNL     1     -40.876 -54.993  16.430  1.00  0.00     0.094 A 
HETATM   23  C   UNL     1     -40.683 -56.477  16.643  1.00  0.00     0.028 A 
HETATM   24  C   UNL     1     -41.239 -55.639  17.742  1.00  0.00     0.028 A 
ENDBRANCH   8  22
TORSDOF 5
ENDMDL
MODEL 5
REMARK VINA RESULT:      -5.7      2.868      5.199
REMARK  5 active torsions:
REMARK  status: ('A' for Active; 'I' for Inactive)
REMARK    1  A    between atoms: C_2  and  C_3 
REMARK       I    between atoms: C_2  and  N_17 
REMARK    2  A    between atoms: C_3  and  N_4 
REMARK    3  A    between atoms: N_11  and  C_12 
REMARK    4  A    between atoms: N_17  and  C_18 
REMARK    5  A    between atoms: C_18  and  C_19 
ROOT
HETATM    1  N   UNL     1     -41.979 -53.696  13.422  1.00  0.00    -0.256 N 
HETATM    2  C   UNL     1     -41.705 -54.358  14.609  1.00  0.00     0.274 A 
HETATM    3  O   UNL     1     -40.576 -54.711  14.943  1.00  0.00    -0.266 OA
HETATM    4  C   UNL     1     -42.868 -54.667  15.478  1.00  0.00     0.128 A 
HETATM    5  C   UNL     1     -42.692 -55.425  16.668  1.00  0.00     0.106 C 
HETATM    6  N   UNL     1     -42.620 -56.048  17.647  1.00  0.00    -0.191 NA
HETATM    7  C   UNL     1     -44.076 -54.223  15.101  1.00  0.00     0.124 A 
HETATM    8  N   UNL     1     -44.272 -53.491  13.950  1.00  0.00    -0.303 N 
HETATM    9  C   UNL     1     -43.233 -53.223  13.052  1.00  0.00     0.332 A 
HETATM   10  O   UNL     1     -43.413 -52.602  12.002  1.00  0.00    -0.246 OA
ENDROOT
BRANCH   1  11
HETATM   11  C   UNL     1     -40.888 -53.432  12.494  1.00  0.00     0.239 C 
BRANCH  11  12
HETATM   12  C   UNL     1     -40.441 -51.974  12.615  1.00  0.00     0.236 C 
HETATM   13  O   UNL     1     -40.047 -51.494  13.672  1.00  0.00    -0.272 OA
HETATM   14  N   UNL     1     -40.589 -51.232  11.463  1.00  0.00    -0.357 N 
HETATM   15  H   UNL     1     -41.125 -51.618  10.685  1.00  0.00     0.162 HD
BRANCH  14  16
HETATM   16  C   UNL     1     -40.174 -49.844  11.356  1.00  0.00     0.154 C 
BRANCH  16  17
HETATM   17  C   UNL     1     -41.306 -48.901  10.944  1.00  0.00     0.139 C 
HETATM   18  C   UNL     1     -40.971 -47.418  10.996  1.00  0.00     0.035 C 
HETATM   19  C   UNL     1     -42.223 -46.774  11.545  1.00  0.00     0.029 C 
HETATM   20  C   UNL     1     -43.232 -47.891  11.669  1.00  0.00     0.168 C 
HETATM   21  O   UNL     1     -42.456 -49.086  11.790  1.00  0.00    -0.384 OA
ENDBRANCH  16  17
ENDBRANCH  14  16
ENDBRANCH  11  12
ENDBRANCH   1  11
BRANCH   8  22
HETATM   22  C   UNL     1     -45.584 -52.966  13.622  1.00  0.00     0.094 A 
HETATM   23  C   UNL     1     -45.937 -51.607  14.184  1.00  0.00     0.028 A 
HETATM   24  C   UNL     1     -46.791 -52.785  14.506  1.00  0.00     0.028 A 
ENDBRANCH   8  22
TORSDOF 5
ENDMDL
MODEL 6
REMARK VINA RESULT:      -5.7      3.721      5.677
REMARK  5 active torsions:
REMARK  status: ('A' for Active; 'I' for Inactive)
REMARK    1  A    between atoms: C_2  and  C_3 
REMARK       I    between atoms: C_2  and  N_17 
REMARK    2  A    between atoms: C_3  and  N_4 
REMARK    3  A    between atoms: N_11  and  C_12 
REMARK    4  A    between atoms: N_17  and  C_18 
REMARK    5  A    between atoms: C_18  and  C_19 
ROOT
HETATM    1  N   UNL     1     -39.990 -52.924  13.743  1.00  0.00    -0.256 N 
HETATM    2  C   UNL     1     -39.248 -52.897  14.915  1.00  0.00     0.274 A 
HETATM    3  O   UNL     1     -39.028 -53.893  15.600  1.00  0.00    -0.266 OA
HETATM    4  C   UNL     1     -38.740 -51.571  15.346  1.00  0.00     0.128 A 
HETATM    5  C   UNL     1     -38.051 -51.435  16.582  1.00  0.00     0.106 C 
HETATM    6  N   UNL     1     -37.490 -51.253  17.584  1.00  0.00    -0.191 NA
HETATM    7  C   UNL     1     -38.962 -50.518  14.547  1.00  0.00     0.124 A 
HETATM    8  N   UNL     1     -39.632 -50.624  13.347  1.00  0.00    -0.303 N 
HETATM    9  C   UNL     1     -40.196 -51.828  12.913  1.00  0.00     0.332 A 
HETATM   10  O   UNL     1     -40.830 -51.918  11.859  1.00  0.00    -0.246 OA
ENDROOT
BRANCH   1  11
HETATM   11  C   UNL     1     -40.578 -54.185  13.310  1.00  0.00     0.239 C 
BRANCH  11  12
HETATM   12  C   UNL     1     -42.047 -54.248  13.734  1.00  0.00     0.236 C 
HETATM   13  O   UNL     1     -42.387 -54.400  14.903  1.00  0.00    -0.272 OA
HETATM   14  N   UNL     1     -42.947 -54.197  12.693  1.00  0.00    -0.357 N 
HETATM   15  H   UNL     1     -42.609 -54.295  11.734  1.00  0.00     0.162 HD
BRANCH  14  16
HETATM   16  C   UNL     1     -44.387 -54.191  12.888  1.00  0.00     0.154 C 
BRANCH  16  17
HETATM   17  C   UNL     1     -44.995 -52.788  12.879  1.00  0.00     0.139 C 
HETATM   18  C   UNL     1     -45.555 -52.311  14.210  1.00  0.00     0.035 C 
HETATM   19  C   UNL     1     -46.826 -51.583  13.839  1.00  0.00     0.029 C 
HETATM   20  C   UNL     1     -46.867 -51.583  12.330  1.00  0.00     0.168 C 
HETATM   21  O   UNL     1     -46.078 -52.708  11.933  1.00  0.00    -0.384 OA
ENDBRANCH  16  17
ENDBRANCH  14  16
ENDBRANCH  11  12
ENDBRANCH   1  11
BRANCH   8  22
HETATM   22  C   UNL     1     -39.781 -49.471  12.478  1.00  0.00     0.094 A 
HETATM   23  C   UNL     1     -38.539 -48.989  11.764  1.00  0.00     0.028 A 
HETATM   24  C   UNL     1     -39.280 -48.062  12.664  1.00  0.00     0.028 A 
ENDBRANCH   8  22
TORSDOF 5
ENDMDL
MODEL 7
REMARK VINA RESULT:      -5.7      3.590      5.673
REMARK  5 active torsions:
REMARK  status: ('A' for Active; 'I' for Inactive)
REMARK    1  A    between atoms: C_2  and  C_3 
REMARK       I    between atoms: C_2  and  N_17 
REMARK    2  A    between atoms: C_3  and  N_4 
REMARK    3  A    between atoms: N_11  and  C_12 
REMARK    4  A    between atoms: N_17  and  C_18 
REMARK    5  A    between atoms: C_18  and  C_19 
ROOT
HETATM    1  N   UNL     1     -39.867 -52.762  13.638  1.00  0.00    -0.256 N 
HETATM    2  C   UNL     1     -40.160 -51.694  12.803  1.00  0.00     0.274 A 
HETATM    3  O   UNL     1     -40.861 -51.793  11.798  1.00  0.00    -0.266 OA
HETATM    4  C   UNL     1     -39.549 -50.389  13.157  1.00  0.00     0.128 A 
HETATM    5  C   UNL     1     -39.719 -49.264  12.306  1.00  0.00     0.106 C 
HETATM    6  N   UNL     1     -39.810 -48.308  11.650  1.00  0.00    -0.191 NA
HETATM    7  C   UNL     1     -38.829 -50.313  14.286  1.00  0.00     0.124 A 
HETATM    8  N   UNL     1     -38.646 -51.392  15.124  1.00  0.00    -0.303 N 
HETATM    9  C   UNL     1     -39.136 -52.666  14.817  1.00  0.00     0.332 A 
HETATM   10  O   UNL     1     -38.940 -53.642  15.544  1.00  0.00    -0.246 OA
ENDROOT
BRANCH   1  11
HETATM   11  C   UNL     1     -40.378 -54.084  13.299  1.00  0.00     0.239 C 
BRANCH  11  12
HETATM   12  C   UNL     1     -41.843 -54.200  13.721  1.00  0.00     0.236 C 
HETATM   13  O   UNL     1     -42.176 -54.451  14.875  1.00  0.00    -0.272 OA
HETATM   14  N   UNL     1     -42.749 -54.078  12.690  1.00  0.00    -0.357 N 
HETATM   15  H   UNL     1     -42.413 -54.094  11.725  1.00  0.00     0.162 HD
BRANCH  14  16
HETATM   16  C   UNL     1     -44.187 -54.106  12.890  1.00  0.00     0.154 C 
BRANCH  16  17
HETATM   17  C   UNL     1     -44.844 -52.730  12.777  1.00  0.00     0.139 C 
HETATM   18  C   UNL     1     -45.273 -52.101  14.094  1.00  0.00     0.035 C 
HETATM   19  C   UNL     1     -46.603 -51.455  13.781  1.00  0.00     0.029 C 
HETATM   20  C   UNL     1     -46.807 -51.647  12.298  1.00  0.00     0.168 C 
HETATM   21  O   UNL     1     -46.025 -52.794  11.956  1.00  0.00    -0.384 OA
ENDBRANCH  16  17
ENDBRANCH  14  16
ENDBRANCH  11  12
ENDBRANCH   1  11
BRANCH   8  22
HETATM   22  C   UNL     1     -37.924 -51.243  16.375  1.00  0.00     0.094 A 
HETATM   23  C   UNL     1     -38.680 -50.628  17.531  1.00  0.00     0.028 A 
HETATM   24  C   UNL     1     -37.422 -49.992  17.047  1.00  0.00     0.028 A 
ENDBRANCH   8  22
TORSDOF 5
ENDMDL
MODEL 8
REMARK VINA RESULT:      -5.6      3.658      6.543
REMARK  5 active torsions:
REMARK  status: ('A' for Active; 'I' for Inactive)
REMARK    1  A    between atoms: C_2  and  C_3 
REMARK       I    between atoms: C_2  and  N_17 
REMARK    2  A    between atoms: C_3  and  N_4 
REMARK    3  A    between atoms: N_11  and  C_12 
REMARK    4  A    between atoms: N_17  and  C_18 
REMARK    5  A    between atoms: C_18  and  C_19 
ROOT
HETATM    1  N   UNL     1     -39.124 -48.918  12.501  1.00  0.00    -0.256 N 
HETATM    2  C   UNL     1     -39.516 -47.612  12.756  1.00  0.00     0.274 A 
HETATM    3  O   UNL     1     -40.365 -47.019  12.096  1.00  0.00    -0.266 OA
HETATM    4  C   UNL     1     -38.826 -46.921  13.874  1.00  0.00     0.128 A 
HETATM    5  C   UNL     1     -39.099 -45.552  14.147  1.00  0.00     0.106 C 
HETATM    6  N   UNL     1     -39.267 -44.434  14.416  1.00  0.00    -0.191 NA
HETATM    7  C   UNL     1     -37.940 -47.618  14.600  1.00  0.00     0.124 A 
HETATM    8  N   UNL     1     -37.657 -48.944  14.351  1.00  0.00    -0.303 N 
HETATM    9  C   UNL     1     -38.218 -49.636  13.273  1.00  0.00     0.332 A 
HETATM   10  O   UNL     1     -37.936 -50.811  13.024  1.00  0.00    -0.246 OA
ENDROOT
BRANCH   1  11
HETATM   11  C   UNL     1     -39.711 -49.622  11.369  1.00  0.00     0.239 C 
BRANCH  11  12
HETATM   12  C   UNL     1     -40.848 -50.526  11.851  1.00  0.00     0.236 C 
HETATM   13  O   UNL     1     -41.879 -50.079  12.341  1.00  0.00    -0.272 OA
HETATM   14  N   UNL     1     -40.585 -51.875  11.758  1.00  0.00    -0.357 N 
HETATM   15  H   UNL     1     -39.634 -52.187  11.554  1.00  0.00     0.162 HD
BRANCH  14  16
HETATM   16  C   UNL     1     -41.554 -52.898  12.114  1.00  0.00     0.154 C 
BRANCH  16  17
HETATM   17  C   UNL     1     -40.961 -54.030  12.953  1.00  0.00     0.139 C 
HETATM   18  C   UNL     1     -41.656 -54.289  14.281  1.00  0.00     0.035 C 
HETATM   19  C   UNL     1     -40.525 -54.572  15.243  1.00  0.00     0.029 C 
HETATM   20  C   UNL     1     -39.270 -54.572  14.403  1.00  0.00     0.168 C 
HETATM   21  O   UNL     1     -39.580 -53.766  13.264  1.00  0.00    -0.384 OA
ENDBRANCH  16  17
ENDBRANCH  14  16
ENDBRANCH  11  12
ENDBRANCH   1  11
BRANCH   8  22
HETATM   22  C   UNL     1     -36.748 -49.679  15.211  1.00  0.00     0.094 A 
HETATM   23  C   UNL     1     -37.305 -50.180  16.525  1.00  0.00     0.028 A 
HETATM   24  C   UNL     1     -36.126 -49.268  16.521  1.00  0.00     0.028 A 
ENDBRANCH   8  22
TORSDOF 5
ENDMDL
MODEL 9
REMARK VINA RESULT:      -5.5      3.968      8.019
REMARK  5 active torsions:
REMARK  status: ('A' for Active; 'I' for Inactive)
REMARK    1  A    between atoms: C_2  and  C_3 
REMARK       I    between atoms: C_2  and  N_17 
REMARK    2  A    between atoms: C_3  and  N_4 
REMARK    3  A    between atoms: N_11  and  C_12 
REMARK    4  A    between atoms: N_17  and  C_18 
REMARK    5  A    between atoms: C_18  and  C_19 
ROOT
HETATM    1  N   UNL     1     -41.974 -52.686  12.732  1.00  0.00    -0.256 N 
HETATM    2  C   UNL     1     -41.526 -51.386  12.547  1.00  0.00     0.274 A 
HETATM    3  O   UNL     1     -40.389 -51.109  12.171  1.00  0.00    -0.266 OA
HETATM    4  C   UNL     1     -42.489 -50.303  12.864  1.00  0.00     0.128 A 
HETATM    5  C   UNL     1     -42.084 -48.941  12.794  1.00  0.00     0.106 C 
HETATM    6  N   UNL     1     -41.816 -47.810  12.767  1.00  0.00    -0.191 NA
HETATM    7  C   UNL     1     -43.733 -50.647  13.227  1.00  0.00     0.124 A 
HETATM    8  N   UNL     1     -44.147 -51.959  13.306  1.00  0.00    -0.303 N 
HETATM    9  C   UNL     1     -43.273 -53.030  13.089  1.00  0.00     0.332 A 
HETATM   10  O   UNL     1     -43.630 -54.205  13.198  1.00  0.00    -0.246 OA
ENDROOT
BRANCH   1  11
HETATM   11  C   UNL     1     -41.050 -53.789  12.509  1.00  0.00     0.239 C 
BRANCH  11  12
HETATM   12  C   UNL     1     -40.197 -54.015  13.758  1.00  0.00     0.236 C 
HETATM   13  O   UNL     1     -38.976 -53.900  13.750  1.00  0.00    -0.272 OA
HETATM   14  N   UNL     1     -40.902 -54.429  14.867  1.00  0.00    -0.357 N 
HETATM   15  H   UNL     1     -41.875 -54.722  14.760  1.00  0.00     0.162 HD
BRANCH  14  16
HETATM   16  C   UNL     1     -40.285 -54.647  16.164  1.00  0.00     0.154 C 
BRANCH  16  17
HETATM   17  C   UNL     1     -40.510 -56.056  16.715  1.00  0.00     0.139 C 
HETATM   18  C   UNL     1     -40.968 -56.125  18.163  1.00  0.00     0.035 C 
HETATM   19  C   UNL     1     -40.207 -57.297  18.739  1.00  0.00     0.029 C 
HETATM   20  C   UNL     1     -39.452 -57.898  17.578  1.00  0.00     0.168 C 
HETATM   21  O   UNL     1     -39.299 -56.833  16.637  1.00  0.00    -0.384 OA
ENDBRANCH  16  17
ENDBRANCH  14  16
ENDBRANCH  11  12
ENDBRANCH   1  11
BRANCH   8  22
HETATM   22  C   UNL     1     -45.525 -52.282  13.628  1.00  0.00     0.094 A 
HETATM   23  C   UNL     1     -46.580 -51.821  12.649  1.00  0.00     0.028 A 
HETATM   24  C   UNL     1     -46.643 -51.374  14.069  1.00  0.00     0.028 A 
ENDBRANCH   8  22
TORSDOF 5
ENDMDL
