MODEL 1
REMARK VINA RESULT:      -6.1      0.000      0.000
REMARK  7 active torsions:
REMARK  status: ('A' for Active; 'I' for Inactive)
REMARK    1  A    between atoms: C_2  and  C_4 
REMARK    2  A    between atoms: C_4  and  C_5 
REMARK    3  A    between atoms: C_5  and  C_9 
REMARK       I    between atoms: C_9  and  N_11 
REMARK    4  A    between atoms: N_11  and  C_12 
REMARK    5  A    between atoms: C_12  and  C_13 
REMARK    6  A    between atoms: C_13  and  C_14 
REMARK    7  A    between atoms: N_20  and  C_21 
ROOT
HETATM    1  C   UNL     1     -43.905 -50.569  13.774  1.00  0.00     0.226 C 
HETATM    2  O   UNL     1     -43.731 -49.741  14.670  1.00  0.00    -0.273 OA
HETATM    3  N   UNL     1     -43.265 -50.430  12.559  1.00  0.00    -0.360 N 
HETATM    4  H   UNL     1     -43.376 -51.137  11.838  1.00  0.00     0.162 HD
ENDROOT
BRANCH   3   5
HETATM    5  C   UNL     1     -42.256 -49.406  12.330  1.00  0.00     0.130 C 
BRANCH   5   6
HETATM    6  C   UNL     1     -40.996 -49.987  11.682  1.00  0.00     0.098 C 
BRANCH   6   7
HETATM    7  C   UNL     1     -40.860 -51.446  11.963  1.00  0.00     0.101 A 
HETATM    8  N   UNL     1     -41.164 -52.427  11.135  1.00  0.00    -0.288 N 
HETATM    9  N   UNL     1     -40.935 -53.623  11.771  1.00  0.00    -0.295 N 
ATOM     10  HN  UNL     1     -41.511 -52.317  10.182  1.00  0.00     0.188 HD
HETATM   11  C   UNL     1     -40.483 -53.350  12.973  1.00  0.00     0.201 A 
ATOM     12  HN  UNL     1     -41.089 -54.552  11.381  1.00  0.00     0.187 HD
HETATM   13  N   UNL     1     -40.416 -52.001  13.138  1.00  0.00    -0.326 N 
BRANCH  13  14
HETATM   14  C   UNL     1     -39.980 -51.302  14.323  1.00  0.00     0.092 A 
HETATM   15  C   UNL     1     -39.433 -52.029  15.540  1.00  0.00     0.028 A 
HETATM   16  C   UNL     1     -40.770 -51.377  15.619  1.00  0.00     0.028 A 
ENDBRANCH  13  14
ENDBRANCH   6   7
ENDBRANCH   5   6
ENDBRANCH   3   5
BRANCH   1  17
HETATM   17  C   UNL     1     -44.840 -51.849  13.889  1.00  0.00     0.041 C 
HETATM   18  C   UNL     1     -45.707 -51.914  15.192  1.00  0.00     0.019 C 
HETATM   19  C   UNL     1     -46.880 -51.298  14.416  1.00  0.00     0.002 C 
HETATM   20  C   UNL     1     -46.205 -51.736  13.111  1.00  0.00     0.019 C 
BRANCH  17  21
HETATM   21  C   UNL     1     -44.119 -53.178  13.551  1.00  0.00     0.023 C 
BRANCH  21  22
HETATM   22  C   UNL     1     -44.404 -54.371  14.491  1.00  0.00    -0.021 C 
HETATM   23  C   UNL     1     -45.402 -55.320  13.809  1.00  0.00     0.009 C 
HETATM   24  C   UNL     1     -43.170 -55.179  14.882  1.00  0.00     0.009 C 
ENDBRANCH  21  22
ENDBRANCH  17  21
ENDBRANCH   1  17
TORSDOF 7
ENDMDL
MODEL 2
REMARK VINA RESULT:      -6.1      3.179      5.135
REMARK  7 active torsions:
REMARK  status: ('A' for Active; 'I' for Inactive)
REMARK    1  A    between atoms: C_2  and  C_4 
REMARK    2  A    between atoms: C_4  and  C_5 
REMARK    3  A    between atoms: C_5  and  C_9 
REMARK       I    between atoms: C_9  and  N_11 
REMARK    4  A    between atoms: N_11  and  C_12 
REMARK    5  A    between atoms: C_12  and  C_13 
REMARK    6  A    between atoms: C_13  and  C_14 
REMARK    7  A    between atoms: N_20  and  C_21 
ROOT
HETATM    1  C   UNL     1     -43.915 -50.426  13.614  1.00  0.00     0.226 C 
HETATM    2  O   UNL     1     -43.488 -49.846  14.614  1.00  0.00    -0.273 OA
HETATM    3  N   UNL     1     -43.622 -49.950  12.351  1.00  0.00    -0.360 N 
HETATM    4  H   UNL     1     -43.938 -50.455  11.528  1.00  0.00     0.162 HD
ENDROOT
BRANCH   3   5
HETATM    5  C   UNL     1     -42.691 -48.852  12.137  1.00  0.00     0.130 C 
BRANCH   5   6
HETATM    6  C   UNL     1     -43.422 -47.540  11.839  1.00  0.00     0.098 C 
BRANCH   6   7
HETATM    7  C   UNL     1     -43.308 -47.165  10.398  1.00  0.00     0.101 A 
HETATM    8  N   UNL     1     -42.262 -46.602   9.823  1.00  0.00    -0.288 N 
HETATM    9  N   UNL     1     -42.557 -46.380   8.501  1.00  0.00    -0.295 N 
ATOM     10  HN  UNL     1     -41.382 -46.371  10.284  1.00  0.00     0.188 HD
HETATM   11  C   UNL     1     -43.774 -46.824   8.288  1.00  0.00     0.201 A 
ATOM     12  HN  UNL     1     -41.942 -45.950   7.811  1.00  0.00     0.187 HD
HETATM   13  N   UNL     1     -44.283 -47.326   9.445  1.00  0.00    -0.326 N 
BRANCH  13  14
HETATM   14  C   UNL     1     -45.597 -47.897   9.628  1.00  0.00     0.092 A 
HETATM   15  C   UNL     1     -46.421 -48.429   8.468  1.00  0.00     0.028 A 
HETATM   16  C   UNL     1     -46.845 -47.174   9.150  1.00  0.00     0.028 A 
ENDBRANCH  13  14
ENDBRANCH   6   7
ENDBRANCH   5   6
ENDBRANCH   3   5
BRANCH   1  17
HETATM   17  C   UNL     1     -44.811 -51.738  13.637  1.00  0.00     0.041 C 
HETATM   18  C   UNL     1     -45.543 -52.009  14.995  1.00  0.00     0.019 C 
HETATM   19  C   UNL     1     -46.798 -51.329  14.429  1.00  0.00     0.002 C 
HETATM   20  C   UNL     1     -46.248 -51.562  13.016  1.00  0.00     0.019 C 
BRANCH  17  21
HETATM   21  C   UNL     1     -44.104 -52.985  13.049  1.00  0.00     0.023 C 
BRANCH  21  22
HETATM   22  C   UNL     1     -43.093 -53.700  13.973  1.00  0.00    -0.021 C 
HETATM   23  C   UNL     1     -43.719 -55.005  14.488  1.00  0.00     0.009 C 
HETATM   24  C   UNL     1     -41.760 -54.039  13.313  1.00  0.00     0.009 C 
ENDBRANCH  21  22
ENDBRANCH  17  21
ENDBRANCH   1  17
TORSDOF 7
ENDMDL
MODEL 3
REMARK VINA RESULT:      -6.0      3.218      5.628
REMARK  7 active torsions:
REMARK  status: ('A' for Active; 'I' for Inactive)
REMARK    1  A    between atoms: C_2  and  C_4 
REMARK    2  A    between atoms: C_4  and  C_5 
REMARK    3  A    between atoms: C_5  and  C_9 
REMARK       I    between atoms: C_9  and  N_11 
REMARK    4  A    between atoms: N_11  and  C_12 
REMARK    5  A    between atoms: C_12  and  C_13 
REMARK    6  A    between atoms: C_13  and  C_14 
REMARK    7  A    between atoms: N_20  and  C_21 
ROOT
HETATM    1  C   UNL     1     -43.087 -50.904  13.355  1.00  0.00     0.226 C 
HETATM    2  O   UNL     1     -43.113 -50.141  14.323  1.00  0.00    -0.273 OA
HETATM    3  N   UNL     1     -42.710 -50.439  12.110  1.00  0.00    -0.360 N 
HETATM    4  H   UNL     1     -42.646 -51.080  11.324  1.00  0.00     0.162 HD
ENDROOT
BRANCH   3   5
HETATM    5  C   UNL     1     -42.191 -49.095  11.912  1.00  0.00     0.130 C 
BRANCH   5   6
HETATM    6  C   UNL     1     -43.318 -48.073  11.738  1.00  0.00     0.098 C 
BRANCH   6   7
HETATM    7  C   UNL     1     -43.262 -47.419  10.397  1.00  0.00     0.101 A 
HETATM    8  N   UNL     1     -42.221 -46.792   9.883  1.00  0.00    -0.288 N 
HETATM    9  N   UNL     1     -42.573 -46.296   8.652  1.00  0.00    -0.295 N 
ATOM     10  HN  UNL     1     -41.308 -46.691  10.326  1.00  0.00     0.188 HD
HETATM   11  C   UNL     1     -43.820 -46.641   8.430  1.00  0.00     0.201 A 
ATOM     12  HN  UNL     1     -41.975 -45.759   8.025  1.00  0.00     0.187 HD
HETATM   13  N   UNL     1     -44.292 -47.347   9.493  1.00  0.00    -0.326 N 
BRANCH  13  14
HETATM   14  C   UNL     1     -45.620 -47.894   9.638  1.00  0.00     0.092 A 
HETATM   15  C   UNL     1     -46.416 -48.421   8.456  1.00  0.00     0.028 A 
HETATM   16  C   UNL     1     -46.840 -47.153   9.115  1.00  0.00     0.028 A 
ENDBRANCH  13  14
ENDBRANCH   6   7
ENDBRANCH   5   6
ENDBRANCH   3   5
BRANCH   1  17
HETATM   17  C   UNL     1     -43.458 -52.448  13.404  1.00  0.00     0.041 C 
HETATM   18  C   UNL     1     -42.411 -53.397  12.730  1.00  0.00     0.019 C 
HETATM   19  C   UNL     1     -41.782 -53.647  14.108  1.00  0.00     0.002 C 
HETATM   20  C   UNL     1     -43.088 -53.169  14.755  1.00  0.00     0.019 C 
BRANCH  17  21
HETATM   21  C   UNL     1     -44.924 -52.747  13.003  1.00  0.00     0.023 C 
BRANCH  21  22
HETATM   22  C   UNL     1     -45.898 -51.549  13.021  1.00  0.00    -0.021 C 
HETATM   23  C   UNL     1     -46.869 -51.672  11.836  1.00  0.00     0.009 C 
HETATM   24  C   UNL     1     -46.722 -51.419  14.299  1.00  0.00     0.009 C 
ENDBRANCH  21  22
ENDBRANCH  17  21
ENDBRANCH   1  17
TORSDOF 7
ENDMDL
MODEL 4
REMARK VINA RESULT:      -5.8      2.125      3.287
REMARK  7 active torsions:
REMARK  status: ('A' for Active; 'I' for Inactive)
REMARK    1  A    between atoms: C_2  and  C_4 
REMARK    2  A    between atoms: C_4  and  C_5 
REMARK    3  A    between atoms: C_5  and  C_9 
REMARK       I    between atoms: C_9  and  N_11 
REMARK    4  A    between atoms: N_11  and  C_12 
REMARK    5  A    between atoms: C_12  and  C_13 
REMARK    6  A    between atoms: C_13  and  C_14 
REMARK    7  A    between atoms: N_20  and  C_21 
ROOT
HETATM    1  C   UNL     1     -42.186 -51.495  12.240  1.00  0.00     0.226 C 
HETATM    2  O   UNL     1     -41.226 -52.118  11.782  1.00  0.00    -0.273 OA
HETATM    3  N   UNL     1     -42.295 -50.133  12.039  1.00  0.00    -0.360 N 
HETATM    4  H   UNL     1     -43.110 -49.630  12.379  1.00  0.00     0.162 HD
ENDROOT
BRANCH   3   5
HETATM    5  C   UNL     1     -41.384 -49.405  11.168  1.00  0.00     0.130 C 
BRANCH   5   6
HETATM    6  C   UNL     1     -40.236 -48.768  11.956  1.00  0.00     0.098 C 
BRANCH   6   7
HETATM    7  C   UNL     1     -38.998 -49.599  11.886  1.00  0.00     0.101 A 
HETATM    8  N   UNL     1     -38.342 -49.923  10.787  1.00  0.00    -0.288 N 
HETATM    9  N   UNL     1     -37.282 -50.725  11.131  1.00  0.00    -0.295 N 
ATOM     10  HN  UNL     1     -38.582 -49.627   9.841  1.00  0.00     0.188 HD
HETATM   11  C   UNL     1     -37.301 -50.867  12.436  1.00  0.00     0.201 A 
ATOM     12  HN  UNL     1     -36.604 -51.135  10.489  1.00  0.00     0.187 HD
HETATM   13  N   UNL     1     -38.355 -50.178  12.952  1.00  0.00    -0.326 N 
BRANCH  13  14
HETATM   14  C   UNL     1     -38.725 -50.093  14.345  1.00  0.00     0.092 A 
HETATM   15  C   UNL     1     -38.252 -51.105  15.374  1.00  0.00     0.028 A 
HETATM   16  C   UNL     1     -39.685 -51.093  14.968  1.00  0.00     0.028 A 
ENDBRANCH  13  14
ENDBRANCH   6   7
ENDBRANCH   5   6
ENDBRANCH   3   5
BRANCH   1  17
HETATM   17  C   UNL     1     -43.372 -52.140  13.077  1.00  0.00     0.041 C 
HETATM   18  C   UNL     1     -43.750 -53.602  12.661  1.00  0.00     0.019 C 
HETATM   19  C   UNL     1     -42.851 -54.133  13.787  1.00  0.00     0.002 C 
HETATM   20  C   UNL     1     -42.938 -52.757  14.460  1.00  0.00     0.019 C 
BRANCH  17  21
HETATM   21  C   UNL     1     -44.594 -51.203  13.250  1.00  0.00     0.023 C 
BRANCH  21  22
HETATM   22  C   UNL     1     -45.979 -51.885  13.295  1.00  0.00    -0.021 C 
HETATM   23  C   UNL     1     -46.738 -51.398  14.540  1.00  0.00     0.009 C 
HETATM   24  C   UNL     1     -46.854 -51.624  12.072  1.00  0.00     0.009 C 
ENDBRANCH  21  22
ENDBRANCH  17  21
ENDBRANCH   1  17
TORSDOF 7
ENDMDL
MODEL 5
REMARK VINA RESULT:      -5.8      2.940      4.951
REMARK  7 active torsions:
REMARK  status: ('A' for Active; 'I' for Inactive)
REMARK    1  A    between atoms: C_2  and  C_4 
REMARK    2  A    between atoms: C_4  and  C_5 
REMARK    3  A    between atoms: C_5  and  C_9 
REMARK       I    between atoms: C_9  and  N_11 
REMARK    4  A    between atoms: N_11  and  C_12 
REMARK    5  A    between atoms: C_12  and  C_13 
REMARK    6  A    between atoms: C_13  and  C_14 
REMARK    7  A    between atoms: N_20  and  C_21 
ROOT
HETATM    1  C   UNL     1     -41.960 -51.422  13.078  1.00  0.00     0.226 C 
HETATM    2  O   UNL     1     -40.944 -51.488  13.772  1.00  0.00    -0.273 OA
HETATM    3  N   UNL     1     -41.962 -50.687  11.909  1.00  0.00    -0.360 N 
HETATM    4  H   UNL     1     -42.787 -50.671  11.317  1.00  0.00     0.162 HD
ENDROOT
BRANCH   3   5
HETATM    5  C   UNL     1     -40.749 -50.091  11.370  1.00  0.00     0.130 C 
BRANCH   5   6
HETATM    6  C   UNL     1     -40.676 -48.590  11.665  1.00  0.00     0.098 C 
BRANCH   6   7
HETATM    7  C   UNL     1     -41.494 -47.802  10.696  1.00  0.00     0.101 A 
HETATM    8  N   UNL     1     -42.018 -48.256   9.574  1.00  0.00    -0.288 N 
HETATM    9  N   UNL     1     -42.665 -47.222   8.944  1.00  0.00    -0.295 N 
ATOM     10  HN  UNL     1     -41.953 -49.215   9.231  1.00  0.00     0.188 HD
HETATM   11  C   UNL     1     -42.536 -46.157   9.700  1.00  0.00     0.201 A 
ATOM     12  HN  UNL     1     -43.157 -47.273   8.052  1.00  0.00     0.187 HD
HETATM   13  N   UNL     1     -41.813 -46.471  10.808  1.00  0.00    -0.326 N 
BRANCH  13  14
HETATM   14  C   UNL     1     -41.445 -45.572  11.876  1.00  0.00     0.092 A 
HETATM   15  C   UNL     1     -41.355 -44.069  11.678  1.00  0.00     0.028 A 
HETATM   16  C   UNL     1     -40.105 -44.855  11.877  1.00  0.00     0.028 A 
ENDBRANCH  13  14
ENDBRANCH   6   7
ENDBRANCH   5   6
ENDBRANCH   3   5
BRANCH   1  17
HETATM   17  C   UNL     1     -43.338 -52.140  13.413  1.00  0.00     0.041 C 
HETATM   18  C   UNL     1     -43.573 -53.493  12.661  1.00  0.00     0.019 C 
HETATM   19  C   UNL     1     -43.041 -54.245  13.889  1.00  0.00     0.002 C 
HETATM   20  C   UNL     1     -43.325 -52.997  14.735  1.00  0.00     0.019 C 
BRANCH  17  21
HETATM   21  C   UNL     1     -44.559 -51.187  13.384  1.00  0.00     0.023 C 
BRANCH  21  22
HETATM   22  C   UNL     1     -45.951 -51.858  13.392  1.00  0.00    -0.021 C 
HETATM   23  C   UNL     1     -46.742 -51.358  14.612  1.00  0.00     0.009 C 
HETATM   24  C   UNL     1     -46.788 -51.598  12.143  1.00  0.00     0.009 C 
ENDBRANCH  21  22
ENDBRANCH  17  21
ENDBRANCH   1  17
TORSDOF 7
ENDMDL
MODEL 6
REMARK VINA RESULT:      -5.6      1.954      3.586
REMARK  7 active torsions:
REMARK  status: ('A' for Active; 'I' for Inactive)
REMARK    1  A    between atoms: C_2  and  C_4 
REMARK    2  A    between atoms: C_4  and  C_5 
REMARK    3  A    between atoms: C_5  and  C_9 
REMARK       I    between atoms: C_9  and  N_11 
REMARK    4  A    between atoms: N_11  and  C_12 
REMARK    5  A    between atoms: C_12  and  C_13 
REMARK    6  A    between atoms: C_13  and  C_14 
REMARK    7  A    between atoms: N_20  and  C_21 
ROOT
HETATM    1  C   UNL     1     -43.241 -54.562  15.100  1.00  0.00     0.226 C 
HETATM    2  O   UNL     1     -43.346 -55.743  15.438  1.00  0.00    -0.273 OA
HETATM    3  N   UNL     1     -42.003 -53.952  15.066  1.00  0.00    -0.360 N 
HETATM    4  H   UNL     1     -41.915 -52.992  14.744  1.00  0.00     0.162 HD
ENDROOT
BRANCH   3   5
HETATM    5  C   UNL     1     -40.769 -54.695  15.275  1.00  0.00     0.130 C 
BRANCH   5   6
HETATM    6  C   UNL     1     -39.728 -54.376  14.198  1.00  0.00     0.098 C 
BRANCH   6   7
HETATM    7  C   UNL     1     -40.288 -53.483  13.142  1.00  0.00     0.101 A 
HETATM    8  N   UNL     1     -40.914 -53.873  12.048  1.00  0.00    -0.288 N 
HETATM    9  N   UNL     1     -41.243 -52.761  11.312  1.00  0.00    -0.295 N 
ATOM     10  HN  UNL     1     -41.118 -54.838  11.790  1.00  0.00     0.188 HD
HETATM   11  C   UNL     1     -40.824 -51.710  11.978  1.00  0.00     0.201 A 
ATOM     12  HN  UNL     1     -41.726 -52.754  10.414  1.00  0.00     0.187 HD
HETATM   13  N   UNL     1     -40.223 -52.112  13.130  1.00  0.00    -0.326 N 
BRANCH  13  14
HETATM   14  C   UNL     1     -39.623 -51.258  14.127  1.00  0.00     0.092 A 
HETATM   15  C   UNL     1     -39.175 -49.839  13.820  1.00  0.00     0.028 A 
HETATM   16  C   UNL     1     -38.149 -50.890  14.069  1.00  0.00     0.028 A 
ENDBRANCH  13  14
ENDBRANCH   6   7
ENDBRANCH   5   6
ENDBRANCH   3   5
BRANCH   1  17
HETATM   17  C   UNL     1     -44.455 -53.629  14.675  1.00  0.00     0.041 C 
HETATM   18  C   UNL     1     -44.110 -52.562  13.581  1.00  0.00     0.019 C 
HETATM   19  C   UNL     1     -44.650 -53.518  12.508  1.00  0.00     0.002 C 
HETATM   20  C   UNL     1     -45.424 -54.260  13.605  1.00  0.00     0.019 C 
BRANCH  17  21
HETATM   21  C   UNL     1     -45.252 -53.059  15.875  1.00  0.00     0.023 C 
BRANCH  21  22
HETATM   22  C   UNL     1     -45.721 -51.593  15.752  1.00  0.00    -0.021 C 
HETATM   23  C   UNL     1     -47.243 -51.568  15.542  1.00  0.00     0.009 C 
HETATM   24  C   UNL     1     -45.393 -50.718  16.959  1.00  0.00     0.009 C 
ENDBRANCH  21  22
ENDBRANCH  17  21
ENDBRANCH   1  17
TORSDOF 7
ENDMDL
MODEL 7
REMARK VINA RESULT:      -5.6      2.190      3.569
REMARK  7 active torsions:
REMARK  status: ('A' for Active; 'I' for Inactive)
REMARK    1  A    between atoms: C_2  and  C_4 
REMARK    2  A    between atoms: C_4  and  C_5 
REMARK    3  A    between atoms: C_5  and  C_9 
REMARK       I    between atoms: C_9  and  N_11 
REMARK    4  A    between atoms: N_11  and  C_12 
REMARK    5  A    between atoms: C_12  and  C_13 
REMARK    6  A    between atoms: C_13  and  C_14 
REMARK    7  A    between atoms: N_20  and  C_21 
ROOT
HETATM    1  C   UNL     1     -42.400 -51.540  13.518  1.00  0.00     0.226 C 
HETATM    2  O   UNL     1     -42.064 -51.026  14.587  1.00  0.00    -0.273 OA
HETATM    3  N   UNL     1     -42.886 -50.759  12.489  1.00  0.00    -0.360 N 
HETATM    4  H   UNL     1     -43.120 -51.180  11.594  1.00  0.00     0.162 HD
ENDROOT
BRANCH   3   5
HETATM    5  C   UNL     1     -42.885 -49.305  12.556  1.00  0.00     0.130 C 
BRANCH   5   6
HETATM    6  C   UNL     1     -42.169 -48.684  11.353  1.00  0.00     0.098 C 
BRANCH   6   7
HETATM    7  C   UNL     1     -40.732 -49.084  11.305  1.00  0.00     0.101 A 
HETATM    8  N   UNL     1     -40.216 -50.034  10.548  1.00  0.00    -0.288 N 
HETATM    9  N   UNL     1     -38.873 -50.126  10.816  1.00  0.00    -0.295 N 
ATOM     10  HN  UNL     1     -40.729 -50.604   9.876  1.00  0.00     0.188 HD
HETATM   11  C   UNL     1     -38.589 -49.221  11.724  1.00  0.00     0.201 A 
ATOM     12  HN  UNL     1     -38.216 -50.778  10.387  1.00  0.00     0.187 HD
HETATM   13  N   UNL     1     -39.720 -48.544  12.059  1.00  0.00    -0.326 N 
BRANCH  13  14
HETATM   14  C   UNL     1     -39.827 -47.479  13.028  1.00  0.00     0.092 A 
HETATM   15  C   UNL     1     -38.745 -47.208  14.060  1.00  0.00     0.028 A 
HETATM   16  C   UNL     1     -40.050 -47.774  14.502  1.00  0.00     0.028 A 
ENDBRANCH  13  14
ENDBRANCH   6   7
ENDBRANCH   5   6
ENDBRANCH   3   5
BRANCH   1  17
HETATM   17  C   UNL     1     -42.319 -53.093  13.192  1.00  0.00     0.041 C 
HETATM   18  C   UNL     1     -41.025 -53.538  12.430  1.00  0.00     0.019 C 
HETATM   19  C   UNL     1     -40.392 -53.928  13.773  1.00  0.00     0.002 C 
HETATM   20  C   UNL     1     -41.799 -53.987  14.382  1.00  0.00     0.019 C 
BRANCH  17  21
HETATM   21  C   UNL     1     -43.626 -53.673  12.596  1.00  0.00     0.023 C 
BRANCH  21  22
HETATM   22  C   UNL     1     -44.853 -53.701  13.534  1.00  0.00    -0.021 C 
HETATM   23  C   UNL     1     -45.963 -52.824  12.935  1.00  0.00     0.009 C 
HETATM   24  C   UNL     1     -45.428 -55.092  13.785  1.00  0.00     0.009 C 
ENDBRANCH  21  22
ENDBRANCH  17  21
ENDBRANCH   1  17
TORSDOF 7
ENDMDL
MODEL 8
REMARK VINA RESULT:      -5.5      2.104      3.622
REMARK  7 active torsions:
REMARK  status: ('A' for Active; 'I' for Inactive)
REMARK    1  A    between atoms: C_2  and  C_4 
REMARK    2  A    between atoms: C_4  and  C_5 
REMARK    3  A    between atoms: C_5  and  C_9 
REMARK       I    between atoms: C_9  and  N_11 
REMARK    4  A    between atoms: N_11  and  C_12 
REMARK    5  A    between atoms: C_12  and  C_13 
REMARK    6  A    between atoms: C_13  and  C_14 
REMARK    7  A    between atoms: N_20  and  C_21 
ROOT
HETATM    1  C   UNL     1     -45.340 -53.658  14.956  1.00  0.00     0.226 C 
HETATM    2  O   UNL     1     -45.940 -54.732  15.042  1.00  0.00    -0.273 OA
HETATM    3  N   UNL     1     -43.960 -53.625  14.971  1.00  0.00    -0.360 N 
HETATM    4  H   UNL     1     -43.469 -52.743  14.855  1.00  0.00     0.162 HD
ENDROOT
BRANCH   3   5
HETATM    5  C   UNL     1     -43.158 -54.838  14.935  1.00  0.00     0.130 C 
BRANCH   5   6
HETATM    6  C   UNL     1     -41.663 -54.525  14.817  1.00  0.00     0.098 C 
BRANCH   6   7
HETATM    7  C   UNL     1     -41.360 -53.766  13.568  1.00  0.00     0.101 A 
HETATM    8  N   UNL     1     -41.165 -54.287  12.371  1.00  0.00    -0.288 N 
HETATM    9  N   UNL     1     -40.876 -53.271  11.494  1.00  0.00    -0.295 N 
ATOM     10  HN  UNL     1     -41.220 -55.278  12.137  1.00  0.00     0.188 HD
HETATM   11  C   UNL     1     -40.913 -52.145  12.169  1.00  0.00     0.201 A 
ATOM     12  HN  UNL     1     -40.671 -53.373  10.500  1.00  0.00     0.187 HD
HETATM   13  N   UNL     1     -41.214 -52.404  13.469  1.00  0.00    -0.326 N 
BRANCH  13  14
HETATM   14  C   UNL     1     -41.337 -51.434  14.531  1.00  0.00     0.092 A 
HETATM   15  C   UNL     1     -40.723 -50.047  14.440  1.00  0.00     0.028 A 
HETATM   16  C   UNL     1     -40.142 -51.043  15.384  1.00  0.00     0.028 A 
ENDBRANCH  13  14
ENDBRANCH   6   7
ENDBRANCH   5   6
ENDBRANCH   3   5
BRANCH   1  17
HETATM   17  C   UNL     1     -46.038 -52.237  14.820  1.00  0.00     0.041 C 
HETATM   18  C   UNL     1     -45.053 -51.019  14.818  1.00  0.00     0.019 C 
HETATM   19  C   UNL     1     -45.081 -51.026  13.283  1.00  0.00     0.002 C 
HETATM   20  C   UNL     1     -46.392 -51.820  13.343  1.00  0.00     0.019 C 
BRANCH  17  21
HETATM   21  C   UNL     1     -47.260 -52.052  15.754  1.00  0.00     0.023 C 
BRANCH  21  22
HETATM   22  C   UNL     1     -46.966 -51.494  17.165  1.00  0.00    -0.021 C 
HETATM   23  C   UNL     1     -48.103 -50.546  17.577  1.00  0.00     0.009 C 
HETATM   24  C   UNL     1     -46.816 -52.558  18.249  1.00  0.00     0.009 C 
ENDBRANCH  21  22
ENDBRANCH  17  21
ENDBRANCH   1  17
TORSDOF 7
ENDMDL
MODEL 9
REMARK VINA RESULT:      -5.5      2.115      3.749
REMARK  7 active torsions:
REMARK  status: ('A' for Active; 'I' for Inactive)
REMARK    1  A    between atoms: C_2  and  C_4 
REMARK    2  A    between atoms: C_4  and  C_5 
REMARK    3  A    between atoms: C_5  and  C_9 
REMARK       I    between atoms: C_9  and  N_11 
REMARK    4  A    between atoms: N_11  and  C_12 
REMARK    5  A    between atoms: C_12  and  C_13 
REMARK    6  A    between atoms: C_13  and  C_14 
REMARK    7  A    between atoms: N_20  and  C_21 
ROOT
HETATM    1  C   UNL     1     -42.046 -51.619  14.235  1.00  0.00     0.226 C 
HETATM    2  O   UNL     1     -41.861 -50.886  15.209  1.00  0.00    -0.273 OA
HETATM    3  N   UNL     1     -41.022 -51.867  13.343  1.00  0.00    -0.360 N 
HETATM    4  H   UNL     1     -41.164 -52.507  12.567  1.00  0.00     0.162 HD
ENDROOT
BRANCH   3   5
HETATM    5  C   UNL     1     -39.661 -51.411  13.583  1.00  0.00     0.130 C 
BRANCH   5   6
HETATM    6  C   UNL     1     -39.034 -50.813  12.320  1.00  0.00     0.098 C 
BRANCH   6   7
HETATM    7  C   UNL     1     -39.966 -49.862  11.644  1.00  0.00     0.101 A 
HETATM    8  N   UNL     1     -40.497 -50.016  10.446  1.00  0.00    -0.288 N 
HETATM    9  N   UNL     1     -41.266 -48.914  10.164  1.00  0.00    -0.295 N 
ATOM     10  HN  UNL     1     -40.359 -50.818   9.832  1.00  0.00     0.188 HD
HETATM   11  C   UNL     1     -41.201 -48.112  11.202  1.00  0.00     0.201 A 
ATOM     12  HN  UNL     1     -41.791 -48.750   9.306  1.00  0.00     0.187 HD
HETATM   13  N   UNL     1     -40.401 -48.664  12.153  1.00  0.00    -0.326 N 
BRANCH  13  14
HETATM   14  C   UNL     1     -40.069 -48.088  13.435  1.00  0.00     0.092 A 
HETATM   15  C   UNL     1     -39.950 -46.588  13.645  1.00  0.00     0.028 A 
HETATM   16  C   UNL     1     -38.722 -47.430  13.679  1.00  0.00     0.028 A 
ENDBRANCH  13  14
ENDBRANCH   6   7
ENDBRANCH   5   6
ENDBRANCH   3   5
BRANCH   1  17
HETATM   17  C   UNL     1     -43.417 -52.345  13.893  1.00  0.00     0.041 C 
HETATM   18  C   UNL     1     -43.287 -53.576  12.933  1.00  0.00     0.019 C 
HETATM   19  C   UNL     1     -43.262 -54.501  14.157  1.00  0.00     0.002 C 
HETATM   20  C   UNL     1     -43.902 -53.376  14.980  1.00  0.00     0.019 C 
BRANCH  17  21
HETATM   21  C   UNL     1     -44.558 -51.370  13.508  1.00  0.00     0.023 C 
BRANCH  21  22
HETATM   22  C   UNL     1     -45.981 -51.968  13.456  1.00  0.00    -0.021 C 
HETATM   23  C   UNL     1     -46.823 -51.361  14.590  1.00  0.00     0.009 C 
HETATM   24  C   UNL     1     -46.719 -51.736  12.140  1.00  0.00     0.009 C 
ENDBRANCH  21  22
ENDBRANCH  17  21
ENDBRANCH   1  17
TORSDOF 7
ENDMDL
