MODEL 1
REMARK VINA RESULT:      -6.0      0.000      0.000
REMARK  7 active torsions:
REMARK  status: ('A' for Active; 'I' for Inactive)
REMARK    1  A    between atoms: O_2  and  C_3 
REMARK    2  A    between atoms: C_3  and  C_4 
REMARK    3  A    between atoms: C_4  and  N_6 
REMARK       I    between atoms: N_6  and  C_7 
REMARK    4  A    between atoms: C_7  and  C_9 
REMARK    5  A    between atoms: C_9  and  N_10 
REMARK    6  A    between atoms: C_11  and  C_20 
REMARK    7  A    between atoms: C_14  and  C_15 
REMARK       I    between atoms: C_15  and  N_17 
ROOT
HETATM    1  N   UNL     1     -41.814 -53.610  13.255  1.00  0.00    -0.300 N 
HETATM    2  C   UNL     1     -41.231 -54.300  14.339  1.00  0.00     0.122 C 
HETATM    3  C   UNL     1     -42.043 -54.972  15.180  1.00  0.00     0.036 C 
HETATM    4  C   UNL     1     -43.471 -54.974  15.016  1.00  0.00     0.025 C 
HETATM    5  C   UNL     1     -44.057 -54.383  13.963  1.00  0.00     0.100 C 
HETATM    6  C   UNL     1     -43.184 -53.703  12.960  1.00  0.00     0.264 C 
HETATM    7  O   UNL     1     -43.671 -53.222  11.933  1.00  0.00    -0.267 OA
ENDROOT
BRANCH   1   8
HETATM    8  C   UNL     1     -41.032 -52.803  12.319  1.00  0.00     0.235 C 
BRANCH   8   9
HETATM    9  C   UNL     1     -41.122 -51.309  12.652  1.00  0.00     0.236 C 
HETATM   10  N   UNL     1     -41.759 -50.549  11.691  1.00  0.00    -0.353 N 
HETATM   11  H   UNL     1     -41.807 -50.923  10.750  1.00  0.00     0.163 HD
HETATM   12  O   UNL     1     -40.667 -50.834  13.690  1.00  0.00    -0.272 OA
BRANCH  10  13
HETATM   13  C   UNL     1     -41.956 -49.110  11.859  1.00  0.00     0.104 C 
HETATM   14  C   UNL     1     -43.289 -48.857  12.563  1.00  0.00     0.034 C 
BRANCH  13  15
HETATM   15  C   UNL     1     -41.875 -48.348  10.521  1.00  0.00     0.191 C 
BRANCH  15  16
HETATM   16  O   UNL     1     -43.167 -47.833  10.186  1.00  0.00    -0.394 OA
HETATM   17  C   UNL     1     -43.281 -47.543   8.799  1.00  0.00     0.201 C 
ENDBRANCH  15  16
ENDBRANCH  13  15
ENDBRANCH  10  13
ENDBRANCH   8   9
ENDBRANCH   1   8
BRANCH   2  18
HETATM   18  C   UNL     1     -39.732 -54.342  14.628  1.00  0.00     0.432 C 
HETATM   19  F   UNL     1     -39.154 -53.151  14.904  1.00  0.00    -0.165 F 
HETATM   20  F   UNL     1     -39.484 -55.135  15.708  1.00  0.00    -0.165 F 
HETATM   21  F   UNL     1     -39.042 -54.888  13.593  1.00  0.00    -0.165 F 
ENDBRANCH   2  18
BRANCH   5  22
HETATM   22  C   UNL     1     -45.545 -54.421  13.891  1.00  0.00     0.254 C 
HETATM   23  O   UNL     1     -46.208 -55.379  14.278  1.00  0.00    -0.268 OA
HETATM   24  N   UNL     1     -46.156 -53.324  13.376  1.00  0.00    -0.366 N 
HETATM   25  H   UNL     1     -45.630 -52.522  13.038  1.00  0.00     0.159 HD
HETATM   26  H   UNL     1     -47.165 -53.311  13.319  1.00  0.00     0.159 HD
ENDBRANCH   5  22
TORSDOF 7
ENDMDL
MODEL 2
REMARK VINA RESULT:      -5.9      0.773      1.329
REMARK  7 active torsions:
REMARK  status: ('A' for Active; 'I' for Inactive)
REMARK    1  A    between atoms: O_2  and  C_3 
REMARK    2  A    between atoms: C_3  and  C_4 
REMARK    3  A    between atoms: C_4  and  N_6 
REMARK       I    between atoms: N_6  and  C_7 
REMARK    4  A    between atoms: C_7  and  C_9 
REMARK    5  A    between atoms: C_9  and  N_10 
REMARK    6  A    between atoms: C_11  and  C_20 
REMARK    7  A    between atoms: C_14  and  C_15 
REMARK       I    between atoms: C_15  and  N_17 
ROOT
HETATM    1  N   UNL     1     -41.852 -53.672  13.259  1.00  0.00    -0.300 N 
HETATM    2  C   UNL     1     -41.283 -54.350  14.359  1.00  0.00     0.122 C 
HETATM    3  C   UNL     1     -42.110 -54.958  15.232  1.00  0.00     0.036 C 
HETATM    4  C   UNL     1     -43.539 -54.904  15.087  1.00  0.00     0.025 C 
HETATM    5  C   UNL     1     -44.115 -54.323  14.023  1.00  0.00     0.100 C 
HETATM    6  C   UNL     1     -43.228 -53.716  12.986  1.00  0.00     0.264 C 
HETATM    7  O   UNL     1     -43.709 -53.250  11.949  1.00  0.00    -0.267 OA
ENDROOT
BRANCH   1   8
HETATM    8  C   UNL     1     -41.049 -52.931  12.286  1.00  0.00     0.235 C 
BRANCH   8   9
HETATM    9  C   UNL     1     -41.022 -51.432  12.604  1.00  0.00     0.236 C 
HETATM   10  N   UNL     1     -41.793 -50.657  11.759  1.00  0.00    -0.353 N 
HETATM   11  H   UNL     1     -42.022 -51.038  10.848  1.00  0.00     0.163 HD
HETATM   12  O   UNL     1     -40.371 -50.965  13.535  1.00  0.00    -0.272 OA
BRANCH  10  13
HETATM   13  C   UNL     1     -41.902 -49.209  11.934  1.00  0.00     0.104 C 
HETATM   14  C   UNL     1     -43.266 -48.871  12.535  1.00  0.00     0.034 C 
BRANCH  13  15
HETATM   15  C   UNL     1     -41.662 -48.441  10.620  1.00  0.00     0.191 C 
BRANCH  15  16
HETATM   16  O   UNL     1     -40.804 -47.323  10.869  1.00  0.00    -0.394 OA
HETATM   17  C   UNL     1     -39.746 -47.652  11.758  1.00  0.00     0.201 C 
ENDBRANCH  15  16
ENDBRANCH  13  15
ENDBRANCH  10  13
ENDBRANCH   8   9
ENDBRANCH   1   8
BRANCH   2  18
HETATM   18  C   UNL     1     -39.783 -54.446  14.629  1.00  0.00     0.432 C 
HETATM   19  F   UNL     1     -39.010 -54.724  13.555  1.00  0.00    -0.165 F 
HETATM   20  F   UNL     1     -39.318 -53.267  15.128  1.00  0.00    -0.165 F 
HETATM   21  F   UNL     1     -39.507 -55.388  15.570  1.00  0.00    -0.165 F 
ENDBRANCH   2  18
BRANCH   5  22
HETATM   22  C   UNL     1     -45.604 -54.300  13.971  1.00  0.00     0.254 C 
HETATM   23  O   UNL     1     -46.304 -55.146  14.520  1.00  0.00    -0.268 OA
HETATM   24  N   UNL     1     -46.172 -53.276  13.284  1.00  0.00    -0.366 N 
HETATM   25  H   UNL     1     -45.615 -52.570  12.811  1.00  0.00     0.159 HD
HETATM   26  H   UNL     1     -47.180 -53.224  13.235  1.00  0.00     0.159 HD
ENDBRANCH   5  22
TORSDOF 7
ENDMDL
MODEL 3
REMARK VINA RESULT:      -5.6      3.368      6.697
REMARK  7 active torsions:
REMARK  status: ('A' for Active; 'I' for Inactive)
REMARK    1  A    between atoms: O_2  and  C_3 
REMARK    2  A    between atoms: C_3  and  C_4 
REMARK    3  A    between atoms: C_4  and  N_6 
REMARK       I    between atoms: N_6  and  C_7 
REMARK    4  A    between atoms: C_7  and  C_9 
REMARK    5  A    between atoms: C_9  and  N_10 
REMARK    6  A    between atoms: C_11  and  C_20 
REMARK    7  A    between atoms: C_14  and  C_15 
REMARK       I    between atoms: C_15  and  N_17 
ROOT
HETATM    1  N   UNL     1     -43.303 -52.515  12.910  1.00  0.00    -0.300 N 
HETATM    2  C   UNL     1     -44.295 -51.649  13.417  1.00  0.00     0.122 C 
HETATM    3  C   UNL     1     -44.071 -50.321  13.366  1.00  0.00     0.036 C 
HETATM    4  C   UNL     1     -42.847 -49.778  12.843  1.00  0.00     0.025 C 
HETATM    5  C   UNL     1     -41.908 -50.565  12.295  1.00  0.00     0.100 C 
HETATM    6  C   UNL     1     -42.159 -52.037  12.251  1.00  0.00     0.264 C 
HETATM    7  O   UNL     1     -41.365 -52.789  11.680  1.00  0.00    -0.267 OA
ENDROOT
BRANCH   1   8
HETATM    8  C   UNL     1     -43.420 -53.972  12.970  1.00  0.00     0.235 C 
BRANCH   8   9
HETATM    9  C   UNL     1     -42.832 -54.532  14.270  1.00  0.00     0.236 C 
HETATM   10  N   UNL     1     -41.506 -54.207  14.480  1.00  0.00    -0.353 N 
HETATM   11  H   UNL     1     -40.950 -53.948  13.673  1.00  0.00     0.163 HD
HETATM   12  O   UNL     1     -43.490 -55.207  15.057  1.00  0.00    -0.272 OA
BRANCH  10  13
HETATM   13  C   UNL     1     -40.794 -54.636  15.683  1.00  0.00     0.104 C 
HETATM   14  C   UNL     1     -40.840 -53.520  16.727  1.00  0.00     0.034 C 
BRANCH  13  15
HETATM   15  C   UNL     1     -39.344 -55.065  15.384  1.00  0.00     0.191 C 
BRANCH  15  16
HETATM   16  O   UNL     1     -39.053 -56.283  16.076  1.00  0.00    -0.394 OA
HETATM   17  C   UNL     1     -38.004 -56.121  17.020  1.00  0.00     0.201 C 
ENDBRANCH  15  16
ENDBRANCH  13  15
ENDBRANCH  10  13
ENDBRANCH   8   9
ENDBRANCH   1   8
BRANCH   2  18
HETATM   18  C   UNL     1     -45.618 -52.114  14.021  1.00  0.00     0.432 C 
HETATM   19  F   UNL     1     -45.525 -52.788  15.190  1.00  0.00    -0.165 F 
HETATM   20  F   UNL     1     -46.422 -51.044  14.272  1.00  0.00    -0.165 F 
HETATM   21  F   UNL     1     -46.306 -52.909  13.160  1.00  0.00    -0.165 F 
ENDBRANCH   2  18
BRANCH   5  22
HETATM   22  C   UNL     1     -40.664 -49.912  11.799  1.00  0.00     0.254 C 
HETATM   23  O   UNL     1     -39.902 -49.284  12.530  1.00  0.00    -0.268 OA
HETATM   24  N   UNL     1     -40.393 -50.048  10.476  1.00  0.00    -0.366 N 
HETATM   25  H   UNL     1     -41.013 -50.552   9.847  1.00  0.00     0.159 HD
HETATM   26  H   UNL     1     -39.553 -49.625  10.105  1.00  0.00     0.159 HD
ENDBRANCH   5  22
TORSDOF 7
ENDMDL
MODEL 4
REMARK VINA RESULT:      -5.3      3.037      4.373
REMARK  7 active torsions:
REMARK  status: ('A' for Active; 'I' for Inactive)
REMARK    1  A    between atoms: O_2  and  C_3 
REMARK    2  A    between atoms: C_3  and  C_4 
REMARK    3  A    between atoms: C_4  and  N_6 
REMARK       I    between atoms: N_6  and  C_7 
REMARK    4  A    between atoms: C_7  and  C_9 
REMARK    5  A    between atoms: C_9  and  N_10 
REMARK    6  A    between atoms: C_11  and  C_20 
REMARK    7  A    between atoms: C_14  and  C_15 
REMARK       I    between atoms: C_15  and  N_17 
ROOT
HETATM    1  N   UNL     1     -41.697 -53.311  13.146  1.00  0.00    -0.300 N 
HETATM    2  C   UNL     1     -42.870 -53.907  13.655  1.00  0.00     0.122 C 
HETATM    3  C   UNL     1     -42.762 -54.716  14.728  1.00  0.00     0.036 C 
HETATM    4  C   UNL     1     -41.491 -55.005  15.334  1.00  0.00     0.025 C 
HETATM    5  C   UNL     1     -40.363 -54.409  14.918  1.00  0.00     0.100 C 
HETATM    6  C   UNL     1     -40.454 -53.436  13.789  1.00  0.00     0.264 C 
HETATM    7  O   UNL     1     -39.460 -52.800  13.431  1.00  0.00    -0.267 OA
ENDROOT
BRANCH   1   8
HETATM    8  C   UNL     1     -41.694 -52.464  11.952  1.00  0.00     0.235 C 
BRANCH   8   9
HETATM    9  C   UNL     1     -41.918 -50.990  12.307  1.00  0.00     0.236 C 
HETATM   10  N   UNL     1     -41.469 -50.100  11.350  1.00  0.00    -0.353 N 
HETATM   11  H   UNL     1     -40.764 -50.425  10.699  1.00  0.00     0.163 HD
HETATM   12  O   UNL     1     -42.455 -50.636  13.353  1.00  0.00    -0.272 OA
BRANCH  10  13
HETATM   13  C   UNL     1     -41.626 -48.656  11.514  1.00  0.00     0.104 C 
HETATM   14  C   UNL     1     -42.066 -48.037  10.187  1.00  0.00     0.034 C 
BRANCH  13  15
HETATM   15  C   UNL     1     -40.345 -47.985  12.048  1.00  0.00     0.191 C 
BRANCH  15  16
HETATM   16  O   UNL     1     -39.212 -48.798  11.729  1.00  0.00    -0.394 OA
HETATM   17  C   UNL     1     -38.347 -48.966  12.844  1.00  0.00     0.201 C 
ENDBRANCH  15  16
ENDBRANCH  13  15
ENDBRANCH  10  13
ENDBRANCH   8   9
ENDBRANCH   1   8
BRANCH   2  18
HETATM   18  C   UNL     1     -44.266 -53.696  13.074  1.00  0.00     0.432 C 
HETATM   19  F   UNL     1     -44.314 -53.399  11.755  1.00  0.00    -0.165 F 
HETATM   20  F   UNL     1     -45.015 -54.823  13.229  1.00  0.00    -0.165 F 
HETATM   21  F   UNL     1     -44.932 -52.708  13.726  1.00  0.00    -0.165 F 
ENDBRANCH   2  18
BRANCH   5  22
HETATM   22  C   UNL     1     -39.091 -54.789  15.597  1.00  0.00     0.254 C 
HETATM   23  O   UNL     1     -38.569 -55.893  15.466  1.00  0.00    -0.268 OA
HETATM   24  N   UNL     1     -38.512 -53.841  16.377  1.00  0.00    -0.366 N 
HETATM   25  H   UNL     1     -38.931 -52.924  16.511  1.00  0.00     0.159 HD
HETATM   26  H   UNL     1     -37.645 -54.060  16.846  1.00  0.00     0.159 HD
ENDBRANCH   5  22
TORSDOF 7
ENDMDL
MODEL 5
REMARK VINA RESULT:      -5.3      2.299      5.248
REMARK  7 active torsions:
REMARK  status: ('A' for Active; 'I' for Inactive)
REMARK    1  A    between atoms: O_2  and  C_3 
REMARK    2  A    between atoms: C_3  and  C_4 
REMARK    3  A    between atoms: C_4  and  N_6 
REMARK       I    between atoms: N_6  and  C_7 
REMARK    4  A    between atoms: C_7  and  C_9 
REMARK    5  A    between atoms: C_9  and  N_10 
REMARK    6  A    between atoms: C_11  and  C_20 
REMARK    7  A    between atoms: C_14  and  C_15 
REMARK       I    between atoms: C_15  and  N_17 
ROOT
HETATM    1  N   UNL     1     -40.289 -52.964  13.475  1.00  0.00    -0.300 N 
HETATM    2  C   UNL     1     -39.434 -52.694  14.565  1.00  0.00     0.122 C 
HETATM    3  C   UNL     1     -38.842 -51.485  14.629  1.00  0.00     0.036 C 
HETATM    4  C   UNL     1     -39.035 -50.492  13.607  1.00  0.00     0.025 C 
HETATM    5  C   UNL     1     -39.887 -50.688  12.590  1.00  0.00     0.100 C 
HETATM    6  C   UNL     1     -40.632 -51.981  12.533  1.00  0.00     0.264 C 
HETATM    7  O   UNL     1     -41.489 -52.171  11.666  1.00  0.00    -0.267 OA
ENDROOT
BRANCH   1   8
HETATM    8  C   UNL     1     -40.934 -54.263  13.280  1.00  0.00     0.235 C 
BRANCH   8   9
HETATM    9  C   UNL     1     -42.251 -54.360  14.058  1.00  0.00     0.236 C 
HETATM   10  N   UNL     1     -43.323 -53.743  13.442  1.00  0.00    -0.353 N 
HETATM   11  H   UNL     1     -43.123 -53.024  12.756  1.00  0.00     0.163 HD
HETATM   12  O   UNL     1     -42.341 -54.941  15.136  1.00  0.00    -0.272 OA
BRANCH  10  13
HETATM   13  C   UNL     1     -44.660 -53.761  14.034  1.00  0.00     0.104 C 
HETATM   14  C   UNL     1     -45.353 -55.080  13.687  1.00  0.00     0.034 C 
BRANCH  13  15
HETATM   15  C   UNL     1     -45.510 -52.551  13.598  1.00  0.00     0.191 C 
BRANCH  15  16
HETATM   16  O   UNL     1     -45.610 -51.623  14.683  1.00  0.00    -0.394 OA
HETATM   17  C   UNL     1     -46.956 -51.435  15.099  1.00  0.00     0.201 C 
ENDBRANCH  15  16
ENDBRANCH  13  15
ENDBRANCH  10  13
ENDBRANCH   8   9
ENDBRANCH   1   8
BRANCH   2  18
HETATM   18  C   UNL     1     -39.133 -53.682  15.690  1.00  0.00     0.432 C 
HETATM   19  F   UNL     1     -38.795 -54.932  15.298  1.00  0.00    -0.165 F 
HETATM   20  F   UNL     1     -38.091 -53.234  16.443  1.00  0.00    -0.165 F 
HETATM   21  F   UNL     1     -40.187 -53.805  16.539  1.00  0.00    -0.165 F 
ENDBRANCH   2  18
BRANCH   5  22
HETATM   22  C   UNL     1     -40.004 -49.608  11.570  1.00  0.00     0.254 C 
HETATM   23  O   UNL     1     -39.791 -48.425  11.823  1.00  0.00    -0.268 OA
HETATM   24  N   UNL     1     -40.354 -49.992  10.316  1.00  0.00    -0.366 N 
HETATM   25  H   UNL     1     -40.548 -50.963  10.083  1.00  0.00     0.159 HD
HETATM   26  H   UNL     1     -40.435 -49.287   9.596  1.00  0.00     0.159 HD
ENDBRANCH   5  22
TORSDOF 7
ENDMDL
MODEL 6
REMARK VINA RESULT:      -5.2      2.648      3.565
REMARK  7 active torsions:
REMARK  status: ('A' for Active; 'I' for Inactive)
REMARK    1  A    between atoms: O_2  and  C_3 
REMARK    2  A    between atoms: C_3  and  C_4 
REMARK    3  A    between atoms: C_4  and  N_6 
REMARK       I    between atoms: N_6  and  C_7 
REMARK    4  A    between atoms: C_7  and  C_9 
REMARK    5  A    between atoms: C_9  and  N_10 
REMARK    6  A    between atoms: C_11  and  C_20 
REMARK    7  A    between atoms: C_14  and  C_15 
REMARK       I    between atoms: C_15  and  N_17 
ROOT
HETATM    1  N   UNL     1     -40.215 -51.262  12.293  1.00  0.00    -0.300 N 
HETATM    2  C   UNL     1     -38.990 -51.284  12.993  1.00  0.00     0.122 C 
HETATM    3  C   UNL     1     -38.891 -52.071  14.083  1.00  0.00     0.036 C 
HETATM    4  C   UNL     1     -40.001 -52.852  14.557  1.00  0.00     0.025 C 
HETATM    5  C   UNL     1     -41.160 -52.906  13.884  1.00  0.00     0.100 C 
HETATM    6  C   UNL     1     -41.279 -52.118  12.621  1.00  0.00     0.264 C 
HETATM    7  O   UNL     1     -42.293 -52.205  11.924  1.00  0.00    -0.267 OA
ENDROOT
BRANCH   1   8
HETATM    8  C   UNL     1     -40.448 -50.400  11.134  1.00  0.00     0.235 C 
BRANCH   8   9
HETATM    9  C   UNL     1     -41.183 -49.114  11.527  1.00  0.00     0.236 C 
HETATM   10  N   UNL     1     -42.017 -48.613  10.546  1.00  0.00    -0.353 N 
HETATM   11  H   UNL     1     -41.840 -48.893   9.589  1.00  0.00     0.163 HD
HETATM   12  O   UNL     1     -41.041 -48.581  12.624  1.00  0.00    -0.272 OA
BRANCH  10  13
HETATM   13  C   UNL     1     -42.814 -47.407  10.763  1.00  0.00     0.104 C 
HETATM   14  C   UNL     1     -44.223 -47.621  10.208  1.00  0.00     0.034 C 
BRANCH  13  15
HETATM   15  C   UNL     1     -42.157 -46.153  10.153  1.00  0.00     0.191 C 
BRANCH  15  16
HETATM   16  O   UNL     1     -41.239 -45.589  11.094  1.00  0.00    -0.394 OA
HETATM   17  C   UNL     1     -39.922 -45.502  10.567  1.00  0.00     0.201 C 
ENDBRANCH  15  16
ENDBRANCH  13  15
ENDBRANCH  10  13
ENDBRANCH   8   9
ENDBRANCH   1   8
BRANCH   2  18
HETATM   18  C   UNL     1     -37.757 -50.474  12.598  1.00  0.00     0.432 C 
HETATM   19  F   UNL     1     -37.907 -49.130  12.618  1.00  0.00    -0.165 F 
HETATM   20  F   UNL     1     -36.726 -50.746  13.446  1.00  0.00    -0.165 F 
HETATM   21  F   UNL     1     -37.321 -50.806  11.355  1.00  0.00    -0.165 F 
ENDBRANCH   2  18
BRANCH   5  22
HETATM   22  C   UNL     1     -42.258 -53.728  14.466  1.00  0.00     0.254 C 
HETATM   23  O   UNL     1     -42.094 -54.880  14.858  1.00  0.00    -0.268 OA
HETATM   24  N   UNL     1     -43.477 -53.136  14.558  1.00  0.00    -0.366 N 
HETATM   25  H   UNL     1     -43.641 -52.188  14.230  1.00  0.00     0.159 HD
HETATM   26  H   UNL     1     -44.244 -53.661  14.955  1.00  0.00     0.159 HD
ENDBRANCH   5  22
TORSDOF 7
ENDMDL
MODEL 7
REMARK VINA RESULT:      -5.2      3.098      7.161
REMARK  7 active torsions:
REMARK  status: ('A' for Active; 'I' for Inactive)
REMARK    1  A    between atoms: O_2  and  C_3 
REMARK    2  A    between atoms: C_3  and  C_4 
REMARK    3  A    between atoms: C_4  and  N_6 
REMARK       I    between atoms: N_6  and  C_7 
REMARK    4  A    between atoms: C_7  and  C_9 
REMARK    5  A    between atoms: C_9  and  N_10 
REMARK    6  A    between atoms: C_11  and  C_20 
REMARK    7  A    between atoms: C_14  and  C_15 
REMARK       I    between atoms: C_15  and  N_17 
ROOT
HETATM    1  N   UNL     1     -41.813 -47.955  12.277  1.00  0.00    -0.300 N 
HETATM    2  C   UNL     1     -40.582 -47.284  12.438  1.00  0.00     0.122 C 
HETATM    3  C   UNL     1     -40.253 -46.330  11.544  1.00  0.00     0.036 C 
HETATM    4  C   UNL     1     -41.102 -46.010  10.429  1.00  0.00     0.025 C 
HETATM    5  C   UNL     1     -42.307 -46.582  10.277  1.00  0.00     0.100 C 
HETATM    6  C   UNL     1     -42.747 -47.579  11.298  1.00  0.00     0.264 C 
HETATM    7  O   UNL     1     -43.880 -48.065  11.248  1.00  0.00    -0.267 OA
ENDROOT
BRANCH   1   8
HETATM    8  C   UNL     1     -42.240 -49.045  13.155  1.00  0.00     0.235 C 
BRANCH   8   9
HETATM    9  C   UNL     1     -41.915 -50.415  12.551  1.00  0.00     0.236 C 
HETATM   10  N   UNL     1     -42.701 -51.447  13.026  1.00  0.00    -0.353 N 
HETATM   11  H   UNL     1     -43.159 -51.318  13.921  1.00  0.00     0.163 HD
HETATM   12  O   UNL     1     -41.032 -50.576  11.712  1.00  0.00    -0.272 OA
BRANCH  10  13
HETATM   13  C   UNL     1     -42.544 -52.816  12.537  1.00  0.00     0.104 C 
HETATM   14  C   UNL     1     -43.922 -53.453  12.353  1.00  0.00     0.034 C 
BRANCH  13  15
HETATM   15  C   UNL     1     -41.652 -53.669  13.461  1.00  0.00     0.191 C 
BRANCH  15  16
HETATM   16  O   UNL     1     -40.329 -53.736  12.920  1.00  0.00    -0.394 OA
HETATM   17  C   UNL     1     -39.382 -54.178  13.882  1.00  0.00     0.201 C 
ENDBRANCH  15  16
ENDBRANCH  13  15
ENDBRANCH  10  13
ENDBRANCH   8   9
ENDBRANCH   1   8
BRANCH   2  18
HETATM   18  C   UNL     1     -39.590 -47.561  13.565  1.00  0.00     0.432 C 
HETATM   19  F   UNL     1     -39.016 -48.786  13.553  1.00  0.00    -0.165 F 
HETATM   20  F   UNL     1     -38.563 -46.668  13.517  1.00  0.00    -0.165 F 
HETATM   21  F   UNL     1     -40.167 -47.406  14.785  1.00  0.00    -0.165 F 
ENDBRANCH   2  18
BRANCH   5  22
HETATM   22  C   UNL     1     -43.106 -46.201   9.079  1.00  0.00     0.254 C 
HETATM   23  O   UNL     1     -43.593 -45.083   8.929  1.00  0.00    -0.268 OA
HETATM   24  N   UNL     1     -43.270 -47.157   8.129  1.00  0.00    -0.366 N 
HETATM   25  H   UNL     1     -42.887 -48.092   8.234  1.00  0.00     0.159 HD
HETATM   26  H   UNL     1     -43.800 -46.931   7.298  1.00  0.00     0.159 HD
ENDBRANCH   5  22
TORSDOF 7
ENDMDL
MODEL 8
REMARK VINA RESULT:      -5.2      3.935      5.597
REMARK  7 active torsions:
REMARK  status: ('A' for Active; 'I' for Inactive)
REMARK    1  A    between atoms: O_2  and  C_3 
REMARK    2  A    between atoms: C_3  and  C_4 
REMARK    3  A    between atoms: C_4  and  N_6 
REMARK       I    between atoms: N_6  and  C_7 
REMARK    4  A    between atoms: C_7  and  C_9 
REMARK    5  A    between atoms: C_9  and  N_10 
REMARK    6  A    between atoms: C_11  and  C_20 
REMARK    7  A    between atoms: C_14  and  C_15 
REMARK       I    between atoms: C_15  and  N_17 
ROOT
HETATM    1  N   UNL     1     -44.946 -53.624  14.370  1.00  0.00    -0.300 N 
HETATM    2  C   UNL     1     -45.820 -52.522  14.254  1.00  0.00     0.122 C 
HETATM    3  C   UNL     1     -46.484 -52.114  15.354  1.00  0.00     0.036 C 
HETATM    4  C   UNL     1     -46.346 -52.788  16.616  1.00  0.00     0.025 C 
HETATM    5  C   UNL     1     -45.479 -53.799  16.781  1.00  0.00     0.100 C 
HETATM    6  C   UNL     1     -44.659 -54.223  15.608  1.00  0.00     0.264 C 
HETATM    7  O   UNL     1     -43.788 -55.087  15.734  1.00  0.00    -0.267 OA
ENDROOT
BRANCH   1   8
HETATM    8  C   UNL     1     -44.223 -54.183  13.228  1.00  0.00     0.235 C 
BRANCH   8   9
HETATM    9  C   UNL     1     -42.889 -53.466  13.000  1.00  0.00     0.236 C 
HETATM   10  N   UNL     1     -41.851 -53.931  13.785  1.00  0.00    -0.353 N 
HETATM   11  H   UNL     1     -42.089 -54.425  14.637  1.00  0.00     0.163 HD
HETATM   12  O   UNL     1     -42.757 -52.557  12.184  1.00  0.00    -0.272 OA
BRANCH  10  13
HETATM   13  C   UNL     1     -40.502 -53.376  13.678  1.00  0.00     0.104 C 
HETATM   14  C   UNL     1     -39.476 -54.483  13.921  1.00  0.00     0.034 C 
BRANCH  13  15
HETATM   15  C   UNL     1     -40.281 -52.187  14.634  1.00  0.00     0.191 C 
BRANCH  15  16
HETATM   16  O   UNL     1     -38.935 -52.209  15.119  1.00  0.00    -0.394 OA
HETATM   17  C   UNL     1     -38.252 -50.992  14.849  1.00  0.00     0.201 C 
ENDBRANCH  15  16
ENDBRANCH  13  15
ENDBRANCH  10  13
ENDBRANCH   8   9
ENDBRANCH   1   8
BRANCH   2  18
HETATM   18  C   UNL     1     -46.066 -51.750  12.960  1.00  0.00     0.432 C 
HETATM   19  F   UNL     1     -46.111 -52.496  11.831  1.00  0.00    -0.165 F 
HETATM   20  F   UNL     1     -47.261 -51.098  13.022  1.00  0.00    -0.165 F 
HETATM   21  F   UNL     1     -45.123 -50.792  12.765  1.00  0.00    -0.165 F 
ENDBRANCH   2  18
BRANCH   5  22
HETATM   22  C   UNL     1     -45.423 -54.448  18.122  1.00  0.00     0.254 C 
HETATM   23  O   UNL     1     -46.306 -55.192  18.541  1.00  0.00    -0.268 OA
HETATM   24  N   UNL     1     -44.327 -54.185  18.878  1.00  0.00    -0.366 N 
HETATM   25  H   UNL     1     -43.588 -53.564  18.559  1.00  0.00     0.159 HD
HETATM   26  H   UNL     1     -44.250 -54.614  19.790  1.00  0.00     0.159 HD
ENDBRANCH   5  22
TORSDOF 7
ENDMDL
MODEL 9
REMARK VINA RESULT:      -5.1      2.864      6.834
REMARK  7 active torsions:
REMARK  status: ('A' for Active; 'I' for Inactive)
REMARK    1  A    between atoms: O_2  and  C_3 
REMARK    2  A    between atoms: C_3  and  C_4 
REMARK    3  A    between atoms: C_4  and  N_6 
REMARK       I    between atoms: N_6  and  C_7 
REMARK    4  A    between atoms: C_7  and  C_9 
REMARK    5  A    between atoms: C_9  and  N_10 
REMARK    6  A    between atoms: C_11  and  C_20 
REMARK    7  A    between atoms: C_14  and  C_15 
REMARK       I    between atoms: C_15  and  N_17 
ROOT
HETATM    1  N   UNL     1     -40.464 -48.638  11.623  1.00  0.00    -0.300 N 
HETATM    2  C   UNL     1     -39.390 -48.099  12.363  1.00  0.00     0.122 C 
HETATM    3  C   UNL     1     -39.337 -46.762  12.530  1.00  0.00     0.036 C 
HETATM    4  C   UNL     1     -40.318 -45.886  11.950  1.00  0.00     0.025 C 
HETATM    5  C   UNL     1     -41.386 -46.364  11.294  1.00  0.00     0.100 C 
HETATM    6  C   UNL     1     -41.529 -47.845  11.165  1.00  0.00     0.264 C 
HETATM    7  O   UNL     1     -42.538 -48.333  10.648  1.00  0.00    -0.267 OA
ENDROOT
BRANCH   1   8
HETATM    8  C   UNL     1     -40.585 -50.067  11.334  1.00  0.00     0.235 C 
BRANCH   8   9
HETATM    9  C   UNL     1     -41.449 -50.782  12.379  1.00  0.00     0.236 C 
HETATM   10  N   UNL     1     -42.018 -51.961  11.937  1.00  0.00    -0.353 N 
HETATM   11  H   UNL     1     -42.118 -52.089  10.937  1.00  0.00     0.163 HD
HETATM   12  O   UNL     1     -41.614 -50.341  13.514  1.00  0.00    -0.272 OA
BRANCH  10  13
HETATM   13  C   UNL     1     -42.851 -52.784  12.813  1.00  0.00     0.104 C 
HETATM   14  C   UNL     1     -42.074 -54.034  13.227  1.00  0.00     0.034 C 
BRANCH  13  15
HETATM   15  C   UNL     1     -44.199 -53.153  12.162  1.00  0.00     0.191 C 
BRANCH  15  16
HETATM   16  O   UNL     1     -44.667 -54.393  12.701  1.00  0.00    -0.394 OA
HETATM   17  C   UNL     1     -45.633 -54.198  13.724  1.00  0.00     0.201 C 
ENDBRANCH  15  16
ENDBRANCH  13  15
ENDBRANCH  10  13
ENDBRANCH   8   9
ENDBRANCH   1   8
BRANCH   2  18
HETATM   18  C   UNL     1     -38.277 -48.930  12.997  1.00  0.00     0.432 C 
HETATM   19  F   UNL     1     -37.306 -48.228  13.626  1.00  0.00    -0.165 F 
HETATM   20  F   UNL     1     -38.795 -49.772  13.934  1.00  0.00    -0.165 F 
HETATM   21  F   UNL     1     -37.662 -49.720  12.079  1.00  0.00    -0.165 F 
ENDBRANCH   2  18
BRANCH   5  22
HETATM   22  C   UNL     1     -42.338 -45.377  10.712  1.00  0.00     0.254 C 
HETATM   23  O   UNL     1     -42.588 -45.318   9.511  1.00  0.00    -0.268 OA
HETATM   24  N   UNL     1     -42.940 -44.528  11.583  1.00  0.00    -0.366 N 
HETATM   25  H   UNL     1     -42.742 -44.547  12.580  1.00  0.00     0.159 HD
HETATM   26  H   UNL     1     -43.598 -43.849  11.225  1.00  0.00     0.159 HD
ENDBRANCH   5  22
TORSDOF 7
ENDMDL
