MODEL 1
REMARK VINA RESULT:      -5.8      0.000      0.000
REMARK  5 active torsions:
REMARK  status: ('A' for Active; 'I' for Inactive)
REMARK    1  A    between atoms: N_2  and  C_4 
REMARK    2  A    between atoms: C_4  and  C_7 
REMARK    3  A    between atoms: C_7  and  N_8 
REMARK       I    between atoms: N_8  and  C_9 
REMARK       I    between atoms: C_9  and  N_11 
REMARK    4  A    between atoms: N_11  and  C_12 
REMARK    5  A    between atoms: C_15  and  N_19 
ROOT
HETATM    1  C   UNL     1     -41.990 -48.448  11.757  1.00  0.00     0.051 A 
HETATM    2  C   UNL     1     -40.605 -48.454  11.718  1.00  0.00     0.035 A 
HETATM    3  C   UNL     1     -39.914 -47.239  11.780  1.00  0.00     0.051 A 
HETATM    4  C   UNL     1     -40.604 -46.024  11.819  1.00  0.00     0.103 A 
HETATM    5  N   UNL     1     -41.953 -46.019  11.796  1.00  0.00    -0.350 N 
ATOM      6  HN  UNL     1     -42.469 -45.139  11.783  1.00  0.00     0.166 HD
HETATM    7  C   UNL     1     -42.613 -47.209  11.790  1.00  0.00     0.119 A 
ENDROOT
BRANCH   1   8
HETATM    8  N   UNL     1     -42.680 -49.679  11.774  1.00  0.00    -0.308 N 
HETATM    9  C   UNL     1     -43.308 -50.146  12.910  1.00  0.00     0.320 C 
HETATM   10  N   UNL     1     -43.787 -51.426  12.715  1.00  0.00    -0.340 N 
HETATM   11  O   UNL     1     -43.358 -49.563  13.986  1.00  0.00    -0.247 OA
HETATM   12  H   UNL     1     -44.277 -51.535  11.837  1.00  0.00     0.164 HD
HETATM   13  H   UNL     1     -42.303 -50.420  11.199  1.00  0.00     0.170 HD
BRANCH  10  14
HETATM   14  C   UNL     1     -44.308 -52.173  13.858  1.00  0.00     0.165 C 
BRANCH  14  15
HETATM   15  C   UNL     1     -45.862 -52.420  13.850  1.00  0.00     0.167 C 
HETATM   16  C   UNL     1     -46.403 -52.176  12.423  1.00  0.00     0.050 C 
HETATM   17  C   UNL     1     -46.505 -51.374  14.798  1.00  0.00     0.050 C 
BRANCH  15  18
HETATM   18  N   UNL     1     -46.180 -53.795  14.364  1.00  0.00     0.090 N 
HETATM   19  C   UNL     1     -45.420 -54.885  13.738  1.00  0.00     0.310 C 
HETATM   20  C   UNL     1     -46.084 -53.942  15.822  1.00  0.00     0.310 C 
ENDBRANCH  15  18
ENDBRANCH  14  15
ENDBRANCH  10  14
ENDBRANCH   1   8
BRANCH   4  21
HETATM   21  N   UNL     1     -39.922 -44.823  11.813  1.00  0.00    -0.363 N 
HETATM   22  C   UNL     1     -39.288 -44.278  13.020  1.00  0.00     0.150 C 
HETATM   23  C   UNL     1     -40.004 -43.002  13.493  1.00  0.00     0.187 C 
HETATM   24  O   UNL     1     -40.116 -42.033  12.441  1.00  0.00    -0.388 OA
HETATM   25  C   UNL     1     -40.885 -42.580  11.356  1.00  0.00     0.187 C 
HETATM   26  C   UNL     1     -40.215 -43.830  10.769  1.00  0.00     0.150 C 
ENDBRANCH   4  21
TORSDOF 5
ENDMDL
MODEL 2
REMARK VINA RESULT:      -5.7      3.042      3.700
REMARK  5 active torsions:
REMARK  status: ('A' for Active; 'I' for Inactive)
REMARK    1  A    between atoms: N_2  and  C_4 
REMARK    2  A    between atoms: C_4  and  C_7 
REMARK    3  A    between atoms: C_7  and  N_8 
REMARK       I    between atoms: N_8  and  C_9 
REMARK       I    between atoms: C_9  and  N_11 
REMARK    4  A    between atoms: N_11  and  C_12 
REMARK    5  A    between atoms: C_15  and  N_19 
ROOT
HETATM    1  C   UNL     1     -40.652 -49.070  11.012  1.00  0.00     0.051 A 
HETATM    2  C   UNL     1     -39.795 -48.233  11.708  1.00  0.00     0.035 A 
HETATM    3  C   UNL     1     -40.007 -46.850  11.669  1.00  0.00     0.051 A 
HETATM    4  C   UNL     1     -41.033 -46.305  10.892  1.00  0.00     0.103 A 
HETATM    5  N   UNL     1     -41.830 -47.119  10.167  1.00  0.00    -0.350 N 
ATOM      6  HN  UNL     1     -42.556 -46.732   9.565  1.00  0.00     0.166 HD
HETATM    7  C   UNL     1     -41.647 -48.465  10.256  1.00  0.00     0.119 A 
ENDROOT
BRANCH   1   8
HETATM    8  N   UNL     1     -40.482 -50.467  11.118  1.00  0.00    -0.308 N 
HETATM    9  C   UNL     1     -41.306 -51.243  11.906  1.00  0.00     0.320 C 
HETATM   10  N   UNL     1     -40.853 -52.547  11.955  1.00  0.00    -0.340 N 
HETATM   11  O   UNL     1     -42.255 -50.834  12.562  1.00  0.00    -0.247 OA
HETATM   12  H   UNL     1     -40.603 -52.912  11.045  1.00  0.00     0.164 HD
HETATM   13  H   UNL     1     -39.534 -50.813  11.077  1.00  0.00     0.170 HD
BRANCH  10  14
HETATM   14  C   UNL     1     -41.471 -53.481  12.894  1.00  0.00     0.165 C 
BRANCH  14  15
HETATM   15  C   UNL     1     -40.669 -53.730  14.224  1.00  0.00     0.167 C 
HETATM   16  C   UNL     1     -39.373 -54.504  13.893  1.00  0.00     0.050 C 
HETATM   17  C   UNL     1     -41.547 -54.622  15.138  1.00  0.00     0.050 C 
BRANCH  15  18
HETATM   18  N   UNL     1     -40.405 -52.430  14.931  1.00  0.00     0.090 N 
HETATM   19  C   UNL     1     -41.164 -52.232  16.172  1.00  0.00     0.310 C 
HETATM   20  C   UNL     1     -38.988 -52.159  15.205  1.00  0.00     0.310 C 
ENDBRANCH  15  18
ENDBRANCH  14  15
ENDBRANCH  10  14
ENDBRANCH   1   8
BRANCH   4  21
HETATM   21  N   UNL     1     -41.201 -44.938  10.802  1.00  0.00    -0.363 N 
HETATM   22  C   UNL     1     -40.076 -44.003  10.926  1.00  0.00     0.150 C 
HETATM   23  C   UNL     1     -40.188 -43.170  12.214  1.00  0.00     0.187 C 
HETATM   24  O   UNL     1     -41.463 -42.519  12.318  1.00  0.00    -0.388 OA
HETATM   25  C   UNL     1     -42.509 -43.504  12.351  1.00  0.00     0.187 C 
HETATM   26  C   UNL     1     -42.522 -44.350  11.071  1.00  0.00     0.150 C 
ENDBRANCH   4  21
TORSDOF 5
ENDMDL
MODEL 3
REMARK VINA RESULT:      -5.7      2.064      2.955
REMARK  5 active torsions:
REMARK  status: ('A' for Active; 'I' for Inactive)
REMARK    1  A    between atoms: N_2  and  C_4 
REMARK    2  A    between atoms: C_4  and  C_7 
REMARK    3  A    between atoms: C_7  and  N_8 
REMARK       I    between atoms: N_8  and  C_9 
REMARK       I    between atoms: C_9  and  N_11 
REMARK    4  A    between atoms: N_11  and  C_12 
REMARK    5  A    between atoms: C_15  and  N_19 
ROOT
HETATM    1  C   UNL     1     -41.739 -47.490  10.783  1.00  0.00     0.051 A 
HETATM    2  C   UNL     1     -40.531 -46.813  10.729  1.00  0.00     0.035 A 
HETATM    3  C   UNL     1     -40.516 -45.425  10.905  1.00  0.00     0.051 A 
HETATM    4  C   UNL     1     -41.706 -44.712  11.073  1.00  0.00     0.103 A 
HETATM    5  N   UNL     1     -42.886 -45.366  11.064  1.00  0.00    -0.350 N 
ATOM      6  HN  UNL     1     -43.764 -44.854  11.145  1.00  0.00     0.166 HD
HETATM    7  C   UNL     1     -42.883 -46.722  10.947  1.00  0.00     0.119 A 
ENDROOT
BRANCH   1   8
HETATM    8  N   UNL     1     -41.740 -48.898  10.684  1.00  0.00    -0.308 N 
HETATM    9  C   UNL     1     -41.406 -49.703  11.754  1.00  0.00     0.320 C 
HETATM   10  N   UNL     1     -41.345 -51.028  11.370  1.00  0.00    -0.340 N 
HETATM   11  O   UNL     1     -41.102 -49.310  12.872  1.00  0.00    -0.247 OA
HETATM   12  H   UNL     1     -42.135 -51.312  10.805  1.00  0.00     0.164 HD
HETATM   13  H   UNL     1     -41.469 -49.291   9.794  1.00  0.00     0.170 HD
BRANCH  10  14
HETATM   14  C   UNL     1     -40.814 -52.017  12.306  1.00  0.00     0.165 C 
BRANCH  14  15
HETATM   15  C   UNL     1     -41.878 -52.692  13.248  1.00  0.00     0.167 C 
HETATM   16  C   UNL     1     -41.637 -52.216  14.700  1.00  0.00     0.050 C 
HETATM   17  C   UNL     1     -41.644 -54.223  13.194  1.00  0.00     0.050 C 
BRANCH  15  18
HETATM   18  N   UNL     1     -43.271 -52.400  12.765  1.00  0.00     0.090 N 
HETATM   19  C   UNL     1     -44.083 -53.584  12.456  1.00  0.00     0.310 C 
HETATM   20  C   UNL     1     -44.051 -51.519  13.643  1.00  0.00     0.310 C 
ENDBRANCH  15  18
ENDBRANCH  14  15
ENDBRANCH  10  14
ENDBRANCH   1   8
BRANCH   4  21
HETATM   21  N   UNL     1     -41.696 -43.335  11.179  1.00  0.00    -0.363 N 
HETATM   22  C   UNL     1     -40.604 -42.611  11.840  1.00  0.00     0.150 C 
HETATM   23  C   UNL     1     -41.086 -41.952  13.144  1.00  0.00     0.187 C 
HETATM   24  O   UNL     1     -42.244 -41.132  12.930  1.00  0.00    -0.388 OA
HETATM   25  C   UNL     1     -43.324 -41.939  12.431  1.00  0.00     0.187 C 
HETATM   26  C   UNL     1     -42.963 -42.593  11.091  1.00  0.00     0.150 C 
ENDBRANCH   4  21
TORSDOF 5
ENDMDL
MODEL 4
REMARK VINA RESULT:      -5.7      2.350      8.952
REMARK  5 active torsions:
REMARK  status: ('A' for Active; 'I' for Inactive)
REMARK    1  A    between atoms: N_2  and  C_4 
REMARK    2  A    between atoms: C_4  and  C_7 
REMARK    3  A    between atoms: C_7  and  N_8 
REMARK       I    between atoms: N_8  and  C_9 
REMARK       I    between atoms: C_9  and  N_11 
REMARK    4  A    between atoms: N_11  and  C_12 
REMARK    5  A    between atoms: C_15  and  N_19 
ROOT
HETATM    1  C   UNL     1     -41.973 -51.210  12.242  1.00  0.00     0.051 A 
HETATM    2  C   UNL     1     -41.434 -52.485  12.289  1.00  0.00     0.035 A 
HETATM    3  C   UNL     1     -42.108 -53.487  12.995  1.00  0.00     0.051 A 
HETATM    4  C   UNL     1     -43.281 -53.202  13.698  1.00  0.00     0.103 A 
HETATM    5  N   UNL     1     -43.773 -51.945  13.700  1.00  0.00    -0.350 N 
ATOM      6  HN  UNL     1     -44.605 -51.714  14.241  1.00  0.00     0.166 HD
HETATM    7  C   UNL     1     -43.137 -50.992  12.965  1.00  0.00     0.119 A 
ENDROOT
BRANCH   1   8
HETATM    8  N   UNL     1     -41.331 -50.223  11.463  1.00  0.00    -0.308 N 
HETATM    9  C   UNL     1     -40.655 -49.167  12.041  1.00  0.00     0.320 C 
HETATM   10  N   UNL     1     -40.238 -48.268  11.079  1.00  0.00    -0.340 N 
HETATM   11  O   UNL     1     -40.518 -48.982  13.243  1.00  0.00    -0.247 OA
HETATM   12  H   UNL     1     -39.806 -48.715  10.281  1.00  0.00     0.164 HD
HETATM   13  H   UNL     1     -41.771 -49.978  10.587  1.00  0.00     0.170 HD
BRANCH  10  14
HETATM   14  C   UNL     1     -39.679 -46.985  11.499  1.00  0.00     0.165 C 
BRANCH  14  15
HETATM   15  C   UNL     1     -40.512 -45.717  11.083  1.00  0.00     0.167 C 
HETATM   16  C   UNL     1     -41.752 -46.172  10.279  1.00  0.00     0.050 C 
HETATM   17  C   UNL     1     -39.619 -44.857  10.153  1.00  0.00     0.050 C 
BRANCH  15  18
HETATM   18  N   UNL     1     -40.872 -44.902  12.293  1.00  0.00     0.090 N 
HETATM   19  C   UNL     1     -42.311 -44.697  12.500  1.00  0.00     0.310 C 
HETATM   20  C   UNL     1     -40.287 -45.383  13.552  1.00  0.00     0.310 C 
ENDBRANCH  15  18
ENDBRANCH  14  15
ENDBRANCH  10  14
ENDBRANCH   1   8
BRANCH   4  21
HETATM   21  N   UNL     1     -43.910 -54.175  14.449  1.00  0.00    -0.363 N 
HETATM   22  C   UNL     1     -45.125 -54.857  13.986  1.00  0.00     0.150 C 
HETATM   23  C   UNL     1     -46.338 -54.475  14.851  1.00  0.00     0.187 C 
HETATM   24  O   UNL     1     -46.084 -54.687  16.248  1.00  0.00    -0.388 OA
HETATM   25  C   UNL     1     -44.980 -53.867  16.669  1.00  0.00     0.187 C 
HETATM   26  C   UNL     1     -43.697 -54.218  15.904  1.00  0.00     0.150 C 
ENDBRANCH   4  21
TORSDOF 5
ENDMDL
MODEL 5
REMARK VINA RESULT:      -5.7      1.671      2.319
REMARK  5 active torsions:
REMARK  status: ('A' for Active; 'I' for Inactive)
REMARK    1  A    between atoms: N_2  and  C_4 
REMARK    2  A    between atoms: C_4  and  C_7 
REMARK    3  A    between atoms: C_7  and  N_8 
REMARK       I    between atoms: N_8  and  C_9 
REMARK       I    between atoms: C_9  and  N_11 
REMARK    4  A    between atoms: N_11  and  C_12 
REMARK    5  A    between atoms: C_15  and  N_19 
ROOT
HETATM    1  C   UNL     1     -41.026 -49.141  11.487  1.00  0.00     0.051 A 
HETATM    2  C   UNL     1     -40.095 -48.785  12.449  1.00  0.00     0.035 A 
HETATM    3  C   UNL     1     -39.633 -47.465  12.499  1.00  0.00     0.051 A 
HETATM    4  C   UNL     1     -40.054 -46.523  11.556  1.00  0.00     0.103 A 
HETATM    5  N   UNL     1     -40.915 -46.888  10.583  1.00  0.00    -0.350 N 
ATOM      6  HN  UNL     1     -41.199 -46.222   9.865  1.00  0.00     0.166 HD
HETATM    7  C   UNL     1     -41.398 -48.160  10.578  1.00  0.00     0.119 A 
ENDROOT
BRANCH   1   8
HETATM    8  N   UNL     1     -41.548 -50.452  11.490  1.00  0.00    -0.308 N 
HETATM    9  C   UNL     1     -42.572 -50.826  12.336  1.00  0.00     0.320 C 
HETATM   10  N   UNL     1     -42.807 -52.185  12.250  1.00  0.00    -0.340 N 
HETATM   11  O   UNL     1     -43.140 -50.092  13.133  1.00  0.00    -0.247 OA
HETATM   12  H   UNL     1     -42.849 -52.518  11.296  1.00  0.00     0.164 HD
HETATM   13  H   UNL     1     -40.896 -51.201  11.304  1.00  0.00     0.170 HD
BRANCH  10  14
HETATM   14  C   UNL     1     -43.715 -52.812  13.208  1.00  0.00     0.165 C 
BRANCH  14  15
HETATM   15  C   UNL     1     -43.029 -53.723  14.291  1.00  0.00     0.167 C 
HETATM   16  C   UNL     1     -41.677 -54.230  13.738  1.00  0.00     0.050 C 
HETATM   17  C   UNL     1     -43.950 -54.948  14.521  1.00  0.00     0.050 C 
BRANCH  15  18
HETATM   18  N   UNL     1     -42.883 -52.980  15.589  1.00  0.00     0.090 N 
HETATM   19  C   UNL     1     -41.640 -52.209  15.729  1.00  0.00     0.310 C 
HETATM   20  C   UNL     1     -44.012 -52.103  15.923  1.00  0.00     0.310 C 
ENDBRANCH  15  18
ENDBRANCH  14  15
ENDBRANCH  10  14
ENDBRANCH   1   8
BRANCH   4  21
HETATM   21  N   UNL     1     -39.547 -45.239  11.566  1.00  0.00    -0.363 N 
HETATM   22  C   UNL     1     -39.016 -44.617  12.785  1.00  0.00     0.150 C 
HETATM   23  C   UNL     1     -39.912 -43.457  13.250  1.00  0.00     0.187 C 
HETATM   24  O   UNL     1     -40.141 -42.506  12.200  1.00  0.00    -0.388 OA
HETATM   25  C   UNL     1     -40.808 -43.150  11.101  1.00  0.00     0.187 C 
HETATM   26  C   UNL     1     -39.960 -44.290  10.521  1.00  0.00     0.150 C 
ENDBRANCH   4  21
TORSDOF 5
ENDMDL
MODEL 6
REMARK VINA RESULT:      -5.5      2.767      8.562
REMARK  5 active torsions:
REMARK  status: ('A' for Active; 'I' for Inactive)
REMARK    1  A    between atoms: N_2  and  C_4 
REMARK    2  A    between atoms: C_4  and  C_7 
REMARK    3  A    between atoms: C_7  and  N_8 
REMARK       I    between atoms: N_8  and  C_9 
REMARK       I    between atoms: C_9  and  N_11 
REMARK    4  A    between atoms: N_11  and  C_12 
REMARK    5  A    between atoms: C_15  and  N_19 
ROOT
HETATM    1  C   UNL     1     -41.386 -48.862  11.034  1.00  0.00     0.051 A 
HETATM    2  C   UNL     1     -42.421 -49.047  11.937  1.00  0.00     0.035 A 
HETATM    3  C   UNL     1     -42.533 -50.270  12.608  1.00  0.00     0.051 A 
HETATM    4  C   UNL     1     -41.652 -51.320  12.335  1.00  0.00     0.103 A 
HETATM    5  N   UNL     1     -40.681 -51.157  11.411  1.00  0.00    -0.350 N 
ATOM      6  HN  UNL     1     -40.057 -51.928  11.173  1.00  0.00     0.166 HD
HETATM    7  C   UNL     1     -40.550 -49.946  10.804  1.00  0.00     0.119 A 
ENDROOT
BRANCH   1   8
HETATM    8  N   UNL     1     -41.230 -47.602  10.418  1.00  0.00    -0.308 N 
HETATM    9  C   UNL     1     -40.570 -46.563  11.043  1.00  0.00     0.320 C 
HETATM   10  N   UNL     1     -40.674 -45.402  10.303  1.00  0.00    -0.340 N 
HETATM   11  O   UNL     1     -40.045 -46.616  12.147  1.00  0.00    -0.247 OA
HETATM   12  H   UNL     1     -40.489 -45.543   9.318  1.00  0.00     0.164 HD
HETATM   13  H   UNL     1     -41.986 -47.289   9.825  1.00  0.00     0.170 HD
BRANCH  10  14
HETATM   14  C   UNL     1     -40.213 -44.143  10.886  1.00  0.00     0.165 C 
BRANCH  14  15
HETATM   15  C   UNL     1     -41.307 -43.318  11.660  1.00  0.00     0.167 C 
HETATM   16  C   UNL     1     -42.666 -43.490  10.943  1.00  0.00     0.050 C 
HETATM   17  C   UNL     1     -40.904 -41.824  11.584  1.00  0.00     0.050 C 
BRANCH  15  18
HETATM   18  N   UNL     1     -41.355 -43.732  13.103  1.00  0.00     0.090 N 
HETATM   19  C   UNL     1     -40.127 -43.474  13.866  1.00  0.00     0.310 C 
HETATM   20  C   UNL     1     -42.493 -43.191  13.858  1.00  0.00     0.310 C 
ENDBRANCH  15  18
ENDBRANCH  14  15
ENDBRANCH  10  14
ENDBRANCH   1   8
BRANCH   4  21
HETATM   21  N   UNL     1     -41.803 -52.547  12.949  1.00  0.00    -0.363 N 
HETATM   22  C   UNL     1     -42.595 -52.716  14.174  1.00  0.00     0.150 C 
HETATM   23  C   UNL     1     -41.696 -53.078  15.368  1.00  0.00     0.187 C 
HETATM   24  O   UNL     1     -40.865 -54.213  15.085  1.00  0.00    -0.388 OA
HETATM   25  C   UNL     1     -40.004 -53.919  13.972  1.00  0.00     0.187 C 
HETATM   26  C   UNL     1     -40.812 -53.606  12.706  1.00  0.00     0.150 C 
ENDBRANCH   4  21
TORSDOF 5
ENDMDL
MODEL 7
REMARK VINA RESULT:      -5.5      4.160      8.804
REMARK  5 active torsions:
REMARK  status: ('A' for Active; 'I' for Inactive)
REMARK    1  A    between atoms: N_2  and  C_4 
REMARK    2  A    between atoms: C_4  and  C_7 
REMARK    3  A    between atoms: C_7  and  N_8 
REMARK       I    between atoms: N_8  and  C_9 
REMARK       I    between atoms: C_9  and  N_11 
REMARK    4  A    between atoms: N_11  and  C_12 
REMARK    5  A    between atoms: C_15  and  N_19 
ROOT
HETATM    1  C   UNL     1     -42.110 -46.760  11.472  1.00  0.00     0.051 A 
HETATM    2  C   UNL     1     -41.421 -47.082  12.631  1.00  0.00     0.035 A 
HETATM    3  C   UNL     1     -40.625 -48.232  12.656  1.00  0.00     0.051 A 
HETATM    4  C   UNL     1     -40.565 -49.086  11.551  1.00  0.00     0.103 A 
HETATM    5  N   UNL     1     -41.284 -48.802  10.445  1.00  0.00    -0.350 N 
ATOM      6  HN  UNL     1     -41.282 -49.437   9.647  1.00  0.00     0.166 HD
HETATM    7  C   UNL     1     -42.013 -47.652  10.414  1.00  0.00     0.119 A 
ENDROOT
BRANCH   1   8
HETATM    8  N   UNL     1     -42.849 -45.558  11.425  1.00  0.00    -0.308 N 
HETATM    9  C   UNL     1     -42.288 -44.376  10.986  1.00  0.00     0.320 C 
HETATM   10  N   UNL     1     -43.162 -43.322  11.167  1.00  0.00    -0.340 N 
HETATM   11  O   UNL     1     -41.141 -44.239  10.582  1.00  0.00    -0.247 OA
HETATM   12  H   UNL     1     -44.103 -43.532  10.858  1.00  0.00     0.164 HD
HETATM   13  H   UNL     1     -43.542 -45.422  12.148  1.00  0.00     0.170 HD
BRANCH  10  14
HETATM   14  C   UNL     1     -42.687 -41.958  10.950  1.00  0.00     0.165 C 
BRANCH  14  15
HETATM   15  C   UNL     1     -42.703 -41.028  12.220  1.00  0.00     0.167 C 
HETATM   16  C   UNL     1     -43.221 -41.839  13.430  1.00  0.00     0.050 C 
HETATM   17  C   UNL     1     -43.704 -39.878  11.942  1.00  0.00     0.050 C 
BRANCH  15  18
HETATM   18  N   UNL     1     -41.343 -40.436  12.457  1.00  0.00     0.090 N 
HETATM   19  C   UNL     1     -40.245 -41.409  12.531  1.00  0.00     0.310 C 
HETATM   20  C   UNL     1     -40.962 -39.378  11.514  1.00  0.00     0.310 C 
ENDBRANCH  15  18
ENDBRANCH  14  15
ENDBRANCH  10  14
ENDBRANCH   1   8
BRANCH   4  21
HETATM   21  N   UNL     1     -39.832 -50.255  11.600  1.00  0.00    -0.363 N 
HETATM   22  C   UNL     1     -40.389 -51.504  12.134  1.00  0.00     0.150 C 
HETATM   23  C   UNL     1     -39.694 -51.904  13.446  1.00  0.00     0.187 C 
HETATM   24  O   UNL     1     -38.267 -51.951  13.301  1.00  0.00    -0.388 OA
HETATM   25  C   UNL     1     -37.774 -50.652  12.931  1.00  0.00     0.187 C 
HETATM   26  C   UNL     1     -38.363 -50.189  11.592  1.00  0.00     0.150 C 
ENDBRANCH   4  21
TORSDOF 5
ENDMDL
MODEL 8
REMARK VINA RESULT:      -5.3      3.122      3.846
REMARK  5 active torsions:
REMARK  status: ('A' for Active; 'I' for Inactive)
REMARK    1  A    between atoms: N_2  and  C_4 
REMARK    2  A    between atoms: C_4  and  C_7 
REMARK    3  A    between atoms: C_7  and  N_8 
REMARK       I    between atoms: N_8  and  C_9 
REMARK       I    between atoms: C_9  and  N_11 
REMARK    4  A    between atoms: N_11  and  C_12 
REMARK    5  A    between atoms: C_15  and  N_19 
ROOT
HETATM    1  C   UNL     1     -40.552 -46.882  11.254  1.00  0.00     0.051 A 
HETATM    2  C   UNL     1     -39.992 -46.241  12.347  1.00  0.00     0.035 A 
HETATM    3  C   UNL     1     -40.351 -44.917  12.622  1.00  0.00     0.051 A 
HETATM    4  C   UNL     1     -41.218 -44.220  11.775  1.00  0.00     0.103 A 
HETATM    5  N   UNL     1     -41.715 -44.828  10.677  1.00  0.00    -0.350 N 
ATOM      6  HN  UNL     1     -42.315 -44.319  10.029  1.00  0.00     0.166 HD
HETATM    7  C   UNL     1     -41.400 -46.132  10.451  1.00  0.00     0.119 A 
ENDROOT
BRANCH   1   8
HETATM    8  N   UNL     1     -40.247 -48.241  11.027  1.00  0.00    -0.308 N 
HETATM    9  C   UNL     1     -41.087 -49.254  11.442  1.00  0.00     0.320 C 
HETATM   10  N   UNL     1     -40.506 -50.490  11.232  1.00  0.00    -0.340 N 
HETATM   11  O   UNL     1     -42.160 -49.101  12.011  1.00  0.00    -0.247 OA
HETATM   12  H   UNL     1     -40.090 -50.579  10.314  1.00  0.00     0.164 HD
HETATM   13  H   UNL     1     -39.271 -48.500  11.059  1.00  0.00     0.170 HD
BRANCH  10  14
HETATM   14  C   UNL     1     -41.148 -51.681  11.783  1.00  0.00     0.165 C 
BRANCH  14  15
HETATM   15  C   UNL     1     -40.568 -52.184  13.157  1.00  0.00     0.167 C 
HETATM   16  C   UNL     1     -41.406 -51.580  14.307  1.00  0.00     0.050 C 
HETATM   17  C   UNL     1     -39.120 -51.646  13.276  1.00  0.00     0.050 C 
BRANCH  15  18
HETATM   18  N   UNL     1     -40.529 -53.686  13.194  1.00  0.00     0.090 N 
HETATM   19  C   UNL     1     -39.417 -54.260  13.961  1.00  0.00     0.310 C 
HETATM   20  C   UNL     1     -41.776 -54.321  13.639  1.00  0.00     0.310 C 
ENDBRANCH  15  18
ENDBRANCH  14  15
ENDBRANCH  10  14
ENDBRANCH   1   8
BRANCH   4  21
HETATM   21  N   UNL     1     -41.520 -42.893  12.009  1.00  0.00    -0.363 N 
HETATM   22  C   UNL     1     -41.602 -42.338  13.366  1.00  0.00     0.150 C 
HETATM   23  C   UNL     1     -43.048 -41.944  13.715  1.00  0.00     0.187 C 
HETATM   24  O   UNL     1     -43.617 -41.074  12.726  1.00  0.00    -0.388 OA
HETATM   25  C   UNL     1     -43.650 -41.743  11.453  1.00  0.00     0.187 C 
HETATM   26  C   UNL     1     -42.239 -42.122  10.984  1.00  0.00     0.150 C 
ENDBRANCH   4  21
TORSDOF 5
ENDMDL
MODEL 9
REMARK VINA RESULT:      -5.2      4.342      5.379
REMARK  5 active torsions:
REMARK  status: ('A' for Active; 'I' for Inactive)
REMARK    1  A    between atoms: N_2  and  C_4 
REMARK    2  A    between atoms: C_4  and  C_7 
REMARK    3  A    between atoms: C_7  and  N_8 
REMARK       I    between atoms: N_8  and  C_9 
REMARK       I    between atoms: C_9  and  N_11 
REMARK    4  A    between atoms: N_11  and  C_12 
REMARK    5  A    between atoms: C_15  and  N_19 
ROOT
HETATM    1  C   UNL     1     -40.414 -50.316  12.567  1.00  0.00     0.051 A 
HETATM    2  C   UNL     1     -41.371 -49.729  13.379  1.00  0.00     0.035 A 
HETATM    3  C   UNL     1     -42.274 -48.817  12.822  1.00  0.00     0.051 A 
HETATM    4  C   UNL     1     -42.182 -48.450  11.477  1.00  0.00     0.103 A 
HETATM    5  N   UNL     1     -41.210 -48.977  10.702  1.00  0.00    -0.350 N 
ATOM      6  HN  UNL     1     -41.107 -48.688   9.730  1.00  0.00     0.166 HD
HETATM    7  C   UNL     1     -40.372 -49.904  11.243  1.00  0.00     0.119 A 
ENDROOT
BRANCH   1   8
HETATM    8  N   UNL     1     -39.556 -51.294  13.116  1.00  0.00    -0.308 N 
HETATM    9  C   UNL     1     -39.956 -52.605  13.277  1.00  0.00     0.320 C 
HETATM   10  N   UNL     1     -38.999 -53.329  13.960  1.00  0.00    -0.340 N 
HETATM   11  O   UNL     1     -41.046 -53.061  12.958  1.00  0.00    -0.247 OA
HETATM   12  H   UNL     1     -38.062 -53.170  13.612  1.00  0.00     0.164 HD
HETATM   13  H   UNL     1     -38.915 -50.986  13.834  1.00  0.00     0.170 HD
BRANCH  10  14
HETATM   14  C   UNL     1     -39.315 -54.685  14.405  1.00  0.00     0.165 C 
BRANCH  14  15
HETATM   15  C   UNL     1     -39.265 -54.911  15.962  1.00  0.00     0.167 C 
HETATM   16  C   UNL     1     -39.171 -53.539  16.667  1.00  0.00     0.050 C 
HETATM   17  C   UNL     1     -37.974 -55.708  16.276  1.00  0.00     0.050 C 
BRANCH  15  18
HETATM   18  N   UNL     1     -40.450 -55.716  16.415  1.00  0.00     0.090 N 
HETATM   19  C   UNL     1     -40.126 -57.017  17.014  1.00  0.00     0.310 C 
HETATM   20  C   UNL     1     -41.366 -55.006  17.316  1.00  0.00     0.310 C 
ENDBRANCH  15  18
ENDBRANCH  14  15
ENDBRANCH  10  14
ENDBRANCH   1   8
BRANCH   4  21
HETATM   21  N   UNL     1     -43.031 -47.500  10.944  1.00  0.00    -0.363 N 
HETATM   22  C   UNL     1     -43.898 -47.784   9.793  1.00  0.00     0.150 C 
HETATM   23  C   UNL     1     -43.454 -46.986   8.555  1.00  0.00     0.187 C 
HETATM   24  O   UNL     1     -43.349 -45.582   8.836  1.00  0.00    -0.388 OA
HETATM   25  C   UNL     1     -42.366 -45.365   9.862  1.00  0.00     0.187 C 
HETATM   26  C   UNL     1     -42.753 -46.073  11.168  1.00  0.00     0.150 C 
ENDBRANCH   4  21
TORSDOF 5
ENDMDL
