MODEL 1
REMARK VINA RESULT:      -6.3      0.000      0.000
REMARK  5 active torsions:
REMARK  status: ('A' for Active; 'I' for Inactive)
REMARK    1  A    between atoms: O_1  and  C_2 
REMARK    2  A    between atoms: C_2  and  C_20 
REMARK       I    between atoms: N_5  and  C_8 
REMARK       I    between atoms: C_8  and  N_10 
REMARK    3  A    between atoms: N_10  and  C_11 
REMARK    4  A    between atoms: C_11  and  C_12 
REMARK    5  A    between atoms: C_12  and  C_13 
ROOT
HETATM    1  C   UNL     1     -45.004 -51.735  14.644  1.00  0.00     0.158 C 
HETATM    2  C   UNL     1     -44.825 -51.752  13.112  1.00  0.00     0.067 C 
HETATM    3  C   UNL     1     -43.392 -51.461  12.671  1.00  0.00     0.131 C 
HETATM    4  N   UNL     1     -42.891 -50.235  13.292  1.00  0.00    -0.334 N 
HETATM    5  C   UNL     1     -42.966 -50.201  14.751  1.00  0.00     0.131 C 
HETATM    6  C   UNL     1     -44.392 -50.449  15.232  1.00  0.00     0.067 C 
HETATM    7  C   UNL     1     -42.387 -49.119  12.641  1.00  0.00     0.318 C 
HETATM    8  O   UNL     1     -42.086 -48.087  13.233  1.00  0.00    -0.247 OA
HETATM    9  N   UNL     1     -42.249 -49.229  11.279  1.00  0.00    -0.343 N 
HETATM   10  H   UNL     1     -41.960 -50.141  10.965  1.00  0.00     0.164 HD
ENDROOT
BRANCH   9  11
HETATM   11  C   UNL     1     -41.690 -48.099  10.544  1.00  0.00     0.129 C 
BRANCH  11  12
HETATM   12  C   UNL     1     -42.736 -47.024  10.249  1.00  0.00     0.060 C 
BRANCH  12  13
HETATM   13  C   UNL     1     -43.858 -47.516   9.376  1.00  0.00    -0.041 A 
HETATM   14  C   UNL     1     -45.163 -47.632   9.865  1.00  0.00     0.010 A 
HETATM   15  C   UNL     1     -46.174 -48.115   9.037  1.00  0.00     0.018 A 
HETATM   16  C   UNL     1     -45.847 -48.460   7.737  1.00  0.00     0.087 A 
HETATM   17  N   UNL     1     -44.604 -48.345   7.221  1.00  0.00    -0.375 N 
HETATM   18  C   UNL     1     -43.644 -47.872   8.047  1.00  0.00     0.094 A 
ATOM     19  HN  UNL     1     -44.400 -48.601   6.256  1.00  0.00     0.164 HD
ENDBRANCH  12  13
ENDBRANCH  11  12
ENDBRANCH   9  11
BRANCH   1  20
HETATM   20  O   UNL     1     -44.303 -52.880  15.190  1.00  0.00    -0.381 OA
HETATM   21  H   UNL     1     -44.190 -53.564  14.512  1.00  0.00     0.211 HD
ENDBRANCH   1  20
BRANCH   1  22
HETATM   22  C   UNL     1     -46.525 -51.818  15.007  1.00  0.00     0.418 C 
HETATM   23  F   UNL     1     -47.274 -50.971  14.262  1.00  0.00    -0.168 F 
HETATM   24  F   UNL     1     -47.031 -53.059  14.810  1.00  0.00    -0.168 F 
HETATM   25  F   UNL     1     -46.755 -51.502  16.305  1.00  0.00    -0.168 F 
ENDBRANCH   1  22
TORSDOF 5
ENDMDL
MODEL 2
REMARK VINA RESULT:      -6.3      4.283      5.588
REMARK  5 active torsions:
REMARK  status: ('A' for Active; 'I' for Inactive)
REMARK    1  A    between atoms: O_1  and  C_2 
REMARK    2  A    between atoms: C_2  and  C_20 
REMARK       I    between atoms: N_5  and  C_8 
REMARK       I    between atoms: C_8  and  N_10 
REMARK    3  A    between atoms: N_10  and  C_11 
REMARK    4  A    between atoms: C_11  and  C_12 
REMARK    5  A    between atoms: C_12  and  C_13 
ROOT
HETATM    1  C   UNL     1     -45.459 -52.923  13.788  1.00  0.00     0.158 C 
HETATM    2  C   UNL     1     -44.291 -52.268  13.024  1.00  0.00     0.067 C 
HETATM    3  C   UNL     1     -43.166 -53.248  12.691  1.00  0.00     0.131 C 
HETATM    4  N   UNL     1     -42.733 -53.975  13.884  1.00  0.00    -0.334 N 
HETATM    5  C   UNL     1     -43.794 -54.679  14.601  1.00  0.00     0.131 C 
HETATM    6  C   UNL     1     -44.921 -53.726  14.987  1.00  0.00     0.067 C 
HETATM    7  C   UNL     1     -41.448 -54.036  14.399  1.00  0.00     0.318 C 
HETATM    8  O   UNL     1     -41.189 -54.583  15.468  1.00  0.00    -0.247 OA
HETATM    9  N   UNL     1     -40.469 -53.438  13.645  1.00  0.00    -0.343 N 
HETATM   10  H   UNL     1     -40.594 -53.538  12.651  1.00  0.00     0.164 HD
ENDROOT
BRANCH   9  11
HETATM   11  C   UNL     1     -39.090 -53.502  14.119  1.00  0.00     0.129 C 
BRANCH  11  12
HETATM   12  C   UNL     1     -38.616 -52.173  14.706  1.00  0.00     0.060 C 
BRANCH  12  13
HETATM   13  C   UNL     1     -38.565 -51.063  13.691  1.00  0.00    -0.041 A 
HETATM   14  C   UNL     1     -37.565 -51.016  12.715  1.00  0.00     0.010 A 
HETATM   15  C   UNL     1     -37.533 -49.960  11.806  1.00  0.00     0.018 A 
HETATM   16  C   UNL     1     -38.511 -48.986  11.899  1.00  0.00     0.087 A 
HETATM   17  N   UNL     1     -39.504 -49.005  12.815  1.00  0.00    -0.375 N 
HETATM   18  C   UNL     1     -39.511 -50.041  13.682  1.00  0.00     0.094 A 
ATOM     19  HN  UNL     1     -40.214 -48.274  12.849  1.00  0.00     0.164 HD
ENDBRANCH  12  13
ENDBRANCH  11  12
ENDBRANCH   9  11
BRANCH   1  20
HETATM   20  O   UNL     1     -46.135 -53.830  12.882  1.00  0.00    -0.381 OA
HETATM   21  H   UNL     1     -45.491 -54.371  12.400  1.00  0.00     0.211 HD
ENDBRANCH   1  20
BRANCH   1  22
HETATM   22  C   UNL     1     -46.458 -51.824  14.285  1.00  0.00     0.418 C 
HETATM   23  F   UNL     1     -47.096 -51.214  13.258  1.00  0.00    -0.168 F 
HETATM   24  F   UNL     1     -47.420 -52.334  15.091  1.00  0.00    -0.168 F 
HETATM   25  F   UNL     1     -45.833 -50.850  14.989  1.00  0.00    -0.168 F 
ENDBRANCH   1  22
TORSDOF 5
ENDMDL
MODEL 3
REMARK VINA RESULT:      -6.0      4.223      6.982
REMARK  5 active torsions:
REMARK  status: ('A' for Active; 'I' for Inactive)
REMARK    1  A    between atoms: O_1  and  C_2 
REMARK    2  A    between atoms: C_2  and  C_20 
REMARK       I    between atoms: N_5  and  C_8 
REMARK       I    between atoms: C_8  and  N_10 
REMARK    3  A    between atoms: N_10  and  C_11 
REMARK    4  A    between atoms: C_11  and  C_12 
REMARK    5  A    between atoms: C_12  and  C_13 
ROOT
HETATM    1  C   UNL     1     -43.039 -46.431  10.474  1.00  0.00     0.158 C 
HETATM    2  C   UNL     1     -43.636 -47.689  11.135  1.00  0.00     0.067 C 
HETATM    3  C   UNL     1     -42.817 -48.190  12.324  1.00  0.00     0.131 C 
HETATM    4  N   UNL     1     -41.408 -48.348  11.962  1.00  0.00    -0.334 N 
HETATM    5  C   UNL     1     -40.773 -47.156  11.402  1.00  0.00     0.131 C 
HETATM    6  C   UNL     1     -41.540 -46.646  10.186  1.00  0.00     0.067 C 
HETATM    7  C   UNL     1     -40.646 -49.500  12.073  1.00  0.00     0.318 C 
HETATM    8  O   UNL     1     -39.497 -49.577  11.646  1.00  0.00    -0.247 OA
HETATM    9  N   UNL     1     -41.254 -50.567  12.688  1.00  0.00    -0.343 N 
HETATM   10  H   UNL     1     -41.858 -50.314  13.453  1.00  0.00     0.164 HD
ENDROOT
BRANCH   9  11
HETATM   11  C   UNL     1     -40.487 -51.796  12.867  1.00  0.00     0.129 C 
BRANCH  11  12
HETATM   12  C   UNL     1     -41.136 -52.991  12.170  1.00  0.00     0.060 C 
BRANCH  12  13
HETATM   13  C   UNL     1     -42.285 -53.575  12.946  1.00  0.00    -0.041 A 
HETATM   14  C   UNL     1     -42.070 -54.349  14.091  1.00  0.00     0.010 A 
HETATM   15  C   UNL     1     -43.155 -54.896  14.772  1.00  0.00     0.018 A 
HETATM   16  C   UNL     1     -44.427 -54.644  14.288  1.00  0.00     0.087 A 
HETATM   17  N   UNL     1     -44.678 -53.887  13.197  1.00  0.00    -0.375 N 
HETATM   18  C   UNL     1     -43.606 -53.368  12.558  1.00  0.00     0.094 A 
ATOM     19  HN  UNL     1     -45.629 -53.716  12.873  1.00  0.00     0.164 HD
ENDBRANCH  12  13
ENDBRANCH  11  12
ENDBRANCH   9  11
BRANCH   1  20
HETATM   20  O   UNL     1     -43.183 -45.326  11.400  1.00  0.00    -0.381 OA
HETATM   21  H   UNL     1     -44.119 -45.097  11.513  1.00  0.00     0.211 HD
ENDBRANCH   1  20
BRANCH   1  22
HETATM   22  C   UNL     1     -43.799 -46.112   9.142  1.00  0.00     0.418 C 
HETATM   23  F   UNL     1     -44.904 -46.879   8.991  1.00  0.00    -0.168 F 
HETATM   24  F   UNL     1     -44.210 -44.823   9.084  1.00  0.00    -0.168 F 
HETATM   25  F   UNL     1     -43.024 -46.327   8.051  1.00  0.00    -0.168 F 
ENDBRANCH   1  22
TORSDOF 5
ENDMDL
MODEL 4
REMARK VINA RESULT:      -6.0      4.652      7.314
REMARK  5 active torsions:
REMARK  status: ('A' for Active; 'I' for Inactive)
REMARK    1  A    between atoms: O_1  and  C_2 
REMARK    2  A    between atoms: C_2  and  C_20 
REMARK       I    between atoms: N_5  and  C_8 
REMARK       I    between atoms: C_8  and  N_10 
REMARK    3  A    between atoms: N_10  and  C_11 
REMARK    4  A    between atoms: C_11  and  C_12 
REMARK    5  A    between atoms: C_12  and  C_13 
ROOT
HETATM    1  C   UNL     1     -41.111 -45.879  10.934  1.00  0.00     0.158 C 
HETATM    2  C   UNL     1     -40.513 -47.279  10.693  1.00  0.00     0.067 C 
HETATM    3  C   UNL     1     -41.573 -48.374  10.583  1.00  0.00     0.131 C 
HETATM    4  N   UNL     1     -42.491 -48.333  11.720  1.00  0.00    -0.334 N 
HETATM    5  C   UNL     1     -43.146 -47.045  11.943  1.00  0.00     0.131 C 
HETATM    6  C   UNL     1     -42.119 -45.928  12.099  1.00  0.00     0.067 C 
HETATM    7  C   UNL     1     -42.773 -49.367  12.599  1.00  0.00     0.318 C 
HETATM    8  O   UNL     1     -43.478 -49.216  13.594  1.00  0.00    -0.247 OA
HETATM    9  N   UNL     1     -42.209 -50.582  12.299  1.00  0.00    -0.343 N 
HETATM   10  H   UNL     1     -42.167 -50.786  11.314  1.00  0.00     0.164 HD
ENDROOT
BRANCH   9  11
HETATM   11  C   UNL     1     -42.500 -51.717  13.169  1.00  0.00     0.129 C 
BRANCH  11  12
HETATM   12  C   UNL     1     -43.429 -52.733  12.505  1.00  0.00     0.060 C 
BRANCH  12  13
HETATM   13  C   UNL     1     -44.730 -52.913  13.239  1.00  0.00    -0.041 A 
HETATM   14  C   UNL     1     -45.499 -51.814  13.636  1.00  0.00     0.010 A 
HETATM   15  C   UNL     1     -46.686 -52.015  14.337  1.00  0.00     0.018 A 
HETATM   16  C   UNL     1     -47.072 -53.315  14.613  1.00  0.00     0.087 A 
HETATM   17  N   UNL     1     -46.367 -54.403  14.231  1.00  0.00    -0.375 N 
HETATM   18  C   UNL     1     -45.221 -54.178  13.552  1.00  0.00     0.094 A 
ATOM     19  HN  UNL     1     -46.685 -55.348  14.445  1.00  0.00     0.164 HD
ENDBRANCH  12  13
ENDBRANCH  11  12
ENDBRANCH   9  11
BRANCH   1  20
HETATM   20  O   UNL     1     -41.808 -45.475   9.730  1.00  0.00    -0.381 OA
HETATM   21  H   UNL     1     -41.280 -45.689   8.944  1.00  0.00     0.211 HD
ENDBRANCH   1  20
BRANCH   1  22
HETATM   22  C   UNL     1     -39.970 -44.856  11.257  1.00  0.00     0.418 C 
HETATM   23  F   UNL     1     -39.048 -44.792  10.268  1.00  0.00    -0.168 F 
HETATM   24  F   UNL     1     -40.444 -43.598  11.428  1.00  0.00    -0.168 F 
HETATM   25  F   UNL     1     -39.303 -45.180  12.391  1.00  0.00    -0.168 F 
ENDBRANCH   1  22
TORSDOF 5
ENDMDL
MODEL 5
REMARK VINA RESULT:      -5.9      5.606      8.298
REMARK  5 active torsions:
REMARK  status: ('A' for Active; 'I' for Inactive)
REMARK    1  A    between atoms: O_1  and  C_2 
REMARK    2  A    between atoms: C_2  and  C_20 
REMARK       I    between atoms: N_5  and  C_8 
REMARK       I    between atoms: C_8  and  N_10 
REMARK    3  A    between atoms: N_10  and  C_11 
REMARK    4  A    between atoms: C_11  and  C_12 
REMARK    5  A    between atoms: C_12  and  C_13 
ROOT
HETATM    1  C   UNL     1     -40.796 -43.516  11.491  1.00  0.00     0.158 C 
HETATM    2  C   UNL     1     -39.642 -44.533  11.590  1.00  0.00     0.067 C 
HETATM    3  C   UNL     1     -39.774 -45.690  10.600  1.00  0.00     0.131 C 
HETATM    4  N   UNL     1     -41.094 -46.312  10.692  1.00  0.00    -0.334 N 
HETATM    5  C   UNL     1     -42.224 -45.399  10.525  1.00  0.00     0.131 C 
HETATM    6  C   UNL     1     -42.151 -44.249  11.524  1.00  0.00     0.067 C 
HETATM    7  C   UNL     1     -41.368 -47.647  10.941  1.00  0.00     0.318 C 
HETATM    8  O   UNL     1     -42.510 -48.069  11.109  1.00  0.00    -0.247 OA
HETATM    9  N   UNL     1     -40.281 -48.484  10.999  1.00  0.00    -0.343 N 
HETATM   10  H   UNL     1     -39.549 -48.256  10.346  1.00  0.00     0.164 HD
ENDROOT
BRANCH   9  11
HETATM   11  C   UNL     1     -40.510 -49.908  11.223  1.00  0.00     0.129 C 
BRANCH  11  12
HETATM   12  C   UNL     1     -40.489 -50.273  12.707  1.00  0.00     0.060 C 
BRANCH  12  13
HETATM   13  C   UNL     1     -40.350 -51.751  12.950  1.00  0.00    -0.041 A 
HETATM   14  C   UNL     1     -39.520 -52.247  13.960  1.00  0.00     0.010 A 
HETATM   15  C   UNL     1     -39.394 -53.623  14.142  1.00  0.00     0.018 A 
HETATM   16  C   UNL     1     -40.112 -54.462  13.308  1.00  0.00     0.087 A 
HETATM   17  N   UNL     1     -40.938 -54.023  12.333  1.00  0.00    -0.375 N 
HETATM   18  C   UNL     1     -41.041 -52.684  12.181  1.00  0.00     0.094 A 
ATOM     19  HN  UNL     1     -41.458 -54.670  11.741  1.00  0.00     0.164 HD
ENDBRANCH  12  13
ENDBRANCH  11  12
ENDBRANCH   9  11
BRANCH   1  20
HETATM   20  O   UNL     1     -40.673 -42.819  10.226  1.00  0.00    -0.381 OA
HETATM   21  H   UNL     1     -41.463 -42.284  10.055  1.00  0.00     0.211 HD
ENDBRANCH   1  20
BRANCH   1  22
HETATM   22  C   UNL     1     -40.713 -42.492  12.673  1.00  0.00     0.418 C 
HETATM   23  F   UNL     1     -41.928 -41.993  13.001  1.00  0.00    -0.168 F 
HETATM   24  F   UNL     1     -40.206 -43.051  13.798  1.00  0.00    -0.168 F 
HETATM   25  F   UNL     1     -39.924 -41.432  12.373  1.00  0.00    -0.168 F 
ENDBRANCH   1  22
TORSDOF 5
ENDMDL
MODEL 6
REMARK VINA RESULT:      -5.8      4.251      5.933
REMARK  5 active torsions:
REMARK  status: ('A' for Active; 'I' for Inactive)
REMARK    1  A    between atoms: O_1  and  C_2 
REMARK    2  A    between atoms: C_2  and  C_20 
REMARK       I    between atoms: N_5  and  C_8 
REMARK       I    between atoms: C_8  and  N_10 
REMARK    3  A    between atoms: N_10  and  C_11 
REMARK    4  A    between atoms: C_11  and  C_12 
REMARK    5  A    between atoms: C_12  and  C_13 
ROOT
HETATM    1  C   UNL     1     -44.055 -54.417  14.428  1.00  0.00     0.158 C 
HETATM    2  C   UNL     1     -43.365 -54.290  13.055  1.00  0.00     0.067 C 
HETATM    3  C   UNL     1     -41.901 -53.863  13.155  1.00  0.00     0.131 C 
HETATM    4  N   UNL     1     -41.759 -52.663  13.980  1.00  0.00    -0.334 N 
HETATM    5  C   UNL     1     -42.329 -52.761  15.322  1.00  0.00     0.131 C 
HETATM    6  C   UNL     1     -43.804 -53.148  15.265  1.00  0.00     0.067 C 
HETATM    7  C   UNL     1     -41.173 -51.464  13.608  1.00  0.00     0.318 C 
HETATM    8  O   UNL     1     -41.190 -50.468  14.327  1.00  0.00    -0.247 OA
HETATM    9  N   UNL     1     -40.570 -51.446  12.374  1.00  0.00    -0.343 N 
HETATM   10  H   UNL     1     -40.106 -52.305  12.129  1.00  0.00     0.164 HD
ENDROOT
BRANCH   9  11
HETATM   11  C   UNL     1     -39.903 -50.220  11.944  1.00  0.00     0.129 C 
BRANCH  11  12
HETATM   12  C   UNL     1     -38.382 -50.317  12.059  1.00  0.00     0.060 C 
BRANCH  12  13
HETATM   13  C   UNL     1     -37.845 -49.706  13.325  1.00  0.00    -0.041 A 
HETATM   14  C   UNL     1     -37.850 -48.322  13.524  1.00  0.00     0.010 A 
HETATM   15  C   UNL     1     -37.322 -47.788  14.698  1.00  0.00     0.018 A 
HETATM   16  C   UNL     1     -36.811 -48.660  15.642  1.00  0.00     0.087 A 
HETATM   17  N   UNL     1     -36.804 -50.004  15.497  1.00  0.00    -0.375 N 
HETATM   18  C   UNL     1     -37.324 -50.493  14.349  1.00  0.00     0.094 A 
ATOM     19  HN  UNL     1     -36.426 -50.617  16.217  1.00  0.00     0.164 HD
ENDBRANCH  12  13
ENDBRANCH  11  12
ENDBRANCH   9  11
BRANCH   1  20
HETATM   20  O   UNL     1     -43.477 -55.553  15.117  1.00  0.00    -0.381 OA
HETATM   21  H   UNL     1     -42.581 -55.728  14.790  1.00  0.00     0.211 HD
ENDBRANCH   1  20
BRANCH   1  22
HETATM   22  C   UNL     1     -45.593 -54.636  14.237  1.00  0.00     0.418 C 
HETATM   23  F   UNL     1     -46.261 -54.615  15.416  1.00  0.00    -0.168 F 
HETATM   24  F   UNL     1     -46.154 -53.680  13.458  1.00  0.00    -0.168 F 
HETATM   25  F   UNL     1     -45.869 -55.828  13.655  1.00  0.00    -0.168 F 
ENDBRANCH   1  22
TORSDOF 5
ENDMDL
MODEL 7
REMARK VINA RESULT:      -5.8      3.709      4.503
REMARK  5 active torsions:
REMARK  status: ('A' for Active; 'I' for Inactive)
REMARK    1  A    between atoms: O_1  and  C_2 
REMARK    2  A    between atoms: C_2  and  C_20 
REMARK       I    between atoms: N_5  and  C_8 
REMARK       I    between atoms: C_8  and  N_10 
REMARK    3  A    between atoms: N_10  and  C_11 
REMARK    4  A    between atoms: C_11  and  C_12 
REMARK    5  A    between atoms: C_12  and  C_13 
ROOT
HETATM    1  C   UNL     1     -44.154 -53.813  13.406  1.00  0.00     0.158 C 
HETATM    2  C   UNL     1     -44.198 -52.272  13.405  1.00  0.00     0.067 C 
HETATM    3  C   UNL     1     -42.915 -51.635  12.874  1.00  0.00     0.131 C 
HETATM    4  N   UNL     1     -41.739 -52.173  13.557  1.00  0.00    -0.334 N 
HETATM    5  C   UNL     1     -41.610 -53.628  13.519  1.00  0.00     0.131 C 
HETATM    6  C   UNL     1     -42.858 -54.304  14.079  1.00  0.00     0.067 C 
HETATM    7  C   UNL     1     -40.774 -51.452  14.242  1.00  0.00     0.318 C 
HETATM    8  O   UNL     1     -39.874 -51.991  14.881  1.00  0.00    -0.247 OA
HETATM    9  N   UNL     1     -40.884 -50.085  14.175  1.00  0.00    -0.343 N 
HETATM   10  H   UNL     1     -41.200 -49.739  13.285  1.00  0.00     0.164 HD
ENDROOT
BRANCH   9  11
HETATM   11  C   UNL     1     -39.874 -49.273  14.848  1.00  0.00     0.129 C 
BRANCH  11  12
HETATM   12  C   UNL     1     -38.797 -48.772  13.885  1.00  0.00     0.060 C 
BRANCH  12  13
HETATM   13  C   UNL     1     -39.296 -47.713  12.940  1.00  0.00    -0.041 A 
HETATM   14  C   UNL     1     -39.455 -46.387  13.352  1.00  0.00     0.010 A 
HETATM   15  C   UNL     1     -39.943 -45.436  12.458  1.00  0.00     0.018 A 
HETATM   16  C   UNL     1     -40.251 -45.843  11.172  1.00  0.00     0.087 A 
HETATM   17  N   UNL     1     -40.095 -47.110  10.730  1.00  0.00    -0.375 N 
HETATM   18  C   UNL     1     -39.619 -48.010  11.618  1.00  0.00     0.094 A 
ATOM     19  HN  UNL     1     -40.326 -47.374   9.772  1.00  0.00     0.164 HD
ENDBRANCH  12  13
ENDBRANCH  11  12
ENDBRANCH   9  11
BRANCH   1  20
HETATM   20  O   UNL     1     -44.166 -54.263  12.029  1.00  0.00    -0.381 OA
HETATM   21  H   UNL     1     -44.387 -55.207  11.982  1.00  0.00     0.211 HD
ENDBRANCH   1  20
BRANCH   1  22
HETATM   22  C   UNL     1     -45.399 -54.385  14.164  1.00  0.00     0.418 C 
HETATM   23  F   UNL     1     -46.497 -53.610  13.997  1.00  0.00    -0.168 F 
HETATM   24  F   UNL     1     -45.732 -55.627  13.737  1.00  0.00    -0.168 F 
HETATM   25  F   UNL     1     -45.185 -54.474  15.499  1.00  0.00    -0.168 F 
ENDBRANCH   1  22
TORSDOF 5
ENDMDL
MODEL 8
REMARK VINA RESULT:      -5.8      3.808      6.147
REMARK  5 active torsions:
REMARK  status: ('A' for Active; 'I' for Inactive)
REMARK    1  A    between atoms: O_1  and  C_2 
REMARK    2  A    between atoms: C_2  and  C_20 
REMARK       I    between atoms: N_5  and  C_8 
REMARK       I    between atoms: C_8  and  N_10 
REMARK    3  A    between atoms: N_10  and  C_11 
REMARK    4  A    between atoms: C_11  and  C_12 
REMARK    5  A    between atoms: C_12  and  C_13 
ROOT
HETATM    1  C   UNL     1     -45.341 -51.914  13.477  1.00  0.00     0.158 C 
HETATM    2  C   UNL     1     -44.286 -50.898  13.959  1.00  0.00     0.067 C 
HETATM    3  C   UNL     1     -43.043 -50.855  13.071  1.00  0.00     0.131 C 
HETATM    4  N   UNL     1     -42.495 -52.196  12.870  1.00  0.00    -0.334 N 
HETATM    5  C   UNL     1     -43.437 -53.179  12.338  1.00  0.00     0.131 C 
HETATM    6  C   UNL     1     -44.678 -53.281  13.219  1.00  0.00     0.067 C 
HETATM    7  C   UNL     1     -41.206 -52.619  13.153  1.00  0.00     0.318 C 
HETATM    8  O   UNL     1     -40.856 -53.792  13.054  1.00  0.00    -0.247 OA
HETATM    9  N   UNL     1     -40.330 -51.643  13.563  1.00  0.00    -0.343 N 
HETATM   10  H   UNL     1     -40.456 -50.756  13.105  1.00  0.00     0.164 HD
ENDROOT
BRANCH   9  11
HETATM   11  C   UNL     1     -38.948 -52.023  13.840  1.00  0.00     0.129 C 
BRANCH  11  12
HETATM   12  C   UNL     1     -37.944 -51.087  13.167  1.00  0.00     0.060 C 
BRANCH  12  13
HETATM   13  C   UNL     1     -37.538 -49.929  14.039  1.00  0.00    -0.041 A 
HETATM   14  C   UNL     1     -36.880 -50.131  15.255  1.00  0.00     0.010 A 
HETATM   15  C   UNL     1     -36.541 -49.037  16.050  1.00  0.00     0.018 A 
HETATM   16  C   UNL     1     -36.867 -47.772  15.596  1.00  0.00     0.087 A 
HETATM   17  N   UNL     1     -37.486 -47.534  14.419  1.00  0.00    -0.375 N 
HETATM   18  C   UNL     1     -37.801 -48.613  13.669  1.00  0.00     0.094 A 
ATOM     19  HN  UNL     1     -37.705 -46.587  14.111  1.00  0.00     0.164 HD
ENDBRANCH  12  13
ENDBRANCH  11  12
ENDBRANCH   9  11
BRANCH   1  20
HETATM   20  O   UNL     1     -45.900 -51.424  12.233  1.00  0.00    -0.381 OA
HETATM   21  H   UNL     1     -45.217 -51.387  11.545  1.00  0.00     0.211 HD
ENDBRANCH   1  20
BRANCH   1  22
HETATM   22  C   UNL     1     -46.473 -52.061  14.548  1.00  0.00     0.418 C 
HETATM   23  F   UNL     1     -47.225 -53.169  14.345  1.00  0.00    -0.168 F 
HETATM   24  F   UNL     1     -45.979 -52.153  15.806  1.00  0.00    -0.168 F 
HETATM   25  F   UNL     1     -47.324 -51.007  14.536  1.00  0.00    -0.168 F 
ENDBRANCH   1  22
TORSDOF 5
ENDMDL
MODEL 9
REMARK VINA RESULT:      -5.7      5.623      7.279
REMARK  5 active torsions:
REMARK  status: ('A' for Active; 'I' for Inactive)
REMARK    1  A    between atoms: O_1  and  C_2 
REMARK    2  A    between atoms: C_2  and  C_20 
REMARK       I    between atoms: N_5  and  C_8 
REMARK       I    between atoms: C_8  and  N_10 
REMARK    3  A    between atoms: N_10  and  C_11 
REMARK    4  A    between atoms: C_11  and  C_12 
REMARK    5  A    between atoms: C_12  and  C_13 
ROOT
HETATM    1  C   UNL     1     -37.640 -49.517  14.798  1.00  0.00     0.158 C 
HETATM    2  C   UNL     1     -38.799 -50.049  15.666  1.00  0.00     0.067 C 
HETATM    3  C   UNL     1     -39.002 -51.558  15.537  1.00  0.00     0.131 C 
HETATM    4  N   UNL     1     -39.110 -51.955  14.134  1.00  0.00    -0.334 N 
HETATM    5  C   UNL     1     -37.994 -51.542  13.284  1.00  0.00     0.131 C 
HETATM    6  C   UNL     1     -37.782 -50.033  13.353  1.00  0.00     0.067 C 
HETATM    7  C   UNL     1     -40.155 -52.648  13.544  1.00  0.00     0.318 C 
HETATM    8  O   UNL     1     -40.217 -52.849  12.334  1.00  0.00    -0.247 OA
HETATM    9  N   UNL     1     -41.136 -53.095  14.394  1.00  0.00    -0.343 N 
HETATM   10  H   UNL     1     -40.796 -53.408  15.289  1.00  0.00     0.164 HD
ENDROOT
BRANCH   9  11
HETATM   11  C   UNL     1     -42.244 -53.863  13.834  1.00  0.00     0.129 C 
BRANCH  11  12
HETATM   12  C   UNL     1     -43.513 -53.750  14.679  1.00  0.00     0.060 C 
BRANCH  12  13
HETATM   13  C   UNL     1     -44.606 -52.968  14.002  1.00  0.00    -0.041 A 
HETATM   14  C   UNL     1     -45.451 -52.123  14.727  1.00  0.00     0.010 A 
HETATM   15  C   UNL     1     -46.470 -51.433  14.072  1.00  0.00     0.018 A 
HETATM   16  C   UNL     1     -46.605 -51.607  12.706  1.00  0.00     0.087 A 
HETATM   17  N   UNL     1     -45.799 -52.400  11.967  1.00  0.00    -0.375 N 
HETATM   18  C   UNL     1     -44.819 -53.055  12.629  1.00  0.00     0.094 A 
ATOM     19  HN  UNL     1     -45.923 -52.499  10.960  1.00  0.00     0.164 HD
ENDBRANCH  12  13
ENDBRANCH  11  12
ENDBRANCH   9  11
BRANCH   1  20
HETATM   20  O   UNL     1     -36.398 -50.017  15.353  1.00  0.00    -0.381 OA
HETATM   21  H   UNL     1     -36.202 -50.901  15.005  1.00  0.00     0.211 HD
ENDBRANCH   1  20
BRANCH   1  22
HETATM   22  C   UNL     1     -37.636 -47.952  14.809  1.00  0.00     0.418 C 
HETATM   23  F   UNL     1     -38.241 -47.448  15.911  1.00  0.00    -0.168 F 
HETATM   24  F   UNL     1     -36.380 -47.443  14.789  1.00  0.00    -0.168 F 
HETATM   25  F   UNL     1     -38.285 -47.434  13.738  1.00  0.00    -0.168 F 
ENDBRANCH   1  22
TORSDOF 5
ENDMDL
