MODEL 1
REMARK VINA RESULT:      -6.2      0.000      0.000
REMARK  7 active torsions:
REMARK  status: ('A' for Active; 'I' for Inactive)
REMARK    1  A    between atoms: O_2  and  C_3 
REMARK    2  A    between atoms: C_3  and  C_4 
REMARK    3  A    between atoms: C_4  and  C_5 
REMARK    4  A    between atoms: N_8  and  C_9 
REMARK    5  A    between atoms: C_13  and  C_17 
REMARK    6  A    between atoms: C_21  and  O_22 
REMARK    7  A    between atoms: C_21  and  C_24 
ROOT
HETATM    1  C   UNL     1     -42.898 -53.421  13.770  1.00  0.00     0.011 C 
HETATM    2  N   UNL     1     -42.790 -52.132  13.702  1.00  0.00    -0.302 N 
ATOM      3  HN  UNL     1     -43.409 -51.448  14.136  1.00  0.00     0.186 HD
HETATM    4  N   UNL     1     -41.692 -51.864  12.940  1.00  0.00    -0.230 N 
HETATM    5  C   UNL     1     -40.859 -53.073  12.752  1.00  0.00     0.258 C 
HETATM    6  C   UNL     1     -41.932 -54.161  12.909  1.00  0.00     0.126 C 
ENDROOT
BRANCH   4   7
HETATM    7  C   UNL     1     -41.312 -50.566  12.600  1.00  0.00     0.147 A 
HETATM    8  N   UNL     1     -41.530 -50.187  11.308  1.00  0.00    -0.349 N 
HETATM    9  C   UNL     1     -41.264 -48.902  10.929  1.00  0.00     0.106 A 
ATOM     10  HN  UNL     1     -41.889 -50.858  10.629  1.00  0.00     0.167 HD
HETATM   11  C   UNL     1     -40.812 -47.916  11.786  1.00  0.00     0.065 A 
HETATM   12  C   UNL     1     -40.586 -48.295  13.106  1.00  0.00     0.045 A 
HETATM   13  C   UNL     1     -40.821 -49.616  13.524  1.00  0.00     0.080 A 
HETATM   14 CL   UNL     1     -40.525 -49.898  15.206  1.00  0.00    -0.080 Cl
BRANCH  11  15
HETATM   15  C   UNL     1     -40.602 -46.500  11.343  1.00  0.00     0.418 C 
HETATM   16  F   UNL     1     -41.636 -45.992  10.628  1.00  0.00    -0.166 F 
HETATM   17  F   UNL     1     -40.417 -45.654  12.396  1.00  0.00    -0.166 F 
HETATM   18  F   UNL     1     -39.496 -46.361  10.558  1.00  0.00    -0.166 F 
ENDBRANCH  11  15
ENDBRANCH   4   7
BRANCH   5  19
HETATM   19  O   UNL     1     -40.403 -53.201  11.398  1.00  0.00    -0.362 OA
HETATM   20  H   UNL     1     -41.115 -53.705  10.965  1.00  0.00     0.213 HD
ENDBRANCH   5  19
BRANCH   5  21
HETATM   21  C   UNL     1     -39.740 -53.244  13.845  1.00  0.00     0.440 C 
HETATM   22  F   UNL     1     -40.190 -53.101  15.114  1.00  0.00    -0.166 F 
HETATM   23  F   UNL     1     -39.160 -54.477  13.786  1.00  0.00    -0.166 F 
HETATM   24  F   UNL     1     -38.726 -52.355  13.687  1.00  0.00    -0.166 F 
ENDBRANCH   5  21
BRANCH   1  25
HETATM   25  C   UNL     1     -43.972 -54.114  14.548  1.00  0.00     0.080 C 
BRANCH  25  26
HETATM   26  C   UNL     1     -45.109 -54.557  13.641  1.00  0.00     0.172 C 
BRANCH  26  27
HETATM   27  O   UNL     1     -45.336 -53.552  12.658  1.00  0.00    -0.396 OA
HETATM   28  C   UNL     1     -46.324 -52.616  13.068  1.00  0.00     0.201 C 
ENDBRANCH  26  27
ENDBRANCH  25  26
ENDBRANCH   1  25
TORSDOF 7
ENDMDL
MODEL 2
REMARK VINA RESULT:      -6.2      2.818      3.910
REMARK  7 active torsions:
REMARK  status: ('A' for Active; 'I' for Inactive)
REMARK    1  A    between atoms: O_2  and  C_3 
REMARK    2  A    between atoms: C_3  and  C_4 
REMARK    3  A    between atoms: C_4  and  C_5 
REMARK    4  A    between atoms: N_8  and  C_9 
REMARK    5  A    between atoms: C_13  and  C_17 
REMARK    6  A    between atoms: C_21  and  O_22 
REMARK    7  A    between atoms: C_21  and  C_24 
ROOT
HETATM    1  C   UNL     1     -45.623 -51.887  14.147  1.00  0.00     0.011 C 
HETATM    2  N   UNL     1     -44.453 -51.334  14.179  1.00  0.00    -0.302 N 
ATOM      3  HN  UNL     1     -44.204 -50.467  14.653  1.00  0.00     0.186 HD
HETATM    4  N   UNL     1     -43.617 -52.132  13.455  1.00  0.00    -0.230 N 
HETATM    5  C   UNL     1     -44.229 -53.453  13.189  1.00  0.00     0.258 C 
HETATM    6  C   UNL     1     -45.717 -53.073  13.248  1.00  0.00     0.126 C 
ENDROOT
BRANCH   4   7
HETATM    7  C   UNL     1     -42.282 -51.803  13.219  1.00  0.00     0.147 A 
HETATM    8  N   UNL     1     -41.978 -51.354  11.967  1.00  0.00    -0.349 N 
HETATM    9  C   UNL     1     -40.709 -50.931  11.693  1.00  0.00     0.106 A 
ATOM     10  HN  UNL     1     -42.694 -51.335  11.240  1.00  0.00     0.167 HD
HETATM   11  C   UNL     1     -39.687 -50.887  12.623  1.00  0.00     0.065 A 
HETATM   12  C   UNL     1     -39.989 -51.344  13.901  1.00  0.00     0.045 A 
HETATM   13  C   UNL     1     -41.276 -51.815  14.211  1.00  0.00     0.080 A 
HETATM   14 CL   UNL     1     -41.483 -52.306  15.858  1.00  0.00    -0.080 Cl
BRANCH  11  15
HETATM   15  C   UNL     1     -38.327 -50.346  12.297  1.00  0.00     0.418 C 
HETATM   16  F   UNL     1     -38.164 -50.032  10.988  1.00  0.00    -0.166 F 
HETATM   17  F   UNL     1     -38.044 -49.212  12.998  1.00  0.00    -0.166 F 
HETATM   18  F   UNL     1     -37.332 -51.228  12.600  1.00  0.00    -0.166 F 
ENDBRANCH  11  15
ENDBRANCH   4   7
BRANCH   5  19
HETATM   19  O   UNL     1     -44.014 -53.878  11.837  1.00  0.00    -0.362 OA
HETATM   20  H   UNL     1     -43.880 -53.043  11.354  1.00  0.00     0.213 HD
ENDBRANCH   5  19
BRANCH   5  21
HETATM   21  C   UNL     1     -43.896 -54.534  14.282  1.00  0.00     0.440 C 
HETATM   22  F   UNL     1     -44.088 -54.104  15.552  1.00  0.00    -0.166 F 
HETATM   23  F   UNL     1     -44.668 -55.650  14.141  1.00  0.00    -0.166 F 
HETATM   24  F   UNL     1     -42.611 -54.965  14.205  1.00  0.00    -0.166 F 
ENDBRANCH   5  21
BRANCH   1  25
HETATM   25  C   UNL     1     -46.815 -51.323  14.856  1.00  0.00     0.080 C 
BRANCH  25  26
HETATM   26  C   UNL     1     -47.123 -52.107  16.122  1.00  0.00     0.172 C 
BRANCH  26  27
HETATM   27  O   UNL     1     -48.264 -51.536  16.755  1.00  0.00    -0.396 OA
HETATM   28  C   UNL     1     -47.908 -50.538  17.701  1.00  0.00     0.201 C 
ENDBRANCH  26  27
ENDBRANCH  25  26
ENDBRANCH   1  25
TORSDOF 7
ENDMDL
MODEL 3
REMARK VINA RESULT:      -5.9      3.461      6.640
REMARK  7 active torsions:
REMARK  status: ('A' for Active; 'I' for Inactive)
REMARK    1  A    between atoms: O_2  and  C_3 
REMARK    2  A    between atoms: C_3  and  C_4 
REMARK    3  A    between atoms: C_4  and  C_5 
REMARK    4  A    between atoms: N_8  and  C_9 
REMARK    5  A    between atoms: C_13  and  C_17 
REMARK    6  A    between atoms: C_21  and  O_22 
REMARK    7  A    between atoms: C_21  and  C_24 
ROOT
HETATM    1  C   UNL     1     -38.973 -49.055  13.334  1.00  0.00     0.011 C 
HETATM    2  N   UNL     1     -40.039 -49.624  13.800  1.00  0.00    -0.302 N 
ATOM      3  HN  UNL     1     -40.260 -49.788  14.781  1.00  0.00     0.186 HD
HETATM    4  N   UNL     1     -40.810 -49.961  12.727  1.00  0.00    -0.230 N 
HETATM    5  C   UNL     1     -40.341 -49.290  11.494  1.00  0.00     0.258 C 
HETATM    6  C   UNL     1     -38.860 -49.090  11.848  1.00  0.00     0.126 C 
ENDROOT
BRANCH   4   7
HETATM    7  C   UNL     1     -42.011 -50.658  12.855  1.00  0.00     0.147 A 
HETATM    8  N   UNL     1     -43.115 -49.918  13.161  1.00  0.00    -0.349 N 
HETATM    9  C   UNL     1     -44.338 -50.522  13.214  1.00  0.00     0.106 A 
ATOM     10  HN  UNL     1     -43.028 -48.919  13.350  1.00  0.00     0.167 HD
HETATM   11  C   UNL     1     -44.558 -51.859  12.937  1.00  0.00     0.065 A 
HETATM   12  C   UNL     1     -43.436 -52.621  12.625  1.00  0.00     0.045 A 
HETATM   13  C   UNL     1     -42.159 -52.038  12.591  1.00  0.00     0.080 A 
HETATM   14 CL   UNL     1     -40.887 -53.126  12.145  1.00  0.00    -0.080 Cl
BRANCH  11  15
HETATM   15  C   UNL     1     -45.928 -52.465  12.937  1.00  0.00     0.418 C 
HETATM   16  F   UNL     1     -46.791 -51.866  13.794  1.00  0.00    -0.166 F 
HETATM   17  F   UNL     1     -46.514 -52.409  11.707  1.00  0.00    -0.166 F 
HETATM   18  F   UNL     1     -45.912 -53.785  13.279  1.00  0.00    -0.166 F 
ENDBRANCH  11  15
ENDBRANCH   4   7
BRANCH   5  19
HETATM   19  O   UNL     1     -40.331 -50.182  10.372  1.00  0.00    -0.362 OA
HETATM   20  H   UNL     1     -41.159 -49.970   9.905  1.00  0.00     0.213 HD
ENDBRANCH   5  19
BRANCH   5  21
HETATM   21  C   UNL     1     -41.034 -47.903  11.228  1.00  0.00     0.440 C 
HETATM   22  F   UNL     1     -40.176 -46.930  10.837  1.00  0.00    -0.166 F 
HETATM   23  F   UNL     1     -41.980 -47.989  10.249  1.00  0.00    -0.166 F 
HETATM   24  F   UNL     1     -41.683 -47.433  12.325  1.00  0.00    -0.166 F 
ENDBRANCH   5  21
BRANCH   1  25
HETATM   25  C   UNL     1     -37.886 -48.512  14.208  1.00  0.00     0.080 C 
BRANCH  25  26
HETATM   26  C   UNL     1     -38.023 -47.007  14.384  1.00  0.00     0.172 C 
BRANCH  26  27
HETATM   27  O   UNL     1     -39.402 -46.658  14.326  1.00  0.00    -0.396 OA
HETATM   28  C   UNL     1     -39.597 -45.319  13.890  1.00  0.00     0.201 C 
ENDBRANCH  26  27
ENDBRANCH  25  26
ENDBRANCH   1  25
TORSDOF 7
ENDMDL
MODEL 4
REMARK VINA RESULT:      -5.8      3.060      7.252
REMARK  7 active torsions:
REMARK  status: ('A' for Active; 'I' for Inactive)
REMARK    1  A    between atoms: O_2  and  C_3 
REMARK    2  A    between atoms: C_3  and  C_4 
REMARK    3  A    between atoms: C_4  and  C_5 
REMARK    4  A    between atoms: N_8  and  C_9 
REMARK    5  A    between atoms: C_13  and  C_17 
REMARK    6  A    between atoms: C_21  and  O_22 
REMARK    7  A    between atoms: C_21  and  C_24 
ROOT
HETATM    1  C   UNL     1     -40.322 -46.587  12.078  1.00  0.00     0.011 C 
HETATM    2  N   UNL     1     -40.506 -47.707  12.702  1.00  0.00    -0.302 N 
ATOM      3  HN  UNL     1     -40.172 -47.943  13.636  1.00  0.00     0.186 HD
HETATM    4  N   UNL     1     -41.232 -48.510  11.874  1.00  0.00    -0.230 N 
HETATM    5  C   UNL     1     -41.813 -47.741  10.751  1.00  0.00     0.258 C 
HETATM    6  C   UNL     1     -40.800 -46.589  10.665  1.00  0.00     0.126 C 
ENDROOT
BRANCH   4   7
HETATM    7  C   UNL     1     -41.558 -49.826  12.199  1.00  0.00     0.147 A 
HETATM    8  N   UNL     1     -40.944 -50.803  11.472  1.00  0.00    -0.349 N 
HETATM    9  C   UNL     1     -41.149 -52.114  11.795  1.00  0.00     0.106 A 
ATOM     10  HN  UNL     1     -40.335 -50.556  10.691  1.00  0.00     0.167 HD
HETATM   11  C   UNL     1     -41.925 -52.540  12.858  1.00  0.00     0.065 A 
HETATM   12  C   UNL     1     -42.555 -51.550  13.603  1.00  0.00     0.045 A 
HETATM   13  C   UNL     1     -42.391 -50.192  13.280  1.00  0.00     0.080 A 
HETATM   14 CL   UNL     1     -43.216 -49.099  14.339  1.00  0.00    -0.080 Cl
BRANCH  11  15
HETATM   15  C   UNL     1     -42.063 -53.987  13.221  1.00  0.00     0.418 C 
HETATM   16  F   UNL     1     -43.265 -54.521  12.890  1.00  0.00    -0.166 F 
HETATM   17  F   UNL     1     -41.123 -54.763  12.611  1.00  0.00    -0.166 F 
HETATM   18  F   UNL     1     -41.910 -54.203  14.559  1.00  0.00    -0.166 F 
ENDBRANCH  11  15
ENDBRANCH   4   7
BRANCH   5  19
HETATM   19  O   UNL     1     -41.684 -48.436   9.504  1.00  0.00    -0.362 OA
HETATM   20  H   UNL     1     -42.451 -49.035   9.496  1.00  0.00     0.213 HD
ENDBRANCH   5  19
BRANCH   5  21
HETATM   21  C   UNL     1     -43.254 -47.182  11.049  1.00  0.00     0.440 C 
HETATM   22  F   UNL     1     -43.413 -46.728  12.315  1.00  0.00    -0.166 F 
HETATM   23  F   UNL     1     -43.571 -46.138  10.230  1.00  0.00    -0.166 F 
HETATM   24  F   UNL     1     -44.220 -48.114  10.844  1.00  0.00    -0.166 F 
ENDBRANCH   5  21
BRANCH   1  25
HETATM   25  C   UNL     1     -39.588 -45.427  12.673  1.00  0.00     0.080 C 
BRANCH  25  26
HETATM   26  C   UNL     1     -40.091 -44.109  12.106  1.00  0.00     0.172 C 
BRANCH  26  27
HETATM   27  O   UNL     1     -41.193 -43.659  12.889  1.00  0.00    -0.396 OA
HETATM   28  C   UNL     1     -42.367 -43.479  12.107  1.00  0.00     0.201 C 
ENDBRANCH  26  27
ENDBRANCH  25  26
ENDBRANCH   1  25
TORSDOF 7
ENDMDL
MODEL 5
REMARK VINA RESULT:      -5.8      2.784      4.241
REMARK  7 active torsions:
REMARK  status: ('A' for Active; 'I' for Inactive)
REMARK    1  A    between atoms: O_2  and  C_3 
REMARK    2  A    between atoms: C_3  and  C_4 
REMARK    3  A    between atoms: C_4  and  C_5 
REMARK    4  A    between atoms: N_8  and  C_9 
REMARK    5  A    between atoms: C_13  and  C_17 
REMARK    6  A    between atoms: C_21  and  O_22 
REMARK    7  A    between atoms: C_21  and  C_24 
ROOT
HETATM    1  C   UNL     1     -39.752 -51.410  13.453  1.00  0.00     0.011 C 
HETATM    2  N   UNL     1     -40.857 -50.848  13.077  1.00  0.00    -0.302 N 
ATOM      3  HN  UNL     1     -41.801 -51.135  13.331  1.00  0.00     0.186 HD
HETATM    4  N   UNL     1     -40.515 -49.798  12.276  1.00  0.00    -0.230 N 
HETATM    5  C   UNL     1     -39.074 -49.482  12.388  1.00  0.00     0.258 C 
HETATM    6  C   UNL     1     -38.531 -50.858  12.800  1.00  0.00     0.126 C 
ENDROOT
BRANCH   4   7
HETATM    7  C   UNL     1     -41.465 -49.004  11.634  1.00  0.00     0.147 A 
HETATM    8  N   UNL     1     -41.295 -48.816  10.294  1.00  0.00    -0.349 N 
HETATM    9  C   UNL     1     -42.235 -48.123   9.586  1.00  0.00     0.106 A 
ATOM     10  HN  UNL     1     -40.470 -49.190   9.823  1.00  0.00     0.167 HD
HETATM   11  C   UNL     1     -43.399 -47.613  10.131  1.00  0.00     0.065 A 
HETATM   12  C   UNL     1     -43.579 -47.800  11.498  1.00  0.00     0.045 A 
HETATM   13  C   UNL     1     -42.618 -48.482  12.262  1.00  0.00     0.080 A 
HETATM   14 CL   UNL     1     -43.025 -48.656  13.936  1.00  0.00    -0.080 Cl
BRANCH  11  15
HETATM   15  C   UNL     1     -44.438 -46.922   9.302  1.00  0.00     0.418 C 
HETATM   16  F   UNL     1     -44.253 -45.583   9.198  1.00  0.00    -0.166 F 
HETATM   17  F   UNL     1     -44.480 -47.400   8.027  1.00  0.00    -0.166 F 
HETATM   18  F   UNL     1     -45.696 -47.090   9.802  1.00  0.00    -0.166 F 
ENDBRANCH  11  15
ENDBRANCH   4   7
BRANCH   5  19
HETATM   19  O   UNL     1     -38.484 -49.224  11.107  1.00  0.00    -0.362 OA
HETATM   20  H   UNL     1     -38.161 -48.308  11.185  1.00  0.00     0.213 HD
ENDBRANCH   5  19
BRANCH   5  21
HETATM   21  C   UNL     1     -38.748 -48.410  13.493  1.00  0.00     0.440 C 
HETATM   22  F   UNL     1     -37.470 -48.461  13.942  1.00  0.00    -0.166 F 
HETATM   23  F   UNL     1     -38.938 -47.139  13.037  1.00  0.00    -0.166 F 
HETATM   24  F   UNL     1     -39.550 -48.533  14.582  1.00  0.00    -0.166 F 
ENDBRANCH   5  21
BRANCH   1  25
HETATM   25  C   UNL     1     -39.705 -52.590  14.373  1.00  0.00     0.080 C 
BRANCH  25  26
HETATM   26  C   UNL     1     -39.846 -53.893  13.601  1.00  0.00     0.172 C 
BRANCH  26  27
HETATM   27  O   UNL     1     -41.109 -53.907  12.943  1.00  0.00    -0.396 OA
HETATM   28  C   UNL     1     -42.171 -54.236  13.830  1.00  0.00     0.201 C 
ENDBRANCH  26  27
ENDBRANCH  25  26
ENDBRANCH   1  25
TORSDOF 7
ENDMDL
MODEL 6
REMARK VINA RESULT:      -5.7      3.628      5.971
REMARK  7 active torsions:
REMARK  status: ('A' for Active; 'I' for Inactive)
REMARK    1  A    between atoms: O_2  and  C_3 
REMARK    2  A    between atoms: C_3  and  C_4 
REMARK    3  A    between atoms: C_4  and  C_5 
REMARK    4  A    between atoms: N_8  and  C_9 
REMARK    5  A    between atoms: C_13  and  C_17 
REMARK    6  A    between atoms: C_21  and  O_22 
REMARK    7  A    between atoms: C_21  and  C_24 
ROOT
HETATM    1  C   UNL     1     -38.832 -50.980  14.766  1.00  0.00     0.011 C 
HETATM    2  N   UNL     1     -40.105 -50.848  14.963  1.00  0.00    -0.302 N 
ATOM      3  HN  UNL     1     -40.558 -50.563  15.831  1.00  0.00     0.186 HD
HETATM    4  N   UNL     1     -40.724 -51.163  13.790  1.00  0.00    -0.230 N 
HETATM    5  C   UNL     1     -39.759 -51.212  12.669  1.00  0.00     0.258 C 
HETATM    6  C   UNL     1     -38.475 -51.557  13.438  1.00  0.00     0.126 C 
ENDROOT
BRANCH   4   7
HETATM    7  C   UNL     1     -42.112 -51.194  13.658  1.00  0.00     0.147 A 
HETATM    8  N   UNL     1     -42.656 -52.366  13.221  1.00  0.00    -0.349 N 
HETATM    9  C   UNL     1     -44.013 -52.495  13.153  1.00  0.00     0.106 A 
ATOM     10  HN  UNL     1     -42.052 -53.142  12.946  1.00  0.00     0.167 HD
HETATM   11  C   UNL     1     -44.908 -51.514  13.539  1.00  0.00     0.065 A 
HETATM   12  C   UNL     1     -44.361 -50.315  13.984  1.00  0.00     0.045 A 
HETATM   13  C   UNL     1     -42.968 -50.136  14.038  1.00  0.00     0.080 A 
HETATM   14 CL   UNL     1     -42.466 -48.599  14.655  1.00  0.00    -0.080 Cl
BRANCH  11  15
HETATM   15  C   UNL     1     -46.391 -51.725  13.516  1.00  0.00     0.418 C 
HETATM   16  F   UNL     1     -46.978 -51.356  12.351  1.00  0.00    -0.166 F 
HETATM   17  F   UNL     1     -46.727 -53.031  13.713  1.00  0.00    -0.166 F 
HETATM   18  F   UNL     1     -47.029 -51.025  14.498  1.00  0.00    -0.166 F 
ENDBRANCH  11  15
ENDBRANCH   4   7
BRANCH   5  19
HETATM   19  O   UNL     1     -39.989 -52.342  11.817  1.00  0.00    -0.362 OA
HETATM   20  H   UNL     1     -39.144 -52.825  11.846  1.00  0.00     0.213 HD
ENDBRANCH   5  19
BRANCH   5  21
HETATM   21  C   UNL     1     -39.596 -49.840  11.916  1.00  0.00     0.440 C 
HETATM   22  F   UNL     1     -40.119 -48.785  12.585  1.00  0.00    -0.166 F 
HETATM   23  F   UNL     1     -38.285 -49.537  11.695  1.00  0.00    -0.166 F 
HETATM   24  F   UNL     1     -40.180 -49.853  10.690  1.00  0.00    -0.166 F 
ENDBRANCH   5  21
BRANCH   1  25
HETATM   25  C   UNL     1     -37.806 -50.695  15.817  1.00  0.00     0.080 C 
BRANCH  25  26
HETATM   26  C   UNL     1     -37.350 -49.245  15.760  1.00  0.00     0.172 C 
BRANCH  26  27
HETATM   27  O   UNL     1     -38.351 -48.470  15.107  1.00  0.00    -0.396 OA
HETATM   28  C   UNL     1     -37.811 -47.307  14.493  1.00  0.00     0.201 C 
ENDBRANCH  26  27
ENDBRANCH  25  26
ENDBRANCH   1  25
TORSDOF 7
ENDMDL
MODEL 7
REMARK VINA RESULT:      -5.7      3.693      5.665
REMARK  7 active torsions:
REMARK  status: ('A' for Active; 'I' for Inactive)
REMARK    1  A    between atoms: O_2  and  C_3 
REMARK    2  A    between atoms: C_3  and  C_4 
REMARK    3  A    between atoms: C_4  and  C_5 
REMARK    4  A    between atoms: N_8  and  C_9 
REMARK    5  A    between atoms: C_13  and  C_17 
REMARK    6  A    between atoms: C_21  and  O_22 
REMARK    7  A    between atoms: C_21  and  C_24 
ROOT
HETATM    1  C   UNL     1     -39.364 -54.044  15.506  1.00  0.00     0.011 C 
HETATM    2  N   UNL     1     -40.595 -53.691  15.702  1.00  0.00    -0.302 N 
ATOM      3  HN  UNL     1     -41.082 -53.660  16.597  1.00  0.00     0.186 HD
HETATM    4  N   UNL     1     -41.114 -53.369  14.483  1.00  0.00    -0.230 N 
HETATM    5  C   UNL     1     -40.049 -53.217  13.467  1.00  0.00     0.258 C 
HETATM    6  C   UNL     1     -38.973 -54.133  14.070  1.00  0.00     0.126 C 
ENDROOT
BRANCH   4   7
HETATM    7  C   UNL     1     -42.449 -53.007  14.308  1.00  0.00     0.147 A 
HETATM    8  N   UNL     1     -42.682 -51.744  13.847  1.00  0.00    -0.349 N 
HETATM    9  C   UNL     1     -43.961 -51.353  13.568  1.00  0.00     0.106 A 
ATOM     10  HN  UNL     1     -41.906 -51.095  13.711  1.00  0.00     0.167 HD
HETATM   11  C   UNL     1     -45.067 -52.174  13.685  1.00  0.00     0.065 A 
HETATM   12  C   UNL     1     -44.838 -53.463  14.156  1.00  0.00     0.045 A 
HETATM   13  C   UNL     1     -43.539 -53.889  14.481  1.00  0.00     0.080 A 
HETATM   14 CL   UNL     1     -43.436 -55.533  15.012  1.00  0.00    -0.080 Cl
BRANCH  11  15
HETATM   15  C   UNL     1     -46.444 -51.726  13.299  1.00  0.00     0.418 C 
HETATM   16  F   UNL     1     -47.057 -50.969  14.242  1.00  0.00    -0.166 F 
HETATM   17  F   UNL     1     -46.441 -50.982  12.158  1.00  0.00    -0.166 F 
HETATM   18  F   UNL     1     -47.281 -52.775  13.055  1.00  0.00    -0.166 F 
ENDBRANCH  11  15
ENDBRANCH   4   7
BRANCH   5  19
HETATM   19  O   UNL     1     -40.404 -53.839  12.225  1.00  0.00    -0.362 OA
HETATM   20  H   UNL     1     -40.484 -53.089  11.608  1.00  0.00     0.213 HD
ENDBRANCH   5  19
BRANCH   5  21
HETATM   21  C   UNL     1     -39.507 -51.746  13.337  1.00  0.00     0.440 C 
HETATM   22  F   UNL     1     -39.821 -50.953  14.389  1.00  0.00    -0.166 F 
HETATM   23  F   UNL     1     -38.147 -51.715  13.233  1.00  0.00    -0.166 F 
HETATM   24  F   UNL     1     -39.973 -51.121  12.224  1.00  0.00    -0.166 F 
ENDBRANCH   5  21
BRANCH   1  25
HETATM   25  C   UNL     1     -38.440 -54.444  16.614  1.00  0.00     0.080 C 
BRANCH  25  26
HETATM   26  C   UNL     1     -38.240 -55.951  16.644  1.00  0.00     0.172 C 
BRANCH  26  27
HETATM   27  O   UNL     1     -39.496 -56.590  16.436  1.00  0.00    -0.396 OA
HETATM   28  C   UNL     1     -39.762 -57.580  17.420  1.00  0.00     0.201 C 
ENDBRANCH  26  27
ENDBRANCH  25  26
ENDBRANCH   1  25
TORSDOF 7
ENDMDL
MODEL 8
REMARK VINA RESULT:      -5.6      3.335      6.541
REMARK  7 active torsions:
REMARK  status: ('A' for Active; 'I' for Inactive)
REMARK    1  A    between atoms: O_2  and  C_3 
REMARK    2  A    between atoms: C_3  and  C_4 
REMARK    3  A    between atoms: C_4  and  C_5 
REMARK    4  A    between atoms: N_8  and  C_9 
REMARK    5  A    between atoms: C_13  and  C_17 
REMARK    6  A    between atoms: C_21  and  O_22 
REMARK    7  A    between atoms: C_21  and  C_24 
ROOT
HETATM    1  C   UNL     1     -38.870 -49.376  13.158  1.00  0.00     0.011 C 
HETATM    2  N   UNL     1     -39.952 -49.911  13.625  1.00  0.00    -0.302 N 
ATOM      3  HN  UNL     1     -40.123 -50.189  14.591  1.00  0.00     0.186 HD
HETATM    4  N   UNL     1     -40.819 -50.033  12.580  1.00  0.00    -0.230 N 
HETATM    5  C   UNL     1     -40.370 -49.242  11.413  1.00  0.00     0.258 C 
HETATM    6  C   UNL     1     -38.856 -49.217  11.675  1.00  0.00     0.126 C 
ENDROOT
BRANCH   4   7
HETATM    7  C   UNL     1     -42.069 -50.638  12.708  1.00  0.00     0.147 A 
HETATM    8  N   UNL     1     -42.221 -51.854  12.109  1.00  0.00    -0.349 N 
HETATM    9  C   UNL     1     -43.389 -52.542  12.269  1.00  0.00     0.106 A 
ATOM     10  HN  UNL     1     -41.466 -52.247  11.546  1.00  0.00     0.167 HD
HETATM   11  C   UNL     1     -44.449 -52.107  13.043  1.00  0.00     0.065 A 
HETATM   12  C   UNL     1     -44.302 -50.866  13.656  1.00  0.00     0.045 A 
HETATM   13  C   UNL     1     -43.125 -50.117  13.489  1.00  0.00     0.080 A 
HETATM   14 CL   UNL     1     -43.101 -48.619  14.355  1.00  0.00    -0.080 Cl
BRANCH  11  15
HETATM   15  C   UNL     1     -45.685 -52.928  13.249  1.00  0.00     0.418 C 
HETATM   16  F   UNL     1     -45.484 -54.262  13.112  1.00  0.00    -0.166 F 
HETATM   17  F   UNL     1     -46.219 -52.750  14.490  1.00  0.00    -0.166 F 
HETATM   18  F   UNL     1     -46.676 -52.604  12.369  1.00  0.00    -0.166 F 
ENDBRANCH  11  15
ENDBRANCH   4   7
BRANCH   5  19
HETATM   19  O   UNL     1     -40.516 -49.970  10.186  1.00  0.00    -0.362 OA
HETATM   20  H   UNL     1     -40.482 -49.276   9.504  1.00  0.00     0.213 HD
ENDBRANCH   5  19
BRANCH   5  21
HETATM   21  C   UNL     1     -40.946 -47.778  11.384  1.00  0.00     0.440 C 
HETATM   22  F   UNL     1     -41.031 -47.201  12.607  1.00  0.00    -0.166 F 
HETATM   23  F   UNL     1     -40.175 -46.946  10.626  1.00  0.00    -0.166 F 
HETATM   24  F   UNL     1     -42.189 -47.724  10.839  1.00  0.00    -0.166 F 
ENDBRANCH   5  21
BRANCH   1  25
HETATM   25  C   UNL     1     -37.682 -49.050  14.009  1.00  0.00     0.080 C 
BRANCH  25  26
HETATM   26  C   UNL     1     -37.859 -49.579  15.424  1.00  0.00     0.172 C 
BRANCH  26  27
HETATM   27  O   UNL     1     -38.730 -48.706  16.138  1.00  0.00    -0.396 OA
HETATM   28  C   UNL     1     -38.014 -47.733  16.888  1.00  0.00     0.201 C 
ENDBRANCH  26  27
ENDBRANCH  25  26
ENDBRANCH   1  25
TORSDOF 7
ENDMDL
MODEL 9
REMARK VINA RESULT:      -5.3      3.542      6.597
REMARK  7 active torsions:
REMARK  status: ('A' for Active; 'I' for Inactive)
REMARK    1  A    between atoms: O_2  and  C_3 
REMARK    2  A    between atoms: C_3  and  C_4 
REMARK    3  A    between atoms: C_4  and  C_5 
REMARK    4  A    between atoms: N_8  and  C_9 
REMARK    5  A    between atoms: C_13  and  C_17 
REMARK    6  A    between atoms: C_21  and  O_22 
REMARK    7  A    between atoms: C_21  and  C_24 
ROOT
HETATM    1  C   UNL     1     -38.770 -48.901  13.344  1.00  0.00     0.011 C 
HETATM    2  N   UNL     1     -39.833 -49.437  13.855  1.00  0.00    -0.302 N 
ATOM      3  HN  UNL     1     -40.024 -49.579  14.846  1.00  0.00     0.186 HD
HETATM    4  N   UNL     1     -40.646 -49.777  12.814  1.00  0.00    -0.230 N 
HETATM    5  C   UNL     1     -40.204 -49.139  11.554  1.00  0.00     0.258 C 
HETATM    6  C   UNL     1     -38.707 -48.966  11.855  1.00  0.00     0.126 C 
ENDROOT
BRANCH   4   7
HETATM    7  C   UNL     1     -41.857 -50.444  12.995  1.00  0.00     0.147 A 
HETATM    8  N   UNL     1     -42.927 -49.678  13.355  1.00  0.00    -0.349 N 
HETATM    9  C   UNL     1     -44.161 -50.252  13.462  1.00  0.00     0.106 A 
ATOM     10  HN  UNL     1     -42.805 -48.682  13.543  1.00  0.00     0.167 HD
HETATM   11  C   UNL     1     -44.427 -51.581  13.190  1.00  0.00     0.065 A 
HETATM   12  C   UNL     1     -43.341 -52.369  12.824  1.00  0.00     0.045 A 
HETATM   13  C   UNL     1     -42.052 -51.819  12.733  1.00  0.00     0.080 A 
HETATM   14 CL   UNL     1     -40.830 -52.935  12.224  1.00  0.00    -0.080 Cl
BRANCH  11  15
HETATM   15  C   UNL     1     -45.811 -52.153  13.251  1.00  0.00     0.418 C 
HETATM   16  F   UNL     1     -46.508 -51.781  14.352  1.00  0.00    -0.166 F 
HETATM   17  F   UNL     1     -46.567 -51.782  12.179  1.00  0.00    -0.166 F 
HETATM   18  F   UNL     1     -45.809 -53.517  13.248  1.00  0.00    -0.166 F 
ENDBRANCH  11  15
ENDBRANCH   4   7
BRANCH   5  19
HETATM   19  O   UNL     1     -40.251 -50.051  10.449  1.00  0.00    -0.362 OA
HETATM   20  H   UNL     1     -40.641 -50.856  10.834  1.00  0.00     0.213 HD
ENDBRANCH   5  19
BRANCH   5  21
HETATM   21  C   UNL     1     -40.875 -47.741  11.286  1.00  0.00     0.440 C 
HETATM   22  F   UNL     1     -41.952 -47.801  10.467  1.00  0.00    -0.166 F 
HETATM   23  F   UNL     1     -41.309 -47.159  12.440  1.00  0.00    -0.166 F 
HETATM   24  F   UNL     1     -40.010 -46.854  10.730  1.00  0.00    -0.166 F 
ENDBRANCH   5  21
BRANCH   1  25
HETATM   25  C   UNL     1     -37.643 -48.367  14.171  1.00  0.00     0.080 C 
BRANCH  25  26
HETATM   26  C   UNL     1     -37.072 -49.444  15.081  1.00  0.00     0.172 C 
BRANCH  26  27
HETATM   27  O   UNL     1     -37.067 -48.962  16.421  1.00  0.00    -0.396 OA
HETATM   28  C   UNL     1     -38.301 -49.206  17.082  1.00  0.00     0.201 C 
ENDBRANCH  26  27
ENDBRANCH  25  26
ENDBRANCH   1  25
TORSDOF 7
ENDMDL
