MODEL 1
REMARK VINA RESULT:      -7.2      0.000      0.000
REMARK  7 active torsions:
REMARK  status: ('A' for Active; 'I' for Inactive)
REMARK    1  A    between atoms: C_7  and  O_8 
REMARK    2  A    between atoms: O_8  and  C_9 
REMARK    3  A    between atoms: C_9  and  C_10 
REMARK    4  A    between atoms: C_10  and  O_11 
REMARK    5  A    between atoms: C_10  and  C_12 
REMARK    6  A    between atoms: C_12  and  N_13 
REMARK    7  A    between atoms: C_16  and  C_21 
ROOT
HETATM    1  C   UNL     1     -42.990 -47.508  12.377  1.00  0.00     0.186 C 
ENDROOT
BRANCH   1   2
HETATM    2  C   UNL     1     -42.168 -48.809  12.467  1.00  0.00     0.162 C 
BRANCH   2   3
HETATM    3  C   UNL     1     -42.674 -49.683  13.621  1.00  0.00     0.209 C 
BRANCH   3   4
HETATM    4  O   UNL     1     -43.686 -50.574  13.181  1.00  0.00    -0.348 OA
BRANCH   4   5
HETATM    5  C   UNL     1     -44.737 -50.862  14.012  1.00  0.00     0.074 A 
HETATM    6  C   UNL     1     -46.022 -51.356  13.713  1.00  0.00    -0.029 A 
HETATM    7  C   UNL     1     -46.538 -51.724  12.348  1.00  0.00     0.051 C 
HETATM    8  C   UNL     1     -46.936 -51.529  14.776  1.00  0.00     0.009 A 
HETATM    9  C   UNL     1     -46.597 -51.235  16.096  1.00  0.00     0.001 A 
HETATM   10  C   UNL     1     -45.326 -50.765  16.386  1.00  0.00     0.003 A 
HETATM   11  C   UNL     1     -44.409 -50.583  15.351  1.00  0.00     0.037 A 
ENDBRANCH   4   5
ENDBRANCH   3   4
ENDBRANCH   2   3
BRANCH   2  12
HETATM   12  O   UNL     1     -42.236 -49.516  11.221  1.00  0.00    -0.392 OA
HETATM   13  H   UNL     1     -43.060 -49.215  10.786  1.00  0.00     0.210 HD
ENDBRANCH   2  12
ENDBRANCH   1   2
BRANCH   1  14
HETATM   14  N   UNL     1     -43.449 -47.217  11.008  1.00  0.00    -0.255 N 
HETATM   15  N   UNL     1     -44.640 -47.804  10.628  1.00  0.00    -0.291 N 
HETATM   16  C   UNL     1     -45.078 -47.596   9.417  1.00  0.00     0.132 A 
ATOM     17  HN  UNL     1     -45.165 -48.388  11.279  1.00  0.00     0.187 HD
HETATM   18  C   UNL     1     -44.346 -46.775   8.422  1.00  0.00     0.041 A 
HETATM   19  C   UNL     1     -43.226 -46.173   8.824  1.00  0.00     0.078 A 
HETATM   20  C   UNL     1     -42.727 -46.339  10.205  1.00  0.00     0.262 A 
HETATM   21  O   UNL     1     -41.733 -45.716  10.558  1.00  0.00    -0.267 OA
BRANCH  16  22
HETATM   22  C   UNL     1     -46.412 -48.206   8.979  1.00  0.00     0.433 C 
HETATM   23  F   UNL     1     -47.447 -47.324   9.058  1.00  0.00    -0.165 F 
HETATM   24  F   UNL     1     -46.381 -48.645   7.693  1.00  0.00    -0.165 F 
HETATM   25  F   UNL     1     -46.759 -49.272   9.750  1.00  0.00    -0.165 F 
ENDBRANCH  16  22
ENDBRANCH   1  14
TORSDOF 7
ENDMDL
MODEL 2
REMARK VINA RESULT:      -6.9      1.449      2.155
REMARK  7 active torsions:
REMARK  status: ('A' for Active; 'I' for Inactive)
REMARK    1  A    between atoms: C_7  and  O_8 
REMARK    2  A    between atoms: O_8  and  C_9 
REMARK    3  A    between atoms: C_9  and  C_10 
REMARK    4  A    between atoms: C_10  and  O_11 
REMARK    5  A    between atoms: C_10  and  C_12 
REMARK    6  A    between atoms: C_12  and  N_13 
REMARK    7  A    between atoms: C_16  and  C_21 
ROOT
HETATM    1  C   UNL     1     -42.567 -48.090  11.977  1.00  0.00     0.186 C 
ENDROOT
BRANCH   1   2
HETATM    2  C   UNL     1     -41.427 -48.983  11.450  1.00  0.00     0.162 C 
BRANCH   2   3
HETATM    3  C   UNL     1     -41.568 -50.409  11.995  1.00  0.00     0.209 C 
BRANCH   3   4
HETATM    4  O   UNL     1     -42.496 -50.456  13.069  1.00  0.00    -0.348 OA
BRANCH   4   5
HETATM    5  C   UNL     1     -43.460 -51.429  13.083  1.00  0.00     0.074 A 
HETATM    6  C   UNL     1     -43.336 -52.832  13.057  1.00  0.00    -0.029 A 
HETATM    7  C   UNL     1     -42.047 -53.609  13.037  1.00  0.00     0.051 C 
HETATM    8  C   UNL     1     -44.516 -53.608  13.043  1.00  0.00     0.009 A 
HETATM    9  C   UNL     1     -45.782 -53.026  13.064  1.00  0.00     0.001 A 
HETATM   10  C   UNL     1     -45.899 -51.646  13.107  1.00  0.00     0.003 A 
HETATM   11  C   UNL     1     -44.747 -50.860  13.117  1.00  0.00     0.037 A 
ENDBRANCH   4   5
ENDBRANCH   3   4
ENDBRANCH   2   3
BRANCH   2  12
HETATM   12  O   UNL     1     -41.428 -48.981  10.015  1.00  0.00    -0.392 OA
HETATM   13  H   UNL     1     -42.354 -48.807   9.749  1.00  0.00     0.210 HD
ENDBRANCH   2  12
ENDBRANCH   1   2
BRANCH   1  14
HETATM   14  N   UNL     1     -43.313 -47.421  10.898  1.00  0.00    -0.255 N 
HETATM   15  N   UNL     1     -44.447 -48.072  10.448  1.00  0.00    -0.291 N 
HETATM   16  C   UNL     1     -45.130 -47.533   9.478  1.00  0.00     0.132 A 
ATOM     17  HN  UNL     1     -44.741 -48.955  10.866  1.00  0.00     0.187 HD
HETATM   18  C   UNL     1     -44.737 -46.264   8.819  1.00  0.00     0.041 A 
HETATM   19  C   UNL     1     -43.671 -45.624   9.301  1.00  0.00     0.078 A 
HETATM   20  C   UNL     1     -42.903 -46.174  10.437  1.00  0.00     0.262 A 
HETATM   21  O   UNL     1     -41.972 -45.525  10.897  1.00  0.00    -0.267 OA
BRANCH  16  22
HETATM   22  C   UNL     1     -46.409 -48.214   8.983  1.00  0.00     0.433 C 
HETATM   23  F   UNL     1     -46.306 -48.661   7.701  1.00  0.00    -0.165 F 
HETATM   24  F   UNL     1     -46.746 -49.292   9.739  1.00  0.00    -0.165 F 
HETATM   25  F   UNL     1     -47.475 -47.368   9.007  1.00  0.00    -0.165 F 
ENDBRANCH  16  22
ENDBRANCH   1  14
TORSDOF 7
ENDMDL
MODEL 3
REMARK VINA RESULT:      -6.8      2.853      3.554
REMARK  7 active torsions:
REMARK  status: ('A' for Active; 'I' for Inactive)
REMARK    1  A    between atoms: C_7  and  O_8 
REMARK    2  A    between atoms: O_8  and  C_9 
REMARK    3  A    between atoms: C_9  and  C_10 
REMARK    4  A    between atoms: C_10  and  O_11 
REMARK    5  A    between atoms: C_10  and  C_12 
REMARK    6  A    between atoms: C_12  and  N_13 
REMARK    7  A    between atoms: C_16  and  C_21 
ROOT
HETATM    1  C   UNL     1     -41.707 -49.708  12.375  1.00  0.00     0.186 C 
ENDROOT
BRANCH   1   2
HETATM    2  C   UNL     1     -40.674 -50.680  11.772  1.00  0.00     0.162 C 
BRANCH   2   3
HETATM    3  C   UNL     1     -41.220 -52.113  11.777  1.00  0.00     0.209 C 
BRANCH   3   4
HETATM    4  O   UNL     1     -41.328 -52.614  13.101  1.00  0.00    -0.348 OA
BRANCH   4   5
HETATM    5  C   UNL     1     -42.415 -53.372  13.448  1.00  0.00     0.074 A 
HETATM    6  C   UNL     1     -42.567 -54.327  14.473  1.00  0.00    -0.029 A 
HETATM    7  C   UNL     1     -41.523 -54.719  15.483  1.00  0.00     0.051 C 
HETATM    8  C   UNL     1     -43.804 -54.998  14.583  1.00  0.00     0.009 A 
HETATM    9  C   UNL     1     -44.867 -54.734  13.720  1.00  0.00     0.001 A 
HETATM   10  C   UNL     1     -44.718 -53.783  12.724  1.00  0.00     0.003 A 
HETATM   11  C   UNL     1     -43.502 -53.111  12.594  1.00  0.00     0.037 A 
ENDBRANCH   4   5
ENDBRANCH   3   4
ENDBRANCH   2   3
BRANCH   2  12
HETATM   12  O   UNL     1     -40.334 -50.267  10.441  1.00  0.00    -0.392 OA
HETATM   13  H   UNL     1     -39.593 -50.843  10.163  1.00  0.00     0.210 HD
ENDBRANCH   2  12
ENDBRANCH   1   2
BRANCH   1  14
HETATM   14  N   UNL     1     -41.817 -48.450  11.617  1.00  0.00    -0.255 N 
HETATM   15  N   UNL     1     -42.697 -48.457  10.551  1.00  0.00    -0.291 N 
HETATM   16  C   UNL     1     -42.814 -47.375   9.834  1.00  0.00     0.132 A 
ATOM     17  HN  UNL     1     -43.243 -49.290  10.330  1.00  0.00     0.187 HD
HETATM   18  C   UNL     1     -42.031 -46.142  10.095  1.00  0.00     0.041 A 
HETATM   19  C   UNL     1     -41.227 -46.137  11.159  1.00  0.00     0.078 A 
HETATM   20  C   UNL     1     -41.109 -47.326  12.029  1.00  0.00     0.262 A 
HETATM   21  O   UNL     1     -40.414 -47.261  13.036  1.00  0.00    -0.267 OA
BRANCH  16  22
HETATM   22  C   UNL     1     -43.806 -47.341   8.669  1.00  0.00     0.433 C 
HETATM   23  F   UNL     1     -44.975 -47.980   8.952  1.00  0.00    -0.165 F 
HETATM   24  F   UNL     1     -44.140 -46.074   8.310  1.00  0.00    -0.165 F 
HETATM   25  F   UNL     1     -43.302 -47.944   7.558  1.00  0.00    -0.165 F 
ENDBRANCH  16  22
ENDBRANCH   1  14
TORSDOF 7
ENDMDL
MODEL 4
REMARK VINA RESULT:      -6.8      2.532      2.987
REMARK  7 active torsions:
REMARK  status: ('A' for Active; 'I' for Inactive)
REMARK    1  A    between atoms: C_7  and  O_8 
REMARK    2  A    between atoms: O_8  and  C_9 
REMARK    3  A    between atoms: C_9  and  C_10 
REMARK    4  A    between atoms: C_10  and  O_11 
REMARK    5  A    between atoms: C_10  and  C_12 
REMARK    6  A    between atoms: C_12  and  N_13 
REMARK    7  A    between atoms: C_16  and  C_21 
ROOT
HETATM    1  C   UNL     1     -41.604 -49.443  12.332  1.00  0.00     0.186 C 
ENDROOT
BRANCH   1   2
HETATM    2  C   UNL     1     -40.618 -50.425  11.669  1.00  0.00     0.162 C 
BRANCH   2   3
HETATM    3  C   UNL     1     -41.071 -51.873  11.893  1.00  0.00     0.209 C 
BRANCH   3   4
HETATM    4  O   UNL     1     -42.465 -51.937  12.153  1.00  0.00    -0.348 OA
BRANCH   4   5
HETATM    5  C   UNL     1     -42.956 -52.941  12.946  1.00  0.00     0.074 A 
HETATM    6  C   UNL     1     -44.283 -53.360  13.162  1.00  0.00    -0.029 A 
HETATM    7  C   UNL     1     -45.513 -52.786  12.513  1.00  0.00     0.051 C 
HETATM    8  C   UNL     1     -44.511 -54.415  14.073  1.00  0.00     0.009 A 
HETATM    9  C   UNL     1     -43.467 -55.048  14.746  1.00  0.00     0.001 A 
HETATM   10  C   UNL     1     -42.162 -54.643  14.517  1.00  0.00     0.003 A 
HETATM   11  C   UNL     1     -41.914 -53.601  13.624  1.00  0.00     0.037 A 
ENDBRANCH   4   5
ENDBRANCH   3   4
ENDBRANCH   2   3
BRANCH   2  12
HETATM   12  O   UNL     1     -40.508 -50.134  10.268  1.00  0.00    -0.392 OA
HETATM   13  H   UNL     1     -39.618 -49.745  10.145  1.00  0.00     0.210 HD
ENDBRANCH   2  12
ENDBRANCH   1   2
BRANCH   1  14
HETATM   14  N   UNL     1     -41.900 -48.274  11.488  1.00  0.00    -0.255 N 
HETATM   15  N   UNL     1     -43.021 -48.371  10.686  1.00  0.00    -0.291 N 
HETATM   16  C   UNL     1     -43.314 -47.372   9.902  1.00  0.00     0.132 A 
ATOM     17  HN  UNL     1     -43.606 -49.207  10.706  1.00  0.00     0.187 HD
HETATM   18  C   UNL     1     -42.488 -46.142   9.815  1.00  0.00     0.041 A 
HETATM   19  C   UNL     1     -41.441 -46.045  10.634  1.00  0.00     0.078 A 
HETATM   20  C   UNL     1     -41.108 -47.133  11.577  1.00  0.00     0.262 A 
HETATM   21  O   UNL     1     -40.181 -46.979  12.362  1.00  0.00    -0.267 OA
BRANCH  16  22
HETATM   22  C   UNL     1     -44.569 -47.437   9.028  1.00  0.00     0.433 C 
HETATM   23  F   UNL     1     -44.379 -48.151   7.884  1.00  0.00    -0.165 F 
HETATM   24  F   UNL     1     -45.617 -48.016   9.671  1.00  0.00    -0.165 F 
HETATM   25  F   UNL     1     -44.982 -46.199   8.641  1.00  0.00    -0.165 F 
ENDBRANCH  16  22
ENDBRANCH   1  14
TORSDOF 7
ENDMDL
MODEL 5
REMARK VINA RESULT:      -6.6      4.481      6.156
REMARK  7 active torsions:
REMARK  status: ('A' for Active; 'I' for Inactive)
REMARK    1  A    between atoms: C_7  and  O_8 
REMARK    2  A    between atoms: O_8  and  C_9 
REMARK    3  A    between atoms: C_9  and  C_10 
REMARK    4  A    between atoms: C_10  and  O_11 
REMARK    5  A    between atoms: C_10  and  C_12 
REMARK    6  A    between atoms: C_12  and  N_13 
REMARK    7  A    between atoms: C_16  and  C_21 
ROOT
HETATM    1  C   UNL     1     -41.367 -52.352  11.774  1.00  0.00     0.186 C 
ENDROOT
BRANCH   1   2
HETATM    2  C   UNL     1     -41.307 -50.866  12.176  1.00  0.00     0.162 C 
BRANCH   2   3
HETATM    3  C   UNL     1     -42.304 -50.575  13.304  1.00  0.00     0.209 C 
BRANCH   3   4
HETATM    4  O   UNL     1     -43.641 -50.648  12.835  1.00  0.00    -0.348 OA
BRANCH   4   5
HETATM    5  C   UNL     1     -44.653 -50.909  13.722  1.00  0.00     0.074 A 
HETATM    6  C   UNL     1     -45.989 -51.291  13.490  1.00  0.00    -0.029 A 
HETATM    7  C   UNL     1     -46.621 -51.539  12.147  1.00  0.00     0.051 C 
HETATM    8  C   UNL     1     -46.839 -51.459  14.604  1.00  0.00     0.009 A 
HETATM    9  C   UNL     1     -46.391 -51.269  15.911  1.00  0.00     0.001 A 
HETATM   10  C   UNL     1     -45.072 -50.909  16.135  1.00  0.00     0.003 A 
HETATM   11  C   UNL     1     -44.215 -50.733  15.048  1.00  0.00     0.037 A 
ENDBRANCH   4   5
ENDBRANCH   3   4
ENDBRANCH   2   3
BRANCH   2  12
HETATM   12  O   UNL     1     -39.971 -50.521  12.571  1.00  0.00    -0.392 OA
HETATM   13  H   UNL     1     -39.425 -50.594  11.762  1.00  0.00     0.210 HD
ENDBRANCH   2  12
ENDBRANCH   1   2
BRANCH   1  14
HETATM   14  N   UNL     1     -41.683 -53.238  12.907  1.00  0.00    -0.255 N 
HETATM   15  N   UNL     1     -43.003 -53.628  13.025  1.00  0.00    -0.291 N 
HETATM   16  C   UNL     1     -43.340 -54.393  14.025  1.00  0.00     0.132 A 
ATOM     17  HN  UNL     1     -43.700 -53.323  12.345  1.00  0.00     0.187 HD
HETATM   18  C   UNL     1     -42.374 -54.849  15.056  1.00  0.00     0.041 A 
HETATM   19  C   UNL     1     -41.096 -54.507  14.896  1.00  0.00     0.078 A 
HETATM   20  C   UNL     1     -40.665 -53.686  13.745  1.00  0.00     0.262 A 
HETATM   21  O   UNL     1     -39.473 -53.450  13.594  1.00  0.00    -0.267 OA
BRANCH  16  22
HETATM   22  C   UNL     1     -44.788 -54.869  14.162  1.00  0.00     0.433 C 
HETATM   23  F   UNL     1     -45.587 -54.426  13.152  1.00  0.00    -0.165 F 
HETATM   24  F   UNL     1     -44.888 -56.224  14.163  1.00  0.00    -0.165 F 
HETATM   25  F   UNL     1     -45.358 -54.432  15.318  1.00  0.00    -0.165 F 
ENDBRANCH  16  22
ENDBRANCH   1  14
TORSDOF 7
ENDMDL
MODEL 6
REMARK VINA RESULT:      -6.6      3.588      4.941
REMARK  7 active torsions:
REMARK  status: ('A' for Active; 'I' for Inactive)
REMARK    1  A    between atoms: C_7  and  O_8 
REMARK    2  A    between atoms: O_8  and  C_9 
REMARK    3  A    between atoms: C_9  and  C_10 
REMARK    4  A    between atoms: C_10  and  O_11 
REMARK    5  A    between atoms: C_10  and  C_12 
REMARK    6  A    between atoms: C_12  and  N_13 
REMARK    7  A    between atoms: C_16  and  C_21 
ROOT
HETATM    1  C   UNL     1     -40.002 -52.652  13.619  1.00  0.00     0.186 C 
ENDROOT
BRANCH   1   2
HETATM    2  C   UNL     1     -40.781 -53.685  12.782  1.00  0.00     0.162 C 
BRANCH   2   3
HETATM    3  C   UNL     1     -42.252 -53.725  13.213  1.00  0.00     0.209 C 
BRANCH   3   4
HETATM    4  O   UNL     1     -42.983 -52.656  12.632  1.00  0.00    -0.348 OA
BRANCH   4   5
HETATM    5  C   UNL     1     -44.101 -52.182  13.267  1.00  0.00     0.074 A 
HETATM    6  C   UNL     1     -44.224 -51.442  14.459  1.00  0.00    -0.029 A 
HETATM    7  C   UNL     1     -43.092 -50.960  15.325  1.00  0.00     0.051 C 
HETATM    8  C   UNL     1     -45.520 -51.112  14.911  1.00  0.00     0.009 A 
HETATM    9  C   UNL     1     -46.665 -51.487  14.209  1.00  0.00     0.001 A 
HETATM   10  C   UNL     1     -46.538 -52.200  13.027  1.00  0.00     0.003 A 
HETATM   11  C   UNL     1     -45.267 -52.541  12.565  1.00  0.00     0.037 A 
ENDBRANCH   4   5
ENDBRANCH   3   4
ENDBRANCH   2   3
BRANCH   2  12
HETATM   12  O   UNL     1     -40.664 -53.371  11.387  1.00  0.00    -0.392 OA
HETATM   13  H   UNL     1     -40.683 -52.393  11.331  1.00  0.00     0.210 HD
ENDBRANCH   2  12
ENDBRANCH   1   2
BRANCH   1  14
HETATM   14  N   UNL     1     -39.782 -51.385  12.902  1.00  0.00    -0.255 N 
HETATM   15  N   UNL     1     -40.910 -50.633  12.634  1.00  0.00    -0.291 N 
HETATM   16  C   UNL     1     -40.771 -49.514  11.981  1.00  0.00     0.132 A 
ATOM     17  HN  UNL     1     -41.831 -50.947  12.941  1.00  0.00     0.187 HD
HETATM   18  C   UNL     1     -39.461 -49.019  11.492  1.00  0.00     0.041 A 
HETATM   19  C   UNL     1     -38.378 -49.731  11.805  1.00  0.00     0.078 A 
HETATM   20  C   UNL     1     -38.488 -50.977  12.593  1.00  0.00     0.262 A 
HETATM   21  O   UNL     1     -37.466 -51.567  12.920  1.00  0.00    -0.267 OA
BRANCH  16  22
HETATM   22  C   UNL     1     -41.999 -48.643  11.700  1.00  0.00     0.433 C 
HETATM   23  F   UNL     1     -43.149 -49.178  12.196  1.00  0.00    -0.165 F 
HETATM   24  F   UNL     1     -41.887 -47.403  12.244  1.00  0.00    -0.165 F 
HETATM   25  F   UNL     1     -42.203 -48.470  10.366  1.00  0.00    -0.165 F 
ENDBRANCH  16  22
ENDBRANCH   1  14
TORSDOF 7
ENDMDL
MODEL 7
REMARK VINA RESULT:      -6.5      3.318      4.429
REMARK  7 active torsions:
REMARK  status: ('A' for Active; 'I' for Inactive)
REMARK    1  A    between atoms: C_7  and  O_8 
REMARK    2  A    between atoms: O_8  and  C_9 
REMARK    3  A    between atoms: C_9  and  C_10 
REMARK    4  A    between atoms: C_10  and  O_11 
REMARK    5  A    between atoms: C_10  and  C_12 
REMARK    6  A    between atoms: C_12  and  N_13 
REMARK    7  A    between atoms: C_16  and  C_21 
ROOT
HETATM    1  C   UNL     1     -40.588 -52.316  13.332  1.00  0.00     0.186 C 
ENDROOT
BRANCH   1   2
HETATM    2  C   UNL     1     -41.402 -53.226  12.392  1.00  0.00     0.162 C 
BRANCH   2   3
HETATM    3  C   UNL     1     -42.852 -53.339  12.879  1.00  0.00     0.209 C 
BRANCH   3   4
HETATM    4  O   UNL     1     -43.521 -52.091  12.786  1.00  0.00    -0.348 OA
BRANCH   4   5
HETATM    5  C   UNL     1     -44.557 -51.817  13.639  1.00  0.00     0.074 A 
HETATM    6  C   UNL     1     -45.940 -51.721  13.387  1.00  0.00    -0.029 A 
HETATM    7  C   UNL     1     -46.619 -51.939  12.063  1.00  0.00     0.051 C 
HETATM    8  C   UNL     1     -46.793 -51.384  14.461  1.00  0.00     0.009 A 
HETATM    9  C   UNL     1     -46.307 -51.158  15.748  1.00  0.00     0.001 A 
HETATM   10  C   UNL     1     -44.947 -51.270  15.994  1.00  0.00     0.003 A 
HETATM   11  C   UNL     1     -44.086 -51.598  14.947  1.00  0.00     0.037 A 
ENDBRANCH   4   5
ENDBRANCH   3   4
ENDBRANCH   2   3
BRANCH   2  12
HETATM   12  O   UNL     1     -41.350 -52.715  11.052  1.00  0.00    -0.392 OA
HETATM   13  H   UNL     1     -40.465 -52.951  10.710  1.00  0.00     0.210 HD
ENDBRANCH   2  12
ENDBRANCH   1   2
BRANCH   1  14
HETATM   14  N   UNL     1     -40.144 -51.073  12.680  1.00  0.00    -0.255 N 
HETATM   15  N   UNL     1     -41.142 -50.204  12.283  1.00  0.00    -0.291 N 
HETATM   16  C   UNL     1     -40.803 -49.099  11.680  1.00  0.00     0.132 A 
ATOM     17  HN  UNL     1     -42.124 -50.422  12.458  1.00  0.00     0.187 HD
HETATM   18  C   UNL     1     -39.395 -48.741  11.380  1.00  0.00     0.041 A 
HETATM   19  C   UNL     1     -38.443 -49.566  11.817  1.00  0.00     0.078 A 
HETATM   20  C   UNL     1     -38.785 -50.800  12.554  1.00  0.00     0.262 A 
HETATM   21  O   UNL     1     -37.882 -51.497  13.000  1.00  0.00    -0.267 OA
BRANCH  16  22
HETATM   22  C   UNL     1     -41.885 -48.101  11.260  1.00  0.00     0.433 C 
HETATM   23  F   UNL     1     -43.135 -48.490  11.635  1.00  0.00    -0.165 F 
HETATM   24  F   UNL     1     -41.689 -46.869  11.800  1.00  0.00    -0.165 F 
HETATM   25  F   UNL     1     -41.926 -47.937   9.910  1.00  0.00    -0.165 F 
ENDBRANCH  16  22
ENDBRANCH   1  14
TORSDOF 7
ENDMDL
MODEL 8
REMARK VINA RESULT:      -6.3      3.197      4.057
REMARK  7 active torsions:
REMARK  status: ('A' for Active; 'I' for Inactive)
REMARK    1  A    between atoms: C_7  and  O_8 
REMARK    2  A    between atoms: O_8  and  C_9 
REMARK    3  A    between atoms: C_9  and  C_10 
REMARK    4  A    between atoms: C_10  and  O_11 
REMARK    5  A    between atoms: C_10  and  C_12 
REMARK    6  A    between atoms: C_12  and  N_13 
REMARK    7  A    between atoms: C_16  and  C_21 
ROOT
HETATM    1  C   UNL     1     -41.602 -50.808  12.879  1.00  0.00     0.186 C 
ENDROOT
BRANCH   1   2
HETATM    2  C   UNL     1     -40.774 -51.982  12.322  1.00  0.00     0.162 C 
BRANCH   2   3
HETATM    3  C   UNL     1     -40.904 -53.210  13.231  1.00  0.00     0.209 C 
BRANCH   3   4
HETATM    4  O   UNL     1     -41.901 -54.098  12.749  1.00  0.00    -0.348 OA
BRANCH   4   5
HETATM    5  C   UNL     1     -43.139 -54.102  13.336  1.00  0.00     0.074 A 
HETATM    6  C   UNL     1     -43.558 -54.642  14.568  1.00  0.00    -0.029 A 
HETATM    7  C   UNL     1     -42.686 -55.340  15.576  1.00  0.00     0.051 C 
HETATM    8  C   UNL     1     -44.923 -54.535  14.915  1.00  0.00     0.009 A 
HETATM    9  C   UNL     1     -45.850 -53.908  14.083  1.00  0.00     0.001 A 
HETATM   10  C   UNL     1     -45.429 -53.365  12.879  1.00  0.00     0.003 A 
HETATM   11  C   UNL     1     -44.086 -53.463  12.515  1.00  0.00     0.037 A 
ENDBRANCH   4   5
ENDBRANCH   3   4
ENDBRANCH   2   3
BRANCH   2  12
HETATM   12  O   UNL     1     -41.197 -52.287  10.985  1.00  0.00    -0.392 OA
HETATM   13  H   UNL     1     -41.219 -51.431  10.510  1.00  0.00     0.210 HD
ENDBRANCH   2  12
ENDBRANCH   1   2
BRANCH   1  14
HETATM   14  N   UNL     1     -41.312 -49.532  12.204  1.00  0.00    -0.255 N 
HETATM   15  N   UNL     1     -42.212 -49.141  11.231  1.00  0.00    -0.291 N 
HETATM   16  C   UNL     1     -41.988 -48.030  10.586  1.00  0.00     0.132 A 
ATOM     17  HN  UNL     1     -43.033 -49.708  11.021  1.00  0.00     0.187 HD
HETATM   18  C   UNL     1     -40.799 -47.176  10.834  1.00  0.00     0.041 A 
HETATM   19  C   UNL     1     -39.971 -47.543  11.812  1.00  0.00     0.078 A 
HETATM   20  C   UNL     1     -40.221 -48.766  12.603  1.00  0.00     0.262 A 
HETATM   21  O   UNL     1     -39.477 -49.034  13.538  1.00  0.00    -0.267 OA
BRANCH  16  22
HETATM   22  C   UNL     1     -42.985 -47.553   9.528  1.00  0.00     0.433 C 
HETATM   23  F   UNL     1     -42.827 -48.184   8.332  1.00  0.00    -0.165 F 
HETATM   24  F   UNL     1     -44.275 -47.760   9.903  1.00  0.00    -0.165 F 
HETATM   25  F   UNL     1     -42.858 -46.222   9.276  1.00  0.00    -0.165 F 
ENDBRANCH  16  22
ENDBRANCH   1  14
TORSDOF 7
ENDMDL
MODEL 9
REMARK VINA RESULT:      -6.2      4.714      5.728
REMARK  7 active torsions:
REMARK  status: ('A' for Active; 'I' for Inactive)
REMARK    1  A    between atoms: C_7  and  O_8 
REMARK    2  A    between atoms: O_8  and  C_9 
REMARK    3  A    between atoms: C_9  and  C_10 
REMARK    4  A    between atoms: C_10  and  O_11 
REMARK    5  A    between atoms: C_10  and  C_12 
REMARK    6  A    between atoms: C_12  and  N_13 
REMARK    7  A    between atoms: C_16  and  C_21 
ROOT
HETATM    1  C   UNL     1     -41.990 -52.427  11.939  1.00  0.00     0.186 C 
ENDROOT
BRANCH   1   2
HETATM    2  C   UNL     1     -41.676 -53.529  12.971  1.00  0.00     0.162 C 
BRANCH   2   3
HETATM    3  C   UNL     1     -42.970 -54.054  13.603  1.00  0.00     0.209 C 
BRANCH   3   4
HETATM    4  O   UNL     1     -44.110 -53.455  13.007  1.00  0.00    -0.348 OA
BRANCH   4   5
HETATM    5  C   UNL     1     -44.984 -52.745  13.788  1.00  0.00     0.074 A 
HETATM    6  C   UNL     1     -46.135 -52.015  13.430  1.00  0.00    -0.029 A 
HETATM    7  C   UNL     1     -46.703 -51.876  12.044  1.00  0.00     0.051 C 
HETATM    8  C   UNL     1     -46.839 -51.337  14.449  1.00  0.00     0.009 A 
HETATM    9  C   UNL     1     -46.433 -51.380  15.782  1.00  0.00     0.001 A 
HETATM   10  C   UNL     1     -45.310 -52.112  16.131  1.00  0.00     0.003 A 
HETATM   11  C   UNL     1     -44.596 -52.787  15.140  1.00  0.00     0.037 A 
ENDBRANCH   4   5
ENDBRANCH   3   4
ENDBRANCH   2   3
BRANCH   2  12
HETATM   12  O   UNL     1     -40.944 -54.591  12.343  1.00  0.00    -0.392 OA
HETATM   13  H   UNL     1     -40.474 -55.055  13.065  1.00  0.00     0.210 HD
ENDBRANCH   2  12
ENDBRANCH   1   2
BRANCH   1  14
HETATM   14  N   UNL     1     -41.246 -51.182  12.190  1.00  0.00    -0.255 N 
HETATM   15  N   UNL     1     -39.887 -51.224  11.940  1.00  0.00    -0.291 N 
HETATM   16  C   UNL     1     -39.179 -50.153  12.169  1.00  0.00     0.132 A 
ATOM     17  HN  UNL     1     -39.448 -52.074  11.586  1.00  0.00     0.187 HD
HETATM   18  C   UNL     1     -39.761 -48.897  12.703  1.00  0.00     0.041 A 
HETATM   19  C   UNL     1     -41.081 -48.859  12.887  1.00  0.00     0.078 A 
HETATM   20  C   UNL     1     -41.925 -50.034  12.587  1.00  0.00     0.262 A 
HETATM   21  O   UNL     1     -43.141 -49.939  12.703  1.00  0.00    -0.267 OA
BRANCH  16  22
HETATM   22  C   UNL     1     -37.678 -50.159  11.869  1.00  0.00     0.433 C 
HETATM   23  F   UNL     1     -37.023 -49.108  12.434  1.00  0.00    -0.165 F 
HETATM   24  F   UNL     1     -37.065 -51.283  12.326  1.00  0.00    -0.165 F 
HETATM   25  F   UNL     1     -37.428 -50.091  10.533  1.00  0.00    -0.165 F 
ENDBRANCH  16  22
ENDBRANCH   1  14
TORSDOF 7
ENDMDL
