MODEL 1
REMARK VINA RESULT:      -5.2      0.000      0.000
REMARK  2 active torsions:
REMARK  status: ('A' for Active; 'I' for Inactive)
REMARK       I    between atoms: C_2  and  N_3 
REMARK    1  A    between atoms: C_2  and  C_11 
REMARK    2  A    between atoms: N_3  and  C_4 
ROOT
HETATM    1  O   UNL     1     -41.703 -48.150  10.428  1.00  0.00    -0.265 OA
HETATM    2  C   UNL     1     -41.950 -46.953  10.319  1.00  0.00     0.281 C 
HETATM    3  N   UNL     1     -43.025 -46.415   9.635  1.00  0.00    -0.321 N 
HETATM    4  H   UNL     1     -43.029 -45.408   9.521  1.00  0.00     0.169 HD
ENDROOT
BRANCH   3   5
HETATM    5  C   UNL     1     -44.044 -47.168   9.001  1.00  0.00     0.037 A 
HETATM    6  C   UNL     1     -45.327 -47.306   9.530  1.00  0.00     0.046 A 
HETATM    7  C   UNL     1     -46.252 -48.089   8.859  1.00  0.00     0.090 A 
HETATM    8  N   UNL     1     -45.991 -48.734   7.705  1.00  0.00    -0.375 N 
HETATM    9  C   UNL     1     -44.750 -48.575   7.200  1.00  0.00     0.090 A 
ATOM     10  HN  UNL     1     -46.692 -49.309   7.240  1.00  0.00     0.164 HD
HETATM   11  C   UNL     1     -43.759 -47.802   7.791  1.00  0.00     0.046 A 
ENDBRANCH   3   5
BRANCH   2  12
HETATM   12  C   UNL     1     -41.032 -45.933  10.939  1.00  0.00     0.159 C 
HETATM   13  C   UNL     1     -40.379 -46.331  12.038  1.00  0.00     0.177 C 
HETATM   14  O   UNL     1     -39.528 -45.589  12.791  1.00  0.00    -0.358 OA
HETATM   15  C   UNL     1     -39.323 -44.260  12.342  1.00  0.00     0.201 C 
HETATM   16  C   UNL     1     -40.148 -43.756  11.149  1.00  0.00     0.202 C 
HETATM   17  O   UNL     1     -40.914 -44.685  10.381  1.00  0.00    -0.342 OA
ENDBRANCH   2  12
TORSDOF 2
ENDMDL
MODEL 2
REMARK VINA RESULT:      -5.1      3.631      6.083
REMARK  2 active torsions:
REMARK  status: ('A' for Active; 'I' for Inactive)
REMARK       I    between atoms: C_2  and  N_3 
REMARK    1  A    between atoms: C_2  and  C_11 
REMARK    2  A    between atoms: N_3  and  C_4 
ROOT
HETATM    1  O   UNL     1     -40.337 -46.966  12.013  1.00  0.00    -0.265 OA
HETATM    2  C   UNL     1     -40.859 -47.688  11.171  1.00  0.00     0.281 C 
HETATM    3  N   UNL     1     -40.528 -49.010  10.931  1.00  0.00    -0.321 N 
HETATM    4  H   UNL     1     -40.952 -49.441  10.118  1.00  0.00     0.169 HD
ENDROOT
BRANCH   3   5
HETATM    5  C   UNL     1     -39.572 -49.755  11.665  1.00  0.00     0.037 A 
HETATM    6  C   UNL     1     -38.209 -49.739  11.370  1.00  0.00     0.046 A 
HETATM    7  C   UNL     1     -37.348 -50.525  12.119  1.00  0.00     0.090 A 
HETATM    8  N   UNL     1     -37.748 -51.313  13.136  1.00  0.00    -0.375 N 
HETATM    9  C   UNL     1     -39.067 -51.302  13.418  1.00  0.00     0.090 A 
ATOM     10  HN  UNL     1     -37.090 -51.885  13.664  1.00  0.00     0.164 HD
HETATM   11  C   UNL     1     -40.006 -50.540  12.733  1.00  0.00     0.046 A 
ENDBRANCH   3   5
BRANCH   2  12
HETATM   12  C   UNL     1     -41.938 -47.144  10.273  1.00  0.00     0.159 C 
HETATM   13  C   UNL     1     -42.175 -45.831  10.381  1.00  0.00     0.177 C 
HETATM   14  O   UNL     1     -43.115 -45.116   9.710  1.00  0.00    -0.358 OA
HETATM   15  C   UNL     1     -43.909 -45.861   8.803  1.00  0.00     0.201 C 
HETATM   16  C   UNL     1     -43.724 -47.385   8.749  1.00  0.00     0.202 C 
HETATM   17  O   UNL     1     -42.615 -47.982   9.424  1.00  0.00    -0.342 OA
ENDBRANCH   2  12
TORSDOF 2
ENDMDL
MODEL 3
REMARK VINA RESULT:      -4.9      4.364      6.198
REMARK  2 active torsions:
REMARK  status: ('A' for Active; 'I' for Inactive)
REMARK       I    between atoms: C_2  and  N_3 
REMARK    1  A    between atoms: C_2  and  C_11 
REMARK    2  A    between atoms: N_3  and  C_4 
ROOT
HETATM    1  O   UNL     1     -42.915 -49.509  13.152  1.00  0.00    -0.265 OA
HETATM    2  C   UNL     1     -42.210 -50.155  12.385  1.00  0.00     0.281 C 
HETATM    3  N   UNL     1     -41.619 -49.667  11.234  1.00  0.00    -0.321 N 
HETATM    4  H   UNL     1     -41.173 -50.348  10.631  1.00  0.00     0.169 HD
ENDROOT
BRANCH   3   5
HETATM    5  C   UNL     1     -41.689 -48.322  10.792  1.00  0.00     0.037 A 
HETATM    6  C   UNL     1     -42.747 -47.827  10.030  1.00  0.00     0.046 A 
HETATM    7  C   UNL     1     -42.717 -46.507   9.612  1.00  0.00     0.090 A 
HETATM    8  N   UNL     1     -41.717 -45.652   9.903  1.00  0.00    -0.375 N 
HETATM    9  C   UNL     1     -40.710 -46.144  10.654  1.00  0.00     0.090 A 
ATOM     10  HN  UNL     1     -41.721 -44.687   9.574  1.00  0.00     0.164 HD
HETATM   11  C   UNL     1     -40.656 -47.448  11.131  1.00  0.00     0.046 A 
ENDBRANCH   3   5
BRANCH   2  12
HETATM   12  C   UNL     1     -41.948 -51.614  12.649  1.00  0.00     0.159 C 
HETATM   13  C   UNL     1     -40.693 -52.027  12.436  1.00  0.00     0.177 C 
HETATM   14  O   UNL     1     -40.219 -53.292  12.569  1.00  0.00    -0.358 OA
HETATM   15  C   UNL     1     -41.173 -54.256  12.982  1.00  0.00     0.201 C 
HETATM   16  C   UNL     1     -42.639 -53.821  13.123  1.00  0.00     0.202 C 
HETATM   17  O   UNL     1     -42.967 -52.431  13.069  1.00  0.00    -0.342 OA
ENDBRANCH   2  12
TORSDOF 2
ENDMDL
MODEL 4
REMARK VINA RESULT:      -4.8      6.188      6.798
REMARK  2 active torsions:
REMARK  status: ('A' for Active; 'I' for Inactive)
REMARK       I    between atoms: C_2  and  N_3 
REMARK    1  A    between atoms: C_2  and  C_11 
REMARK    2  A    between atoms: N_3  and  C_4 
ROOT
HETATM    1  O   UNL     1     -42.060 -52.375  14.577  1.00  0.00    -0.265 OA
HETATM    2  C   UNL     1     -42.317 -52.011  13.434  1.00  0.00     0.281 C 
HETATM    3  N   UNL     1     -43.486 -52.287  12.748  1.00  0.00    -0.321 N 
HETATM    4  H   UNL     1     -43.504 -52.033  11.767  1.00  0.00     0.169 HD
ENDROOT
BRANCH   3   5
HETATM    5  C   UNL     1     -44.597 -52.987  13.282  1.00  0.00     0.037 A 
HETATM    6  C   UNL     1     -45.708 -52.344  13.827  1.00  0.00     0.046 A 
HETATM    7  C   UNL     1     -46.735 -53.107  14.358  1.00  0.00     0.090 A 
HETATM    8  N   UNL     1     -46.733 -54.454  14.378  1.00  0.00    -0.375 N 
HETATM    9  C   UNL     1     -45.657 -55.059  13.833  1.00  0.00     0.090 A 
ATOM     10  HN  UNL     1     -47.501 -54.988  14.784  1.00  0.00     0.164 HD
HETATM   11  C   UNL     1     -44.585 -54.382  13.265  1.00  0.00     0.046 A 
ENDBRANCH   3   5
BRANCH   2  12
HETATM   12  C   UNL     1     -41.308 -51.215  12.650  1.00  0.00     0.159 C 
HETATM   13  C   UNL     1     -40.039 -51.632  12.744  1.00  0.00     0.177 C 
HETATM   14  O   UNL     1     -38.951 -51.065  12.164  1.00  0.00    -0.358 OA
HETATM   15  C   UNL     1     -39.215 -49.915  11.377  1.00  0.00     0.201 C 
HETATM   16  C   UNL     1     -40.646 -49.360  11.350  1.00  0.00     0.202 C 
HETATM   17  O   UNL     1     -41.710 -50.132  11.910  1.00  0.00    -0.342 OA
ENDBRANCH   2  12
TORSDOF 2
ENDMDL
MODEL 5
REMARK VINA RESULT:      -4.7      5.278      7.504
REMARK  2 active torsions:
REMARK  status: ('A' for Active; 'I' for Inactive)
REMARK       I    between atoms: C_2  and  N_3 
REMARK    1  A    between atoms: C_2  and  C_11 
REMARK    2  A    between atoms: N_3  and  C_4 
ROOT
HETATM    1  O   UNL     1     -43.460 -49.903  14.086  1.00  0.00    -0.265 OA
HETATM    2  C   UNL     1     -43.280 -50.816  13.287  1.00  0.00     0.281 C 
HETATM    3  N   UNL     1     -42.467 -50.757  12.170  1.00  0.00    -0.321 N 
HETATM    4  H   UNL     1     -42.518 -51.543  11.533  1.00  0.00     0.169 HD
ENDROOT
BRANCH   3   5
HETATM    5  C   UNL     1     -41.666 -49.646  11.806  1.00  0.00     0.037 A 
HETATM    6  C   UNL     1     -42.164 -48.548  11.105  1.00  0.00     0.046 A 
HETATM    7  C   UNL     1     -41.302 -47.520  10.761  1.00  0.00     0.090 A 
HETATM    8  N   UNL     1     -39.990 -47.509  11.068  1.00  0.00    -0.375 N 
HETATM    9  C   UNL     1     -39.529 -48.572  11.759  1.00  0.00     0.090 A 
ATOM     10  HN  UNL     1     -39.380 -46.741  10.793  1.00  0.00     0.164 HD
HETATM   11  C   UNL     1     -40.317 -49.644  12.161  1.00  0.00     0.046 A 
ENDBRANCH   3   5
BRANCH   2  12
HETATM   12  C   UNL     1     -43.995 -52.129  13.469  1.00  0.00     0.159 C 
HETATM   13  C   UNL     1     -43.862 -53.006  12.467  1.00  0.00     0.177 C 
HETATM   14  O   UNL     1     -44.433 -54.235  12.380  1.00  0.00    -0.358 OA
HETATM   15  C   UNL     1     -45.246 -54.604  13.481  1.00  0.00     0.201 C 
HETATM   16  C   UNL     1     -45.498 -53.566  14.585  1.00  0.00     0.202 C 
HETATM   17  O   UNL     1     -44.733 -52.359  14.602  1.00  0.00    -0.342 OA
ENDBRANCH   2  12
TORSDOF 2
ENDMDL
MODEL 6
REMARK VINA RESULT:      -4.6      5.580      6.214
REMARK  2 active torsions:
REMARK  status: ('A' for Active; 'I' for Inactive)
REMARK       I    between atoms: C_2  and  N_3 
REMARK    1  A    between atoms: C_2  and  C_11 
REMARK    2  A    between atoms: N_3  and  C_4 
ROOT
HETATM    1  O   UNL     1     -43.666 -50.313  14.540  1.00  0.00    -0.265 OA
HETATM    2  C   UNL     1     -43.672 -50.471  13.323  1.00  0.00     0.281 C 
HETATM    3  N   UNL     1     -44.313 -51.495  12.651  1.00  0.00    -0.321 N 
HETATM    4  H   UNL     1     -44.124 -51.571  11.658  1.00  0.00     0.169 HD
ENDROOT
BRANCH   3   5
HETATM    5  C   UNL     1     -45.114 -52.493  13.261  1.00  0.00     0.037 A 
HETATM    6  C   UNL     1     -46.287 -52.203  13.958  1.00  0.00     0.046 A 
HETATM    7  C   UNL     1     -46.991 -53.237  14.553  1.00  0.00     0.090 A 
HETATM    8  N   UNL     1     -46.613 -54.529  14.496  1.00  0.00    -0.375 N 
HETATM    9  C   UNL     1     -45.485 -54.792  13.805  1.00  0.00     0.090 A 
ATOM     10  HN  UNL     1     -47.149 -55.267  14.952  1.00  0.00     0.164 HD
HETATM   11  C   UNL     1     -44.718 -53.826  13.163  1.00  0.00     0.046 A 
ENDBRANCH   3   5
BRANCH   2  12
HETATM   12  C   UNL     1     -42.918 -49.518  12.435  1.00  0.00     0.159 C 
HETATM   13  C   UNL     1     -41.696 -49.916  12.061  1.00  0.00     0.177 C 
HETATM   14  O   UNL     1     -40.814 -49.224  11.296  1.00  0.00    -0.358 OA
HETATM   15  C   UNL     1     -41.260 -47.953  10.855  1.00  0.00     0.201 C 
HETATM   16  C   UNL     1     -42.613 -47.436  11.366  1.00  0.00     0.202 C 
HETATM   17  O   UNL     1     -43.485 -48.324  12.067  1.00  0.00    -0.342 OA
ENDBRANCH   2  12
TORSDOF 2
ENDMDL
MODEL 7
REMARK VINA RESULT:      -4.6      4.519      6.507
REMARK  2 active torsions:
REMARK  status: ('A' for Active; 'I' for Inactive)
REMARK       I    between atoms: C_2  and  N_3 
REMARK    1  A    between atoms: C_2  and  C_11 
REMARK    2  A    between atoms: N_3  and  C_4 
ROOT
HETATM    1  O   UNL     1     -43.028 -49.252  13.481  1.00  0.00    -0.265 OA
HETATM    2  C   UNL     1     -42.591 -50.063  12.671  1.00  0.00     0.281 C 
HETATM    3  N   UNL     1     -41.982 -49.749  11.470  1.00  0.00    -0.321 N 
HETATM    4  H   UNL     1     -41.790 -50.523  10.846  1.00  0.00     0.169 HD
ENDROOT
BRANCH   3   5
HETATM    5  C   UNL     1     -41.712 -48.434  11.015  1.00  0.00     0.037 A 
HETATM    6  C   UNL     1     -40.538 -47.749  11.327  1.00  0.00     0.046 A 
HETATM    7  C   UNL     1     -40.372 -46.453  10.867  1.00  0.00     0.090 A 
HETATM    8  N   UNL     1     -41.284 -45.801  10.119  1.00  0.00    -0.375 N 
HETATM    9  C   UNL     1     -42.405 -46.486   9.813  1.00  0.00     0.090 A 
ATOM     10  HN  UNL     1     -41.135 -44.844   9.802  1.00  0.00     0.164 HD
HETATM   11  C   UNL     1     -42.658 -47.792  10.217  1.00  0.00     0.046 A 
ENDBRANCH   3   5
BRANCH   2  12
HETATM   12  C   UNL     1     -42.723 -51.539  12.936  1.00  0.00     0.159 C 
HETATM   13  C   UNL     1     -43.917 -51.945  13.386  1.00  0.00     0.177 C 
HETATM   14  O   UNL     1     -44.270 -53.210  13.728  1.00  0.00    -0.358 OA
HETATM   15  C   UNL     1     -43.252 -54.185  13.578  1.00  0.00     0.201 C 
HETATM   16  C   UNL     1     -41.847 -53.718  13.169  1.00  0.00     0.202 C 
HETATM   17  O   UNL     1     -41.655 -52.374  12.725  1.00  0.00    -0.342 OA
ENDBRANCH   2  12
TORSDOF 2
ENDMDL
MODEL 8
REMARK VINA RESULT:      -4.4      6.504      8.776
REMARK  2 active torsions:
REMARK  status: ('A' for Active; 'I' for Inactive)
REMARK       I    between atoms: C_2  and  N_3 
REMARK    1  A    between atoms: C_2  and  C_11 
REMARK    2  A    between atoms: N_3  and  C_4 
ROOT
HETATM    1  O   UNL     1     -42.295 -51.044  14.682  1.00  0.00    -0.265 OA
HETATM    2  C   UNL     1     -42.277 -51.994  13.907  1.00  0.00     0.281 C 
HETATM    3  N   UNL     1     -41.317 -52.221  12.937  1.00  0.00    -0.321 N 
HETATM    4  H   UNL     1     -41.502 -52.974  12.286  1.00  0.00     0.169 HD
ENDROOT
BRANCH   3   5
HETATM    5  C   UNL     1     -40.168 -51.418  12.728  1.00  0.00     0.037 A 
HETATM    6  C   UNL     1     -40.131 -50.370  11.808  1.00  0.00     0.046 A 
HETATM    7  C   UNL     1     -38.954 -49.658  11.644  1.00  0.00     0.090 A 
HETATM    8  N   UNL     1     -37.824 -49.913  12.330  1.00  0.00    -0.375 N 
HETATM    9  C   UNL     1     -37.882 -50.919  13.227  1.00  0.00     0.090 A 
ATOM     10  HN  UNL     1     -36.970 -49.375  12.181  1.00  0.00     0.164 HD
HETATM   11  C   UNL     1     -39.018 -51.682  13.472  1.00  0.00     0.046 A 
ENDBRANCH   3   5
BRANCH   2  12
HETATM   12  C   UNL     1     -43.377 -53.021  13.946  1.00  0.00     0.159 C 
HETATM   13  C   UNL     1     -43.765 -53.503  12.758  1.00  0.00     0.177 C 
HETATM   14  O   UNL     1     -44.754 -54.404  12.530  1.00  0.00    -0.358 OA
HETATM   15  C   UNL     1     -45.425 -54.873  13.687  1.00  0.00     0.201 C 
HETATM   16  C   UNL     1     -45.068 -54.249  15.043  1.00  0.00     0.202 C 
HETATM   17  O   UNL     1     -43.924 -53.399  15.146  1.00  0.00    -0.342 OA
ENDBRANCH   2  12
TORSDOF 2
ENDMDL
MODEL 9
REMARK VINA RESULT:      -4.4      4.882      5.750
REMARK  2 active torsions:
REMARK  status: ('A' for Active; 'I' for Inactive)
REMARK       I    between atoms: C_2  and  N_3 
REMARK    1  A    between atoms: C_2  and  C_11 
REMARK    2  A    between atoms: N_3  and  C_4 
ROOT
HETATM    1  O   UNL     1     -41.993 -49.274  13.565  1.00  0.00    -0.265 OA
HETATM    2  C   UNL     1     -42.035 -49.426  12.348  1.00  0.00     0.281 C 
HETATM    3  N   UNL     1     -41.932 -50.636  11.687  1.00  0.00    -0.321 N 
HETATM    4  H   UNL     1     -41.853 -50.593  10.678  1.00  0.00     0.169 HD
ENDROOT
BRANCH   3   5
HETATM    5  C   UNL     1     -41.820 -51.900  12.317  1.00  0.00     0.037 A 
HETATM    6  C   UNL     1     -40.595 -52.472  12.660  1.00  0.00     0.046 A 
HETATM    7  C   UNL     1     -40.577 -53.728  13.243  1.00  0.00     0.090 A 
HETATM    8  N   UNL     1     -41.686 -54.445  13.511  1.00  0.00    -0.375 N 
HETATM    9  C   UNL     1     -42.862 -53.869  13.187  1.00  0.00     0.090 A 
ATOM     10  HN  UNL     1     -41.639 -55.371  13.934  1.00  0.00     0.164 HD
HETATM   11  C   UNL     1     -42.984 -52.611  12.611  1.00  0.00     0.046 A 
ENDBRANCH   3   5
BRANCH   2  12
HETATM   12  C   UNL     1     -42.185 -48.232  11.444  1.00  0.00     0.159 C 
HETATM   13  C   UNL     1     -41.091 -47.476  11.292  1.00  0.00     0.177 C 
HETATM   14  O   UNL     1     -40.983 -46.337  10.562  1.00  0.00    -0.358 OA
HETATM   15  C   UNL     1     -42.166 -45.931   9.895  1.00  0.00     0.201 C 
HETATM   16  C   UNL     1     -43.457 -46.724  10.148  1.00  0.00     0.202 C 
HETATM   17  O   UNL     1     -43.391 -47.970  10.844  1.00  0.00    -0.342 OA
ENDBRANCH   2  12
TORSDOF 2
ENDMDL
