MODEL 1
REMARK VINA RESULT:      -6.0      0.000      0.000
REMARK  6 active torsions:
REMARK  status: ('A' for Active; 'I' for Inactive)
REMARK    1  A    between atoms: C_2  and  C_3 
REMARK    2  A    between atoms: C_3  and  C_4 
REMARK    3  A    between atoms: C_3  and  N_17 
REMARK    4  A    between atoms: C_4  and  N_5 
REMARK       I    between atoms: N_5  and  C_6 
REMARK    5  A    between atoms: C_6  and  C_8 
REMARK    6  A    between atoms: C_8  and  C_9 
ROOT
HETATM    1  N   UNL     1     -43.321 -49.889  12.206  1.00  0.00    -0.359 N 
HETATM    2  C   UNL     1     -42.947 -48.569  12.070  1.00  0.00     0.222 C 
HETATM    3  O   UNL     1     -43.099 -47.723  12.946  1.00  0.00    -0.273 OA
HETATM    4  H   UNL     1     -43.026 -50.558  11.508  1.00  0.00     0.162 HD
ENDROOT
BRANCH   1   5
HETATM    5  C   UNL     1     -43.904 -50.412  13.438  1.00  0.00     0.158 C 
BRANCH   5   6
HETATM    6  C   UNL     1     -44.700 -51.745  13.256  1.00  0.00     0.240 C 
BRANCH   6   7
HETATM    7  C   UNL     1     -46.231 -51.514  13.370  1.00  0.00     0.033 C 
HETATM    8  C   UNL     1     -46.771 -51.395  14.790  1.00  0.00     0.007 C 
ENDBRANCH   6   7
BRANCH   6   9
HETATM    9  N   UNL     1     -44.210 -52.801  14.176  1.00  0.00     0.094 N 
HETATM   10  C   UNL     1     -42.746 -52.835  14.322  1.00  0.00     0.273 C 
HETATM   11  C   UNL     1     -42.367 -54.296  14.539  1.00  0.00     0.032 C 
HETATM   12  C   UNL     1     -43.690 -55.025  14.653  1.00  0.00     0.032 C 
HETATM   13  C   UNL     1     -44.624 -54.163  13.824  1.00  0.00     0.273 C 
ENDBRANCH   6   9
ENDBRANCH   5   6
ENDBRANCH   1   5
BRANCH   2  14
HETATM   14  C   UNL     1     -42.313 -48.219  10.737  1.00  0.00     0.146 C 
BRANCH  14  15
HETATM   15  C   UNL     1     -42.851 -46.934  10.225  1.00  0.00     0.006 A 
HETATM   16  C   UNL     1     -44.091 -46.690   9.569  1.00  0.00     0.038 A 
HETATM   17  C   UNL     1     -45.164 -47.646   9.207  1.00  0.00     0.071 C 
HETATM   18  N   UNL     1     -44.230 -45.395   9.260  1.00  0.00    -0.265 N 
HETATM   19  O   UNL     1     -43.092 -44.769   9.724  1.00  0.00    -0.242 OA
ATOM     20  HN  UNL     1     -45.017 -44.960   8.779  1.00  0.00     0.194 HD
HETATM   21  C   UNL     1     -42.270 -45.684  10.298  1.00  0.00     0.081 A 
HETATM   22  C   UNL     1     -41.005 -45.170  10.855  1.00  0.00     0.079 C 
ENDBRANCH  14  15
ENDBRANCH   2  14
TORSDOF 6
ENDMDL
MODEL 2
REMARK VINA RESULT:      -5.8      1.157      2.531
REMARK  6 active torsions:
REMARK  status: ('A' for Active; 'I' for Inactive)
REMARK    1  A    between atoms: C_2  and  C_3 
REMARK    2  A    between atoms: C_3  and  C_4 
REMARK    3  A    between atoms: C_3  and  N_17 
REMARK    4  A    between atoms: C_4  and  N_5 
REMARK       I    between atoms: N_5  and  C_6 
REMARK    5  A    between atoms: C_6  and  C_8 
REMARK    6  A    between atoms: C_8  and  C_9 
ROOT
HETATM    1  N   UNL     1     -42.458 -49.864  12.197  1.00  0.00    -0.359 N 
HETATM    2  C   UNL     1     -42.651 -48.547  11.838  1.00  0.00     0.222 C 
HETATM    3  O   UNL     1     -43.062 -47.684  12.608  1.00  0.00    -0.273 OA
HETATM    4  H   UNL     1     -41.973 -50.482  11.560  1.00  0.00     0.162 HD
ENDROOT
BRANCH   1   5
HETATM    5  C   UNL     1     -42.692 -50.346  13.555  1.00  0.00     0.158 C 
BRANCH   5   6
HETATM    6  C   UNL     1     -42.953 -51.884  13.655  1.00  0.00     0.240 C 
BRANCH   6   7
HETATM    7  C   UNL     1     -42.353 -52.643  12.440  1.00  0.00     0.033 C 
HETATM    8  C   UNL     1     -41.309 -53.700  12.779  1.00  0.00     0.007 C 
ENDBRANCH   6   7
BRANCH   6   9
HETATM    9  N   UNL     1     -44.393 -52.179  13.859  1.00  0.00     0.094 N 
HETATM   10  C   UNL     1     -45.097 -52.597  12.636  1.00  0.00     0.273 C 
HETATM   11  C   UNL     1     -46.525 -52.075  12.761  1.00  0.00     0.032 C 
HETATM   12  C   UNL     1     -46.603 -51.493  14.156  1.00  0.00     0.032 C 
HETATM   13  C   UNL     1     -45.171 -51.074  14.429  1.00  0.00     0.273 C 
ENDBRANCH   6   9
ENDBRANCH   5   6
ENDBRANCH   1   5
BRANCH   2  14
HETATM   14  C   UNL     1     -42.309 -48.220  10.397  1.00  0.00     0.146 C 
BRANCH  14  15
HETATM   15  C   UNL     1     -42.894 -46.914  10.005  1.00  0.00     0.006 A 
HETATM   16  C   UNL     1     -44.167 -46.652   9.423  1.00  0.00     0.038 A 
HETATM   17  C   UNL     1     -45.237 -47.603   9.040  1.00  0.00     0.071 C 
HETATM   18  N   UNL     1     -44.345 -45.342   9.216  1.00  0.00    -0.265 N 
HETATM   19  O   UNL     1     -43.200 -44.725   9.675  1.00  0.00    -0.242 OA
ATOM     20  HN  UNL     1     -45.162 -44.891   8.804  1.00  0.00     0.194 HD
HETATM   21  C   UNL     1     -42.335 -45.661  10.144  1.00  0.00     0.081 A 
HETATM   22  C   UNL     1     -41.057 -45.159  10.682  1.00  0.00     0.079 C 
ENDBRANCH  14  15
ENDBRANCH   2  14
TORSDOF 6
ENDMDL
MODEL 3
REMARK VINA RESULT:      -5.7      3.788      4.865
REMARK  6 active torsions:
REMARK  status: ('A' for Active; 'I' for Inactive)
REMARK    1  A    between atoms: C_2  and  C_3 
REMARK    2  A    between atoms: C_3  and  C_4 
REMARK    3  A    between atoms: C_3  and  N_17 
REMARK    4  A    between atoms: C_4  and  N_5 
REMARK       I    between atoms: N_5  and  C_6 
REMARK    5  A    between atoms: C_6  and  C_8 
REMARK    6  A    between atoms: C_8  and  C_9 
ROOT
HETATM    1  N   UNL     1     -42.321 -51.538  12.000  1.00  0.00    -0.359 N 
HETATM    2  C   UNL     1     -40.955 -51.377  11.902  1.00  0.00     0.222 C 
HETATM    3  O   UNL     1     -40.142 -52.241  12.217  1.00  0.00    -0.273 OA
HETATM    4  H   UNL     1     -42.929 -50.848  11.581  1.00  0.00     0.162 HD
ENDROOT
BRANCH   1   5
HETATM    5  C   UNL     1     -42.930 -52.784  12.457  1.00  0.00     0.158 C 
BRANCH   5   6
HETATM    6  C   UNL     1     -43.339 -52.782  13.966  1.00  0.00     0.240 C 
BRANCH   6   7
HETATM    7  C   UNL     1     -42.761 -54.013  14.714  1.00  0.00     0.033 C 
HETATM    8  C   UNL     1     -43.704 -55.204  14.841  1.00  0.00     0.007 C 
ENDBRANCH   6   7
BRANCH   6   9
HETATM    9  N   UNL     1     -44.808 -52.650  14.130  1.00  0.00     0.094 N 
HETATM   10  C   UNL     1     -45.548 -52.579  12.860  1.00  0.00     0.273 C 
HETATM   11  C   UNL     1     -46.751 -51.676  13.111  1.00  0.00     0.032 C 
HETATM   12  C   UNL     1     -46.713 -51.385  14.596  1.00  0.00     0.032 C 
HETATM   13  C   UNL     1     -45.236 -51.493  14.924  1.00  0.00     0.273 C 
ENDBRANCH   6   9
ENDBRANCH   5   6
ENDBRANCH   1   5
BRANCH   2  14
HETATM   14  C   UNL     1     -40.507 -50.032  11.361  1.00  0.00     0.146 C 
BRANCH  14  15
HETATM   15  C   UNL     1     -39.500 -49.418  12.262  1.00  0.00     0.006 A 
HETATM   16  C   UNL     1     -39.714 -48.712  13.480  1.00  0.00     0.038 A 
HETATM   17  C   UNL     1     -40.988 -48.389  14.165  1.00  0.00     0.071 C 
HETATM   18  N   UNL     1     -38.556 -48.309  14.017  1.00  0.00    -0.265 N 
HETATM   19  O   UNL     1     -37.566 -48.759  13.168  1.00  0.00    -0.242 OA
ATOM     20  HN  UNL     1     -38.430 -47.778  14.878  1.00  0.00     0.194 HD
HETATM   21  C   UNL     1     -38.128 -49.418  12.123  1.00  0.00     0.081 A 
HETATM   22  C   UNL     1     -37.197 -49.973  11.122  1.00  0.00     0.079 C 
ENDBRANCH  14  15
ENDBRANCH   2  14
TORSDOF 6
ENDMDL
MODEL 4
REMARK VINA RESULT:      -5.6      2.649      7.681
REMARK  6 active torsions:
REMARK  status: ('A' for Active; 'I' for Inactive)
REMARK    1  A    between atoms: C_2  and  C_3 
REMARK    2  A    between atoms: C_3  and  C_4 
REMARK    3  A    between atoms: C_3  and  N_17 
REMARK    4  A    between atoms: C_4  and  N_5 
REMARK       I    between atoms: N_5  and  C_6 
REMARK    5  A    between atoms: C_6  and  C_8 
REMARK    6  A    between atoms: C_8  and  C_9 
ROOT
HETATM    1  N   UNL     1     -42.352 -50.831  11.975  1.00  0.00    -0.359 N 
HETATM    2  C   UNL     1     -42.831 -51.653  12.974  1.00  0.00     0.222 C 
HETATM    3  O   UNL     1     -42.948 -51.305  14.145  1.00  0.00    -0.273 OA
HETATM    4  H   UNL     1     -42.429 -51.130  11.013  1.00  0.00     0.162 HD
ENDROOT
BRANCH   1   5
HETATM    5  C   UNL     1     -41.972 -49.443  12.221  1.00  0.00     0.158 C 
BRANCH   5   6
HETATM    6  C   UNL     1     -40.847 -48.908  11.277  1.00  0.00     0.240 C 
BRANCH   6   7
HETATM    7  C   UNL     1     -39.530 -48.643  12.055  1.00  0.00     0.033 C 
HETATM    8  C   UNL     1     -38.339 -49.496  11.635  1.00  0.00     0.007 C 
ENDBRANCH   6   7
BRANCH   6   9
HETATM    9  N   UNL     1     -41.302 -47.727  10.504  1.00  0.00     0.094 N 
HETATM   10  C   UNL     1     -41.072 -46.442  11.184  1.00  0.00     0.273 C 
HETATM   11  C   UNL     1     -42.217 -45.523  10.769  1.00  0.00     0.032 C 
HETATM   12  C   UNL     1     -42.986 -46.309   9.729  1.00  0.00     0.032 C 
HETATM   13  C   UNL     1     -42.720 -47.748  10.127  1.00  0.00     0.273 C 
ENDBRANCH   6   9
ENDBRANCH   5   6
ENDBRANCH   1   5
BRANCH   2  14
HETATM   14  C   UNL     1     -43.222 -53.047  12.521  1.00  0.00     0.146 C 
BRANCH  14  15
HETATM   15  C   UNL     1     -44.352 -53.561  13.334  1.00  0.00     0.006 A 
HETATM   16  C   UNL     1     -45.734 -53.229  13.240  1.00  0.00     0.038 A 
HETATM   17  C   UNL     1     -46.410 -52.278  12.328  1.00  0.00     0.071 C 
HETATM   18  N   UNL     1     -46.457 -53.906  14.141  1.00  0.00    -0.265 N 
HETATM   19  O   UNL     1     -45.563 -54.703  14.826  1.00  0.00    -0.242 OA
ATOM     20  HN  UNL     1     -47.464 -53.844  14.291  1.00  0.00     0.194 HD
HETATM   21  C   UNL     1     -44.310 -54.497  14.346  1.00  0.00     0.081 A 
HETATM   22  C   UNL     1     -43.232 -55.287  14.971  1.00  0.00     0.079 C 
ENDBRANCH  14  15
ENDBRANCH   2  14
TORSDOF 6
ENDMDL
MODEL 5
REMARK VINA RESULT:      -5.6      3.956      6.716
REMARK  6 active torsions:
REMARK  status: ('A' for Active; 'I' for Inactive)
REMARK    1  A    between atoms: C_2  and  C_3 
REMARK    2  A    between atoms: C_3  and  C_4 
REMARK    3  A    between atoms: C_3  and  N_17 
REMARK    4  A    between atoms: C_4  and  N_5 
REMARK       I    between atoms: N_5  and  C_6 
REMARK    5  A    between atoms: C_6  and  C_8 
REMARK    6  A    between atoms: C_8  and  C_9 
ROOT
HETATM    1  N   UNL     1     -43.042 -52.963  12.038  1.00  0.00    -0.359 N 
HETATM    2  C   UNL     1     -43.394 -53.840  13.043  1.00  0.00     0.222 C 
HETATM    3  O   UNL     1     -42.587 -54.362  13.806  1.00  0.00    -0.273 OA
HETATM    4  H   UNL     1     -43.768 -52.456  11.552  1.00  0.00     0.162 HD
ENDROOT
BRANCH   1   5
HETATM    5  C   UNL     1     -41.661 -52.543  11.817  1.00  0.00     0.158 C 
BRANCH   5   6
HETATM    6  C   UNL     1     -41.236 -51.280  12.635  1.00  0.00     0.240 C 
BRANCH   6   7
HETATM    7  C   UNL     1     -42.221 -50.101  12.413  1.00  0.00     0.033 C 
HETATM    8  C   UNL     1     -43.204 -49.845  13.549  1.00  0.00     0.007 C 
ENDBRANCH   6   7
BRANCH   6   9
HETATM    9  N   UNL     1     -39.826 -50.907  12.364  1.00  0.00     0.094 N 
HETATM   10  C   UNL     1     -38.989 -50.818  13.571  1.00  0.00     0.273 C 
HETATM   11  C   UNL     1     -37.963 -49.720  13.305  1.00  0.00     0.032 C 
HETATM   12  C   UNL     1     -38.185 -49.327  11.860  1.00  0.00     0.032 C 
HETATM   13  C   UNL     1     -39.653 -49.640  11.645  1.00  0.00     0.273 C 
ENDBRANCH   6   9
ENDBRANCH   5   6
ENDBRANCH   1   5
BRANCH   2  14
HETATM   14  C   UNL     1     -44.880 -54.123  13.153  1.00  0.00     0.146 C 
BRANCH  14  15
HETATM   15  C   UNL     1     -45.582 -52.981  13.790  1.00  0.00     0.006 A 
HETATM   16  C   UNL     1     -45.567 -52.583  15.157  1.00  0.00     0.038 A 
HETATM   17  C   UNL     1     -44.867 -53.203  16.307  1.00  0.00     0.071 C 
HETATM   18  N   UNL     1     -46.321 -51.494  15.353  1.00  0.00    -0.265 N 
HETATM   19  O   UNL     1     -46.827 -51.153  14.116  1.00  0.00    -0.242 OA
ATOM     20  HN  UNL     1     -46.488 -51.014  16.238  1.00  0.00     0.194 HD
HETATM   21  C   UNL     1     -46.388 -52.039  13.185  1.00  0.00     0.081 A 
HETATM   22  C   UNL     1     -46.835 -51.807  11.799  1.00  0.00     0.079 C 
ENDBRANCH  14  15
ENDBRANCH   2  14
TORSDOF 6
ENDMDL
MODEL 6
REMARK VINA RESULT:      -5.6      4.004      6.706
REMARK  6 active torsions:
REMARK  status: ('A' for Active; 'I' for Inactive)
REMARK    1  A    between atoms: C_2  and  C_3 
REMARK    2  A    between atoms: C_3  and  C_4 
REMARK    3  A    between atoms: C_3  and  N_17 
REMARK    4  A    between atoms: C_4  and  N_5 
REMARK       I    between atoms: N_5  and  C_6 
REMARK    5  A    between atoms: C_6  and  C_8 
REMARK    6  A    between atoms: C_8  and  C_9 
ROOT
HETATM    1  N   UNL     1     -42.672 -52.572  11.937  1.00  0.00    -0.359 N 
HETATM    2  C   UNL     1     -43.022 -53.531  12.864  1.00  0.00     0.222 C 
HETATM    3  O   UNL     1     -42.239 -54.012  13.677  1.00  0.00    -0.273 OA
HETATM    4  H   UNL     1     -43.398 -52.112  11.406  1.00  0.00     0.162 HD
ENDROOT
BRANCH   1   5
HETATM    5  C   UNL     1     -41.326 -52.010  11.866  1.00  0.00     0.158 C 
BRANCH   5   6
HETATM    6  C   UNL     1     -41.141 -50.683  12.672  1.00  0.00     0.240 C 
BRANCH   6   7
HETATM    7  C   UNL     1     -41.980 -49.527  12.065  1.00  0.00     0.033 C 
HETATM    8  C   UNL     1     -43.170 -49.072  12.901  1.00  0.00     0.007 C 
ENDBRANCH   6   7
BRANCH   6   9
HETATM    9  N   UNL     1     -39.707 -50.333  12.822  1.00  0.00     0.094 N 
HETATM   10  C   UNL     1     -39.095 -49.789  11.600  1.00  0.00     0.273 C 
HETATM   11  C   UNL     1     -37.639 -50.246  11.605  1.00  0.00     0.032 C 
HETATM   12  C   UNL     1     -37.455 -50.929  12.944  1.00  0.00     0.032 C 
HETATM   13  C   UNL     1     -38.848 -51.439  13.259  1.00  0.00     0.273 C 
ENDBRANCH   6   9
ENDBRANCH   5   6
ENDBRANCH   1   5
BRANCH   2  14
HETATM   14  C   UNL     1     -44.477 -53.960  12.820  1.00  0.00     0.146 C 
BRANCH  14  15
HETATM   15  C   UNL     1     -45.299 -53.109  13.716  1.00  0.00     0.006 A 
HETATM   16  C   UNL     1     -46.230 -52.092  13.364  1.00  0.00     0.038 A 
HETATM   17  C   UNL     1     -46.617 -51.599  12.021  1.00  0.00     0.071 C 
HETATM   18  N   UNL     1     -46.787 -51.546  14.452  1.00  0.00    -0.265 N 
HETATM   19  O   UNL     1     -46.241 -52.209  15.532  1.00  0.00    -0.242 OA
ATOM     20  HN  UNL     1     -47.475 -50.793  14.478  1.00  0.00     0.194 HD
HETATM   21  C   UNL     1     -45.355 -53.139  15.094  1.00  0.00     0.081 A 
HETATM   22  C   UNL     1     -44.686 -53.945  16.133  1.00  0.00     0.079 C 
ENDBRANCH  14  15
ENDBRANCH   2  14
TORSDOF 6
ENDMDL
MODEL 7
REMARK VINA RESULT:      -5.5      4.163      6.999
REMARK  6 active torsions:
REMARK  status: ('A' for Active; 'I' for Inactive)
REMARK    1  A    between atoms: C_2  and  C_3 
REMARK    2  A    between atoms: C_3  and  C_4 
REMARK    3  A    between atoms: C_3  and  N_17 
REMARK    4  A    between atoms: C_4  and  N_5 
REMARK       I    between atoms: N_5  and  C_6 
REMARK    5  A    between atoms: C_6  and  C_8 
REMARK    6  A    between atoms: C_8  and  C_9 
ROOT
HETATM    1  N   UNL     1     -43.555 -52.320  12.501  1.00  0.00    -0.359 N 
HETATM    2  C   UNL     1     -44.370 -51.481  13.232  1.00  0.00     0.222 C 
HETATM    3  O   UNL     1     -43.997 -50.414  13.710  1.00  0.00    -0.273 OA
HETATM    4  H   UNL     1     -43.967 -53.101  12.010  1.00  0.00     0.162 HD
ENDROOT
BRANCH   1   5
HETATM    5  C   UNL     1     -42.167 -51.987  12.194  1.00  0.00     0.158 C 
BRANCH   5   6
HETATM    6  C   UNL     1     -41.116 -52.897  12.910  1.00  0.00     0.240 C 
BRANCH   6   7
HETATM    7  C   UNL     1     -41.758 -54.215  13.421  1.00  0.00     0.033 C 
HETATM    8  C   UNL     1     -41.946 -54.310  14.930  1.00  0.00     0.007 C 
ENDBRANCH   6   7
BRANCH   6   9
HETATM    9  N   UNL     1     -40.397 -52.159  13.978  1.00  0.00     0.094 N 
HETATM   10  C   UNL     1     -40.556 -50.698  13.906  1.00  0.00     0.273 C 
HETATM   11  C   UNL     1     -39.250 -50.096  14.417  1.00  0.00     0.032 C 
HETATM   12  C   UNL     1     -38.444 -51.281  14.904  1.00  0.00     0.032 C 
HETATM   13  C   UNL     1     -38.954 -52.417  14.038  1.00  0.00     0.273 C 
ENDBRANCH   6   9
ENDBRANCH   5   6
ENDBRANCH   1   5
BRANCH   2  14
HETATM   14  C   UNL     1     -45.795 -51.969  13.409  1.00  0.00     0.146 C 
BRANCH  14  15
HETATM   15  C   UNL     1     -45.914 -52.802  14.631  1.00  0.00     0.006 A 
HETATM   16  C   UNL     1     -46.212 -52.387  15.961  1.00  0.00     0.038 A 
HETATM   17  C   UNL     1     -46.467 -51.024  16.483  1.00  0.00     0.071 C 
HETATM   18  N   UNL     1     -46.240 -53.430  16.799  1.00  0.00    -0.265 N 
HETATM   19  O   UNL     1     -45.977 -54.545  16.029  1.00  0.00    -0.242 OA
ATOM     20  HN  UNL     1     -46.419 -53.406  17.803  1.00  0.00     0.194 HD
HETATM   21  C   UNL     1     -45.782 -54.171  14.739  1.00  0.00     0.081 A 
HETATM   22  C   UNL     1     -45.497 -55.254  13.780  1.00  0.00     0.079 C 
ENDBRANCH  14  15
ENDBRANCH   2  14
TORSDOF 6
ENDMDL
MODEL 8
REMARK VINA RESULT:      -5.5      2.186      7.376
REMARK  6 active torsions:
REMARK  status: ('A' for Active; 'I' for Inactive)
REMARK    1  A    between atoms: C_2  and  C_3 
REMARK    2  A    between atoms: C_3  and  C_4 
REMARK    3  A    between atoms: C_3  and  N_17 
REMARK    4  A    between atoms: C_4  and  N_5 
REMARK       I    between atoms: N_5  and  C_6 
REMARK    5  A    between atoms: C_6  and  C_8 
REMARK    6  A    between atoms: C_8  and  C_9 
ROOT
HETATM    1  N   UNL     1     -43.052 -48.956  11.770  1.00  0.00    -0.359 N 
HETATM    2  C   UNL     1     -42.342 -50.016  12.293  1.00  0.00     0.222 C 
HETATM    3  O   UNL     1     -41.254 -50.387  11.862  1.00  0.00    -0.273 OA
HETATM    4  H   UNL     1     -43.861 -48.612  12.269  1.00  0.00     0.162 HD
ENDROOT
BRANCH   1   5
HETATM    5  C   UNL     1     -42.545 -48.145  10.667  1.00  0.00     0.158 C 
BRANCH   5   6
HETATM    6  C   UNL     1     -43.246 -46.756  10.517  1.00  0.00     0.240 C 
BRANCH   6   7
HETATM    7  C   UNL     1     -43.866 -46.580   9.105  1.00  0.00     0.033 C 
HETATM    8  C   UNL     1     -43.499 -47.656   8.090  1.00  0.00     0.007 C 
ENDBRANCH   6   7
BRANCH   6   9
HETATM    9  N   UNL     1     -42.334 -45.644  10.884  1.00  0.00     0.094 N 
HETATM   10  C   UNL     1     -40.938 -45.856  10.469  1.00  0.00     0.273 C 
HETATM   11  C   UNL     1     -40.067 -45.185  11.526  1.00  0.00     0.032 C 
HETATM   12  C   UNL     1     -41.045 -44.480  12.442  1.00  0.00     0.032 C 
HETATM   13  C   UNL     1     -42.297 -45.327  12.316  1.00  0.00     0.273 C 
ENDBRANCH   6   9
ENDBRANCH   5   6
ENDBRANCH   1   5
BRANCH   2  14
HETATM   14  C   UNL     1     -43.003 -50.711  13.468  1.00  0.00     0.146 C 
BRANCH  14  15
HETATM   15  C   UNL     1     -43.621 -51.990  13.037  1.00  0.00     0.006 A 
HETATM   16  C   UNL     1     -42.992 -53.246  12.807  1.00  0.00     0.038 A 
HETATM   17  C   UNL     1     -41.560 -53.611  12.920  1.00  0.00     0.071 C 
HETATM   18  N   UNL     1     -43.881 -54.173  12.433  1.00  0.00    -0.265 N 
HETATM   19  O   UNL     1     -45.109 -53.543  12.428  1.00  0.00    -0.242 OA
ATOM     20  HN  UNL     1     -43.691 -55.148  12.199  1.00  0.00     0.194 HD
HETATM   21  C   UNL     1     -44.954 -52.243  12.787  1.00  0.00     0.081 A 
HETATM   22  C   UNL     1     -46.183 -51.428  12.839  1.00  0.00     0.079 C 
ENDBRANCH  14  15
ENDBRANCH   2  14
TORSDOF 6
ENDMDL
MODEL 9
REMARK VINA RESULT:      -5.5      1.667      2.632
REMARK  6 active torsions:
REMARK  status: ('A' for Active; 'I' for Inactive)
REMARK    1  A    between atoms: C_2  and  C_3 
REMARK    2  A    between atoms: C_3  and  C_4 
REMARK    3  A    between atoms: C_3  and  N_17 
REMARK    4  A    between atoms: C_4  and  N_5 
REMARK       I    between atoms: N_5  and  C_6 
REMARK    5  A    between atoms: C_6  and  C_8 
REMARK    6  A    between atoms: C_8  and  C_9 
ROOT
HETATM    1  N   UNL     1     -42.475 -50.355  12.242  1.00  0.00    -0.359 N 
HETATM    2  C   UNL     1     -42.053 -49.186  11.646  1.00  0.00     0.222 C 
HETATM    3  O   UNL     1     -41.063 -49.107  10.924  1.00  0.00    -0.273 OA
HETATM    4  H   UNL     1     -43.379 -50.379  12.694  1.00  0.00     0.162 HD
ENDROOT
BRANCH   1   5
HETATM    5  C   UNL     1     -41.792 -51.629  12.033  1.00  0.00     0.158 C 
BRANCH   5   6
HETATM    6  C   UNL     1     -41.875 -52.609  13.248  1.00  0.00     0.240 C 
BRANCH   6   7
HETATM    7  C   UNL     1     -41.017 -53.881  13.012  1.00  0.00     0.033 C 
HETATM    8  C   UNL     1     -39.772 -54.002  13.883  1.00  0.00     0.007 C 
ENDBRANCH   6   7
BRANCH   6   9
HETATM    9  N   UNL     1     -43.282 -52.924  13.596  1.00  0.00     0.094 N 
HETATM   10  C   UNL     1     -43.434 -53.663  14.860  1.00  0.00     0.273 C 
HETATM   11  C   UNL     1     -44.643 -54.576  14.684  1.00  0.00     0.032 C 
HETATM   12  C   UNL     1     -45.223 -54.194  13.338  1.00  0.00     0.032 C 
HETATM   13  C   UNL     1     -44.011 -53.689  12.578  1.00  0.00     0.273 C 
ENDBRANCH   6   9
ENDBRANCH   5   6
ENDBRANCH   1   5
BRANCH   2  14
HETATM   14  C   UNL     1     -42.914 -47.972  11.939  1.00  0.00     0.146 C 
BRANCH  14  15
HETATM   15  C   UNL     1     -43.002 -47.094  10.746  1.00  0.00     0.006 A 
HETATM   16  C   UNL     1     -44.029 -47.037   9.761  1.00  0.00     0.038 A 
HETATM   17  C   UNL     1     -45.268 -47.842   9.651  1.00  0.00     0.071 C 
HETATM   18  N   UNL     1     -43.761 -46.109   8.834  1.00  0.00    -0.265 N 
HETATM   19  O   UNL     1     -42.565 -45.533   9.207  1.00  0.00    -0.242 OA
ATOM     20  HN  UNL     1     -44.327 -45.876   8.018  1.00  0.00     0.194 HD
HETATM   21  C   UNL     1     -42.112 -46.120  10.345  1.00  0.00     0.081 A 
HETATM   22  C   UNL     1     -40.838 -45.607  10.883  1.00  0.00     0.079 C 
ENDBRANCH  14  15
ENDBRANCH   2  14
TORSDOF 6
ENDMDL
