MODEL 1
REMARK VINA RESULT:      -6.4      0.000      0.000
REMARK  3 active torsions:
REMARK  status: ('A' for Active; 'I' for Inactive)
REMARK    1  A    between atoms: O_2  and  C_3 
REMARK    2  A    between atoms: C_4  and  N_5 
REMARK       I    between atoms: N_5  and  C_6 
REMARK       I    between atoms: C_6  and  N_8 
REMARK    3  A    between atoms: N_8  and  C_9 
ROOT
HETATM    1  N   UNL     1     -42.576 -52.044  11.970  1.00  0.00    -0.303 N 
HETATM    2  C   UNL     1     -42.492 -50.748  12.431  1.00  0.00     0.321 C 
HETATM    3  O   UNL     1     -42.980 -50.325  13.470  1.00  0.00    -0.247 OA
HETATM    4  N   UNL     1     -41.782 -49.948  11.560  1.00  0.00    -0.338 N 
HETATM    5  H   UNL     1     -42.599 -52.139  10.972  1.00  0.00     0.171 HD
HETATM    6  H   UNL     1     -41.483 -50.332  10.678  1.00  0.00     0.164 HD
ENDROOT
BRANCH   1   7
HETATM    7  C   UNL     1     -43.135 -53.075  12.716  1.00  0.00     0.113 A 
HETATM    8  C   UNL     1     -44.464 -53.481  12.688  1.00  0.00     0.188 A 
HETATM    9  N   UNL     1     -44.536 -54.502  13.607  1.00  0.00    -0.273 N 
HETATM   10  N   UNL     1     -43.363 -54.842  14.158  1.00  0.00    -0.299 N 
HETATM   11  C   UNL     1     -45.728 -55.235  13.964  1.00  0.00     0.180 C 
HETATM   12  C   UNL     1     -42.495 -53.971  13.628  1.00  0.00     0.053 A 
ATOM     13  HN  UNL     1     -43.175 -55.589  14.826  1.00  0.00     0.187 HD
HETATM   14  C   UNL     1     -41.056 -54.120  13.970  1.00  0.00     0.072 C 
BRANCH   8  15
HETATM   15  O   UNL     1     -45.596 -53.108  12.078  1.00  0.00    -0.338 OA
HETATM   16  C   UNL     1     -46.236 -51.923  12.511  1.00  0.00     0.211 C 
ENDBRANCH   8  15
ENDBRANCH   1   7
BRANCH   4  17
HETATM   17  C   UNL     1     -41.640 -48.507  11.770  1.00  0.00     0.086 C 
HETATM   18  C   UNL     1     -42.420 -47.762  10.676  1.00  0.00     0.025 C 
HETATM   19  C   UNL     1     -42.600 -46.275  10.967  1.00  0.00     0.002 C 
HETATM   20  C   UNL     1     -41.460 -45.383  10.486  1.00  0.00     0.000 C 
HETATM   21  C   UNL     1     -40.043 -45.914  10.677  1.00  0.00     0.000 C 
HETATM   22  C   UNL     1     -39.817 -46.677  11.978  1.00  0.00     0.002 C 
HETATM   23  C   UNL     1     -40.151 -48.164  11.852  1.00  0.00     0.025 C 
ENDBRANCH   4  17
TORSDOF 3
ENDMDL
MODEL 2
REMARK VINA RESULT:      -6.2      2.262      7.645
REMARK  3 active torsions:
REMARK  status: ('A' for Active; 'I' for Inactive)
REMARK    1  A    between atoms: O_2  and  C_3 
REMARK    2  A    between atoms: C_4  and  N_5 
REMARK       I    between atoms: N_5  and  C_6 
REMARK       I    between atoms: C_6  and  N_8 
REMARK    3  A    between atoms: N_8  and  C_9 
ROOT
HETATM    1  N   UNL     1     -42.284 -49.464  11.412  1.00  0.00    -0.303 N 
HETATM    2  C   UNL     1     -43.053 -49.607  12.546  1.00  0.00     0.321 C 
HETATM    3  O   UNL     1     -43.337 -48.718  13.336  1.00  0.00    -0.247 OA
HETATM    4  N   UNL     1     -43.477 -50.910  12.706  1.00  0.00    -0.338 N 
HETATM    5  H   UNL     1     -41.738 -50.268  11.164  1.00  0.00     0.171 HD
HETATM    6  H   UNL     1     -43.137 -51.615  12.072  1.00  0.00     0.164 HD
ENDROOT
BRANCH   1   7
HETATM    7  C   UNL     1     -41.832 -48.230  10.958  1.00  0.00     0.113 A 
HETATM    8  C   UNL     1     -40.647 -47.604  11.327  1.00  0.00     0.188 A 
HETATM    9  N   UNL     1     -40.658 -46.409  10.645  1.00  0.00    -0.273 N 
HETATM   10  N   UNL     1     -41.696 -46.249   9.814  1.00  0.00    -0.299 N 
HETATM   11  C   UNL     1     -39.644 -45.383  10.722  1.00  0.00     0.180 C 
HETATM   12  C   UNL     1     -42.429 -47.354   9.999  1.00  0.00     0.053 A 
ATOM     13  HN  UNL     1     -41.884 -45.468   9.186  1.00  0.00     0.187 HD
HETATM   14  C   UNL     1     -43.638 -47.542   9.155  1.00  0.00     0.072 C 
BRANCH   8  15
HETATM   15  O   UNL     1     -39.622 -47.842  12.155  1.00  0.00    -0.338 OA
HETATM   16  C   UNL     1     -38.785 -48.951  11.890  1.00  0.00     0.211 C 
ENDBRANCH   8  15
ENDBRANCH   1   7
BRANCH   4  17
HETATM   17  C   UNL     1     -44.224 -51.344  13.888  1.00  0.00     0.086 C 
HETATM   18  C   UNL     1     -43.735 -52.740  14.302  1.00  0.00     0.025 C 
HETATM   19  C   UNL     1     -44.214 -53.163  15.688  1.00  0.00     0.002 C 
HETATM   20  C   UNL     1     -45.578 -53.846  15.716  1.00  0.00     0.000 C 
HETATM   21  C   UNL     1     -46.656 -53.270  14.805  1.00  0.00     0.000 C 
HETATM   22  C   UNL     1     -46.653 -51.749  14.694  1.00  0.00     0.002 C 
HETATM   23  C   UNL     1     -45.721 -51.243  13.592  1.00  0.00     0.025 C 
ENDBRANCH   4  17
TORSDOF 3
ENDMDL
MODEL 3
REMARK VINA RESULT:      -6.1      2.045      7.206
REMARK  3 active torsions:
REMARK  status: ('A' for Active; 'I' for Inactive)
REMARK    1  A    between atoms: O_2  and  C_3 
REMARK    2  A    between atoms: C_4  and  N_5 
REMARK       I    between atoms: N_5  and  C_6 
REMARK       I    between atoms: C_6  and  N_8 
REMARK    3  A    between atoms: N_8  and  C_9 
ROOT
HETATM    1  N   UNL     1     -41.977 -50.036  11.542  1.00  0.00    -0.303 N 
HETATM    2  C   UNL     1     -42.614 -50.344  12.724  1.00  0.00     0.321 C 
HETATM    3  O   UNL     1     -42.486 -49.746  13.783  1.00  0.00    -0.247 OA
HETATM    4  N   UNL     1     -43.433 -51.445  12.584  1.00  0.00    -0.338 N 
HETATM    5  H   UNL     1     -41.769 -50.821  10.954  1.00  0.00     0.171 HD
HETATM    6  H   UNL     1     -43.427 -51.949  11.712  1.00  0.00     0.164 HD
ENDROOT
BRANCH   1   7
HETATM    7  C   UNL     1     -41.189 -48.901  11.383  1.00  0.00     0.113 A 
HETATM    8  C   UNL     1     -41.619 -47.662  10.923  1.00  0.00     0.188 A 
HETATM    9  N   UNL     1     -40.486 -46.882  10.913  1.00  0.00    -0.273 N 
HETATM   10  N   UNL     1     -39.392 -47.481  11.401  1.00  0.00    -0.299 N 
HETATM   11  C   UNL     1     -40.412 -45.506  10.481  1.00  0.00     0.180 C 
HETATM   12  C   UNL     1     -39.804 -48.722  11.687  1.00  0.00     0.053 A 
ATOM     13  HN  UNL     1     -38.461 -47.083  11.526  1.00  0.00     0.187 HD
HETATM   14  C   UNL     1     -38.839 -49.649  12.334  1.00  0.00     0.072 C 
BRANCH   8  15
HETATM   15  O   UNL     1     -42.758 -47.118  10.474  1.00  0.00    -0.338 OA
HETATM   16  C   UNL     1     -43.269 -47.556   9.231  1.00  0.00     0.211 C 
ENDBRANCH   8  15
ENDBRANCH   1   7
BRANCH   4  17
HETATM   17  C   UNL     1     -44.141 -52.037  13.720  1.00  0.00     0.086 C 
HETATM   18  C   UNL     1     -44.257 -53.553  13.502  1.00  0.00     0.025 C 
HETATM   19  C   UNL     1     -44.696 -54.312  14.751  1.00  0.00     0.002 C 
HETATM   20  C   UNL     1     -46.206 -54.421  14.939  1.00  0.00     0.000 C 
HETATM   21  C   UNL     1     -47.032 -53.183  14.609  1.00  0.00     0.000 C 
HETATM   22  C   UNL     1     -46.385 -51.860  15.003  1.00  0.00     0.002 C 
HETATM   23  C   UNL     1     -45.470 -51.306  13.909  1.00  0.00     0.025 C 
ENDBRANCH   4  17
TORSDOF 3
ENDMDL
MODEL 4
REMARK VINA RESULT:      -5.8      1.431      2.399
REMARK  3 active torsions:
REMARK  status: ('A' for Active; 'I' for Inactive)
REMARK    1  A    between atoms: O_2  and  C_3 
REMARK    2  A    between atoms: C_4  and  N_5 
REMARK       I    between atoms: N_5  and  C_6 
REMARK       I    between atoms: C_6  and  N_8 
REMARK    3  A    between atoms: N_8  and  C_9 
ROOT
HETATM    1  N   UNL     1     -42.689 -52.712  11.974  1.00  0.00    -0.303 N 
HETATM    2  C   UNL     1     -41.803 -51.724  12.346  1.00  0.00     0.321 C 
HETATM    3  O   UNL     1     -41.655 -51.286  13.478  1.00  0.00    -0.247 OA
HETATM    4  N   UNL     1     -41.082 -51.260  11.266  1.00  0.00    -0.338 N 
HETATM    5  H   UNL     1     -43.059 -52.623  11.045  1.00  0.00     0.171 HD
HETATM    6  H   UNL     1     -41.312 -51.596  10.345  1.00  0.00     0.164 HD
ENDROOT
BRANCH   1   7
HETATM    7  C   UNL     1     -43.449 -53.429  12.891  1.00  0.00     0.113 A 
HETATM    8  C   UNL     1     -44.835 -53.523  12.911  1.00  0.00     0.188 A 
HETATM    9  N   UNL     1     -45.115 -54.307  14.007  1.00  0.00    -0.273 N 
HETATM   10  N   UNL     1     -44.036 -54.790  14.638  1.00  0.00    -0.299 N 
HETATM   11  C   UNL     1     -46.433 -54.671  14.470  1.00  0.00     0.180 C 
HETATM   12  C   UNL     1     -43.007 -54.255  13.970  1.00  0.00     0.053 A 
ATOM     13  HN  UNL     1     -44.006 -55.419  15.440  1.00  0.00     0.187 HD
HETATM   14  C   UNL     1     -41.631 -54.656  14.366  1.00  0.00     0.072 C 
BRANCH   8  15
HETATM   15  O   UNL     1     -45.868 -53.028  12.216  1.00  0.00    -0.338 OA
HETATM   16  C   UNL     1     -46.338 -51.734  12.538  1.00  0.00     0.211 C 
ENDBRANCH   8  15
ENDBRANCH   1   7
BRANCH   4  17
HETATM   17  C   UNL     1     -40.149 -50.138  11.380  1.00  0.00     0.086 C 
HETATM   18  C   UNL     1     -39.015 -50.527  12.341  1.00  0.00     0.025 C 
HETATM   19  C   UNL     1     -37.830 -49.566  12.300  1.00  0.00     0.002 C 
HETATM   20  C   UNL     1     -37.945 -48.364  13.234  1.00  0.00     0.000 C 
HETATM   21  C   UNL     1     -39.314 -47.702  13.338  1.00  0.00     0.000 C 
HETATM   22  C   UNL     1     -40.091 -47.630  12.027  1.00  0.00     0.002 C 
HETATM   23  C   UNL     1     -40.930 -48.883  11.773  1.00  0.00     0.025 C 
ENDBRANCH   4  17
TORSDOF 3
ENDMDL
MODEL 5
REMARK VINA RESULT:      -5.7      2.332      6.871
REMARK  3 active torsions:
REMARK  status: ('A' for Active; 'I' for Inactive)
REMARK    1  A    between atoms: O_2  and  C_3 
REMARK    2  A    between atoms: C_4  and  N_5 
REMARK       I    between atoms: N_5  and  C_6 
REMARK       I    between atoms: C_6  and  N_8 
REMARK    3  A    between atoms: N_8  and  C_9 
ROOT
HETATM    1  N   UNL     1     -41.385 -51.906  11.803  1.00  0.00    -0.303 N 
HETATM    2  C   UNL     1     -42.533 -52.046  12.552  1.00  0.00     0.321 C 
HETATM    3  O   UNL     1     -42.713 -51.603  13.677  1.00  0.00    -0.247 OA
HETATM    4  N   UNL     1     -43.490 -52.774  11.875  1.00  0.00    -0.338 N 
HETATM    5  H   UNL     1     -41.180 -52.674  11.191  1.00  0.00     0.171 HD
HETATM    6  H   UNL     1     -43.251 -53.189  10.989  1.00  0.00     0.164 HD
ENDROOT
BRANCH   1   7
HETATM    7  C   UNL     1     -40.314 -51.116  12.205  1.00  0.00     0.113 A 
HETATM    8  C   UNL     1     -39.215 -51.538  12.943  1.00  0.00     0.188 A 
HETATM    9  N   UNL     1     -38.453 -50.405  13.114  1.00  0.00    -0.273 N 
HETATM   10  N   UNL     1     -38.921 -49.318  12.485  1.00  0.00    -0.299 N 
HETATM   11  C   UNL     1     -37.213 -50.324  13.848  1.00  0.00     0.180 C 
HETATM   12  C   UNL     1     -40.065 -49.735  11.929  1.00  0.00     0.053 A 
ATOM     13  HN  UNL     1     -38.502 -48.390  12.440  1.00  0.00     0.187 HD
HETATM   14  C   UNL     1     -40.816 -48.781  11.072  1.00  0.00     0.072 C 
BRANCH   8  15
HETATM   15  O   UNL     1     -38.791 -52.669  13.522  1.00  0.00    -0.338 OA
HETATM   16  C   UNL     1     -39.531 -53.186  14.611  1.00  0.00     0.211 C 
ENDBRANCH   8  15
ENDBRANCH   1   7
BRANCH   4  17
HETATM   17  C   UNL     1     -44.762 -53.151  12.495  1.00  0.00     0.086 C 
HETATM   18  C   UNL     1     -45.347 -51.926  13.215  1.00  0.00     0.025 C 
HETATM   19  C   UNL     1     -46.804 -52.110  13.632  1.00  0.00     0.002 C 
HETATM   20  C   UNL     1     -47.005 -52.764  14.996  1.00  0.00     0.000 C 
HETATM   21  C   UNL     1     -46.079 -53.923  15.347  1.00  0.00     0.000 C 
HETATM   22  C   UNL     1     -45.749 -54.851  14.182  1.00  0.00     0.002 C 
HETATM   23  C   UNL     1     -44.536 -54.377  13.381  1.00  0.00     0.025 C 
ENDBRANCH   4  17
TORSDOF 3
ENDMDL
MODEL 6
REMARK VINA RESULT:      -5.7      1.894      6.903
REMARK  3 active torsions:
REMARK  status: ('A' for Active; 'I' for Inactive)
REMARK    1  A    between atoms: O_2  and  C_3 
REMARK    2  A    between atoms: C_4  and  N_5 
REMARK       I    between atoms: N_5  and  C_6 
REMARK       I    between atoms: C_6  and  N_8 
REMARK    3  A    between atoms: N_8  and  C_9 
ROOT
HETATM    1  N   UNL     1     -41.051 -51.069  11.271  1.00  0.00    -0.303 N 
HETATM    2  C   UNL     1     -41.881 -51.636  12.212  1.00  0.00     0.321 C 
HETATM    3  O   UNL     1     -42.047 -51.233  13.355  1.00  0.00    -0.247 OA
HETATM    4  N   UNL     1     -42.521 -52.751  11.714  1.00  0.00    -0.338 N 
HETATM    5  H   UNL     1     -40.636 -51.715  10.625  1.00  0.00     0.171 HD
HETATM    6  H   UNL     1     -42.276 -53.085  10.796  1.00  0.00     0.164 HD
ENDROOT
BRANCH   1   7
HETATM    7  C   UNL     1     -40.382 -49.868  11.480  1.00  0.00     0.113 A 
HETATM    8  C   UNL     1     -40.944 -48.597  11.434  1.00  0.00     0.188 A 
HETATM    9  N   UNL     1     -39.893 -47.743  11.673  1.00  0.00    -0.273 N 
HETATM   10  N   UNL     1     -38.731 -48.350  11.949  1.00  0.00    -0.299 N 
HETATM   11  C   UNL     1     -39.966 -46.301  11.698  1.00  0.00     0.180 C 
HETATM   12  C   UNL     1     -39.012 -49.653  11.827  1.00  0.00     0.053 A 
ATOM     13  HN  UNL     1     -37.840 -47.919  12.195  1.00  0.00     0.187 HD
HETATM   14  C   UNL     1     -37.943 -50.633  12.151  1.00  0.00     0.072 C 
BRANCH   8  15
HETATM   15  O   UNL     1     -42.143 -48.058  11.178  1.00  0.00    -0.338 OA
HETATM   16  C   UNL     1     -42.528 -47.883   9.828  1.00  0.00     0.211 C 
ENDBRANCH   8  15
ENDBRANCH   1   7
BRANCH   4  17
HETATM   17  C   UNL     1     -43.379 -53.593  12.550  1.00  0.00     0.086 C 
HETATM   18  C   UNL     1     -44.639 -52.800  12.929  1.00  0.00     0.025 C 
HETATM   19  C   UNL     1     -45.740 -53.667  13.534  1.00  0.00     0.002 C 
HETATM   20  C   UNL     1     -45.646 -53.864  15.045  1.00  0.00     0.000 C 
HETATM   21  C   UNL     1     -44.254 -54.084  15.625  1.00  0.00     0.000 C 
HETATM   22  C   UNL     1     -43.331 -54.939  14.763  1.00  0.00     0.002 C 
HETATM   23  C   UNL     1     -42.560 -54.113  13.732  1.00  0.00     0.025 C 
ENDBRANCH   4  17
TORSDOF 3
ENDMDL
MODEL 7
REMARK VINA RESULT:      -5.5      2.453      7.086
REMARK  3 active torsions:
REMARK  status: ('A' for Active; 'I' for Inactive)
REMARK    1  A    between atoms: O_2  and  C_3 
REMARK    2  A    between atoms: C_4  and  N_5 
REMARK       I    between atoms: N_5  and  C_6 
REMARK       I    between atoms: C_6  and  N_8 
REMARK    3  A    between atoms: N_8  and  C_9 
ROOT
HETATM    1  N   UNL     1     -40.585 -51.263  11.331  1.00  0.00    -0.303 N 
HETATM    2  C   UNL     1     -40.749 -51.983  12.494  1.00  0.00     0.321 C 
HETATM    3  O   UNL     1     -40.553 -51.567  13.627  1.00  0.00    -0.247 OA
HETATM    4  N   UNL     1     -41.164 -53.273  12.234  1.00  0.00    -0.338 N 
HETATM    5  H   UNL     1     -40.291 -51.801  10.536  1.00  0.00     0.171 HD
HETATM    6  H   UNL     1     -41.221 -53.584  11.278  1.00  0.00     0.164 HD
ENDROOT
BRANCH   1   7
HETATM    7  C   UNL     1     -40.288 -49.905  11.320  1.00  0.00     0.113 A 
HETATM    8  C   UNL     1     -41.210 -48.864  11.342  1.00  0.00     0.188 A 
HETATM    9  N   UNL     1     -40.445 -47.722  11.289  1.00  0.00    -0.273 N 
HETATM   10  N   UNL     1     -39.123 -47.932  11.319  1.00  0.00    -0.299 N 
HETATM   11  C   UNL     1     -40.950 -46.369  11.258  1.00  0.00     0.180 C 
HETATM   12  C   UNL     1     -39.010 -49.266  11.331  1.00  0.00     0.053 A 
ATOM     13  HN  UNL     1     -38.376 -47.239  11.331  1.00  0.00     0.187 HD
HETATM   14  C   UNL     1     -37.649 -49.853  11.447  1.00  0.00     0.072 C 
BRANCH   8  15
HETATM   15  O   UNL     1     -42.542 -48.726  11.342  1.00  0.00    -0.338 OA
HETATM   16  C   UNL     1     -43.250 -49.032  12.528  1.00  0.00     0.211 C 
ENDBRANCH   8  15
ENDBRANCH   1   7
BRANCH   4  17
HETATM   17  C   UNL     1     -41.311 -54.270  13.296  1.00  0.00     0.086 C 
HETATM   18  C   UNL     1     -42.636 -54.022  14.034  1.00  0.00     0.025 C 
HETATM   19  C   UNL     1     -43.043 -55.174  14.949  1.00  0.00     0.002 C 
HETATM   20  C   UNL     1     -42.469 -55.106  16.362  1.00  0.00     0.000 C 
HETATM   21  C   UNL     1     -41.020 -54.652  16.495  1.00  0.00     0.000 C 
HETATM   22  C   UNL     1     -40.088 -55.161  15.399  1.00  0.00     0.002 C 
HETATM   23  C   UNL     1     -40.062 -54.240  14.178  1.00  0.00     0.025 C 
ENDBRANCH   4  17
TORSDOF 3
ENDMDL
MODEL 8
REMARK VINA RESULT:      -5.2      1.540      2.539
REMARK  3 active torsions:
REMARK  status: ('A' for Active; 'I' for Inactive)
REMARK    1  A    between atoms: O_2  and  C_3 
REMARK    2  A    between atoms: C_4  and  N_5 
REMARK       I    between atoms: N_5  and  C_6 
REMARK       I    between atoms: C_6  and  N_8 
REMARK    3  A    between atoms: N_8  and  C_9 
ROOT
HETATM    1  N   UNL     1     -43.550 -51.147  12.519  1.00  0.00    -0.303 N 
HETATM    2  C   UNL     1     -42.838 -50.045  12.940  1.00  0.00     0.321 C 
HETATM    3  O   UNL     1     -42.483 -49.818  14.088  1.00  0.00    -0.247 OA
HETATM    4  N   UNL     1     -42.566 -49.190  11.892  1.00  0.00    -0.338 N 
HETATM    5  H   UNL     1     -44.172 -50.982  11.750  1.00  0.00     0.171 HD
HETATM    6  H   UNL     1     -42.961 -49.386  10.987  1.00  0.00     0.164 HD
ENDROOT
BRANCH   1   7
HETATM    7  C   UNL     1     -43.847 -52.218  13.355  1.00  0.00     0.113 A 
HETATM    8  C   UNL     1     -43.014 -53.294  13.636  1.00  0.00     0.188 A 
HETATM    9  N   UNL     1     -43.752 -54.095  14.477  1.00  0.00    -0.273 N 
HETATM   10  N   UNL     1     -44.944 -53.591  14.825  1.00  0.00    -0.299 N 
HETATM   11  C   UNL     1     -43.326 -55.360  15.028  1.00  0.00     0.180 C 
HETATM   12  C   UNL     1     -45.020 -52.444  14.140  1.00  0.00     0.053 A 
ATOM     13  HN  UNL     1     -45.632 -53.989  15.464  1.00  0.00     0.187 HD
HETATM   14  C   UNL     1     -46.206 -51.574  14.359  1.00  0.00     0.072 C 
BRANCH   8  15
HETATM   15  O   UNL     1     -41.800 -53.724  13.270  1.00  0.00    -0.338 OA
HETATM   16  C   UNL     1     -40.666 -53.034  13.757  1.00  0.00     0.211 C 
ENDBRANCH   8  15
ENDBRANCH   1   7
BRANCH   4  17
HETATM   17  C   UNL     1     -41.911 -47.897  12.095  1.00  0.00     0.086 C 
HETATM   18  C   UNL     1     -42.985 -46.802  12.182  1.00  0.00     0.025 C 
HETATM   19  C   UNL     1     -42.449 -45.469  12.697  1.00  0.00     0.002 C 
HETATM   20  C   UNL     1     -41.875 -44.548  11.624  1.00  0.00     0.000 C 
HETATM   21  C   UNL     1     -41.041 -45.204  10.529  1.00  0.00     0.000 C 
HETATM   22  C   UNL     1     -40.147 -46.344  11.004  1.00  0.00     0.002 C 
HETATM   23  C   UNL     1     -40.866 -47.694  10.997  1.00  0.00     0.025 C 
ENDBRANCH   4  17
TORSDOF 3
ENDMDL
MODEL 9
REMARK VINA RESULT:      -5.1      1.872      7.291
REMARK  3 active torsions:
REMARK  status: ('A' for Active; 'I' for Inactive)
REMARK    1  A    between atoms: O_2  and  C_3 
REMARK    2  A    between atoms: C_4  and  N_5 
REMARK       I    between atoms: N_5  and  C_6 
REMARK       I    between atoms: C_6  and  N_8 
REMARK    3  A    between atoms: N_8  and  C_9 
ROOT
HETATM    1  N   UNL     1     -41.495 -50.248  11.418  1.00  0.00    -0.303 N 
HETATM    2  C   UNL     1     -42.129 -51.101  12.295  1.00  0.00     0.321 C 
HETATM    3  O   UNL     1     -42.491 -50.822  13.430  1.00  0.00    -0.247 OA
HETATM    4  N   UNL     1     -42.310 -52.351  11.740  1.00  0.00    -0.338 N 
HETATM    5  H   UNL     1     -40.844 -50.687  10.794  1.00  0.00     0.171 HD
HETATM    6  H   UNL     1     -41.911 -52.546  10.837  1.00  0.00     0.164 HD
ENDROOT
BRANCH   1   7
HETATM    7  C   UNL     1     -41.301 -48.898  11.687  1.00  0.00     0.113 A 
HETATM    8  C   UNL     1     -40.149 -48.324  12.212  1.00  0.00     0.188 A 
HETATM    9  N   UNL     1     -40.446 -46.985  12.322  1.00  0.00    -0.273 N 
HETATM   10  N   UNL     1     -41.647 -46.638  11.840  1.00  0.00    -0.299 N 
HETATM   11  C   UNL     1     -39.570 -45.966  12.850  1.00  0.00     0.180 C 
HETATM   12  C   UNL     1     -42.187 -47.800  11.454  1.00  0.00     0.053 A 
ATOM     13  HN  UNL     1     -42.055 -45.705  11.781  1.00  0.00     0.187 HD
HETATM   14  C   UNL     1     -43.514 -47.769  10.785  1.00  0.00     0.072 C 
BRANCH   8  15
HETATM   15  O   UNL     1     -38.952 -48.737  12.649  1.00  0.00    -0.338 OA
HETATM   16  C   UNL     1     -38.898 -49.512  13.831  1.00  0.00     0.211 C 
ENDBRANCH   8  15
ENDBRANCH   1   7
BRANCH   4  17
HETATM   17  C   UNL     1     -42.868 -53.467  12.506  1.00  0.00     0.086 C 
HETATM   18  C   UNL     1     -44.354 -53.191  12.780  1.00  0.00     0.025 C 
HETATM   19  C   UNL     1     -45.111 -54.412  13.296  1.00  0.00     0.002 C 
HETATM   20  C   UNL     1     -45.069 -54.602  14.810  1.00  0.00     0.000 C 
HETATM   21  C   UNL     1     -43.740 -54.321  15.502  1.00  0.00     0.000 C 
HETATM   22  C   UNL     1     -42.507 -54.763  14.721  1.00  0.00     0.002 C 
HETATM   23  C   UNL     1     -42.010 -53.688  13.753  1.00  0.00     0.025 C 
ENDBRANCH   4  17
TORSDOF 3
ENDMDL
