MODEL 1
REMARK VINA RESULT:      -6.3      0.000      0.000
REMARK  4 active torsions:
REMARK  status: ('A' for Active; 'I' for Inactive)
REMARK    1  A    between atoms: N_4  and  C_5 
REMARK    2  A    between atoms: C_5  and  C_6 
REMARK    3  A    between atoms: C_6  and  N_7 
REMARK       I    between atoms: N_7  and  C_8 
REMARK       I    between atoms: C_8  and  N_10 
REMARK    4  A    between atoms: N_10  and  C_11 
ROOT
HETATM    1  N   UNL     1     -40.597 -50.180  10.963  1.00  0.00    -0.341 N 
HETATM    2  C   UNL     1     -41.566 -49.227  11.038  1.00  0.00     0.321 C 
HETATM    3  O   UNL     1     -42.272 -48.994  11.997  1.00  0.00    -0.247 OA
HETATM    4  N   UNL     1     -41.640 -48.483   9.832  1.00  0.00    -0.293 N 
HETATM    5  H   UNL     1     -40.011 -50.286  10.149  1.00  0.00     0.164 HD
HETATM    6  H   UNL     1     -40.935 -48.605   9.127  1.00  0.00     0.172 HD
ENDROOT
BRANCH   1   7
HETATM    7  C   UNL     1     -40.279 -50.967  12.142  1.00  0.00     0.154 C 
BRANCH   7   8
HETATM    8  C   UNL     1     -41.039 -52.310  12.215  1.00  0.00     0.292 C 
BRANCH   8   9
HETATM    9  N   UNL     1     -42.324 -52.222  12.927  1.00  0.00     0.095 N 
HETATM   10  C   UNL     1     -42.166 -51.857  14.348  1.00  0.00     0.303 C 
HETATM   11  C   UNL     1     -43.517 -51.816  15.090  1.00  0.00     0.146 C 
HETATM   12  C   UNL     1     -44.403 -50.653  14.642  1.00  0.00     0.041 C 
HETATM   13  O   UNL     1     -44.198 -53.075  14.982  1.00  0.00    -0.378 OA
HETATM   14  C   UNL     1     -44.380 -53.490  13.618  1.00  0.00     0.146 C 
HETATM   15  C   UNL     1     -43.034 -53.523  12.859  1.00  0.00     0.303 C 
HETATM   16  C   UNL     1     -45.023 -54.871  13.647  1.00  0.00     0.041 C 
ENDBRANCH   8   9
ENDBRANCH   7   8
ENDBRANCH   1   7
BRANCH   4  17
HETATM   17  C   UNL     1     -42.621 -47.515   9.637  1.00  0.00     0.127 A 
HETATM   18  C   UNL     1     -43.879 -47.682   9.104  1.00  0.00     0.076 A 
HETATM   19  C   UNL     1     -44.494 -46.415   9.176  1.00  0.00     0.025 A 
HETATM   20  C   UNL     1     -45.883 -46.066   8.792  1.00  0.00     0.070 C 
HETATM   21  N   UNL     1     -43.663 -45.494   9.674  1.00  0.00    -0.302 N 
HETATM   22  N   UNL     1     -42.536 -46.179   9.941  1.00  0.00    -0.281 N 
ATOM     23  HN  UNL     1     -43.842 -44.500   9.820  1.00  0.00     0.186 HD
HETATM   24  C   UNL     1     -41.439 -45.507  10.594  1.00  0.00     0.179 C 
ENDBRANCH   4  17
TORSDOF 4
ENDMDL
MODEL 2
REMARK VINA RESULT:      -6.1      1.455      1.893
REMARK  4 active torsions:
REMARK  status: ('A' for Active; 'I' for Inactive)
REMARK    1  A    between atoms: N_4  and  C_5 
REMARK    2  A    between atoms: C_5  and  C_6 
REMARK    3  A    between atoms: C_6  and  N_7 
REMARK       I    between atoms: N_7  and  C_8 
REMARK       I    between atoms: C_8  and  N_10 
REMARK    4  A    between atoms: N_10  and  C_11 
ROOT
HETATM    1  N   UNL     1     -40.696 -51.189  11.687  1.00  0.00    -0.341 N 
HETATM    2  C   UNL     1     -41.307 -49.973  11.694  1.00  0.00     0.321 C 
HETATM    3  O   UNL     1     -41.978 -49.511  12.594  1.00  0.00    -0.247 OA
HETATM    4  N   UNL     1     -41.034 -49.260  10.498  1.00  0.00    -0.293 N 
HETATM    5  H   UNL     1     -40.109 -51.490  10.923  1.00  0.00     0.164 HD
HETATM    6  H   UNL     1     -40.349 -49.613   9.854  1.00  0.00     0.172 HD
ENDROOT
BRANCH   1   7
HETATM    7  C   UNL     1     -40.751 -52.021  12.876  1.00  0.00     0.154 C 
BRANCH   7   8
HETATM    8  C   UNL     1     -41.731 -53.210  12.757  1.00  0.00     0.292 C 
BRANCH   8   9
HETATM    9  N   UNL     1     -42.932 -53.070  13.595  1.00  0.00     0.095 N 
HETATM   10  C   UNL     1     -43.450 -54.368  14.072  1.00  0.00     0.303 C 
HETATM   11  C   UNL     1     -44.736 -54.207  14.909  1.00  0.00     0.146 C 
HETATM   12  C   UNL     1     -44.482 -53.539  16.261  1.00  0.00     0.041 C 
HETATM   13  O   UNL     1     -45.750 -53.521  14.160  1.00  0.00    -0.378 OA
HETATM   14  C   UNL     1     -45.305 -52.248  13.662  1.00  0.00     0.146 C 
HETATM   15  C   UNL     1     -44.011 -52.394  12.832  1.00  0.00     0.303 C 
HETATM   16  C   UNL     1     -46.434 -51.674  12.815  1.00  0.00     0.041 C 
ENDBRANCH   8   9
ENDBRANCH   7   8
ENDBRANCH   1   7
BRANCH   4  17
HETATM   17  C   UNL     1     -41.627 -48.029  10.236  1.00  0.00     0.127 A 
HETATM   18  C   UNL     1     -42.801 -47.784   9.559  1.00  0.00     0.076 A 
HETATM   19  C   UNL     1     -42.987 -46.387   9.616  1.00  0.00     0.025 A 
HETATM   20  C   UNL     1     -44.139 -45.612   9.094  1.00  0.00     0.070 C 
HETATM   21  N   UNL     1     -41.974 -45.781  10.243  1.00  0.00    -0.302 N 
HETATM   22  N   UNL     1     -41.161 -46.791  10.605  1.00  0.00    -0.281 N 
ATOM     23  HN  UNL     1     -41.846 -44.783  10.410  1.00  0.00     0.186 HD
HETATM   24  C   UNL     1     -39.996 -46.507  11.405  1.00  0.00     0.179 C 
ENDBRANCH   4  17
TORSDOF 4
ENDMDL
MODEL 3
REMARK VINA RESULT:      -6.1      1.622      2.082
REMARK  4 active torsions:
REMARK  status: ('A' for Active; 'I' for Inactive)
REMARK    1  A    between atoms: N_4  and  C_5 
REMARK    2  A    between atoms: C_5  and  C_6 
REMARK    3  A    between atoms: C_6  and  N_7 
REMARK       I    between atoms: N_7  and  C_8 
REMARK       I    between atoms: C_8  and  N_10 
REMARK    4  A    between atoms: N_10  and  C_11 
ROOT
HETATM    1  N   UNL     1     -40.828 -51.133  11.608  1.00  0.00    -0.341 N 
HETATM    2  C   UNL     1     -41.468 -49.932  11.606  1.00  0.00     0.321 C 
HETATM    3  O   UNL     1     -42.200 -49.507  12.476  1.00  0.00    -0.247 OA
HETATM    4  N   UNL     1     -41.145 -49.186  10.443  1.00  0.00    -0.293 N 
HETATM    5  H   UNL     1     -40.191 -51.402  10.873  1.00  0.00     0.164 HD
HETATM    6  H   UNL     1     -40.416 -49.508   9.832  1.00  0.00     0.172 HD
ENDROOT
BRANCH   1   7
HETATM    7  C   UNL     1     -40.929 -51.993  12.774  1.00  0.00     0.154 C 
BRANCH   7   8
HETATM    8  C   UNL     1     -41.179 -53.479  12.429  1.00  0.00     0.292 C 
BRANCH   8   9
HETATM    9  N   UNL     1     -42.226 -54.106  13.249  1.00  0.00     0.095 N 
HETATM   10  C   UNL     1     -43.360 -53.200  13.519  1.00  0.00     0.303 C 
HETATM   11  C   UNL     1     -44.427 -53.858  14.418  1.00  0.00     0.146 C 
HETATM   12  C   UNL     1     -45.184 -54.984  13.712  1.00  0.00     0.041 C 
HETATM   13  O   UNL     1     -43.850 -54.301  15.656  1.00  0.00    -0.378 OA
HETATM   14  C   UNL     1     -42.734 -55.185  15.460  1.00  0.00     0.146 C 
HETATM   15  C   UNL     1     -41.663 -54.543  14.550  1.00  0.00     0.303 C 
HETATM   16  C   UNL     1     -42.161 -55.502  16.836  1.00  0.00     0.041 C 
ENDBRANCH   8   9
ENDBRANCH   7   8
ENDBRANCH   1   7
BRANCH   4  17
HETATM   17  C   UNL     1     -41.753 -47.964  10.174  1.00  0.00     0.127 A 
HETATM   18  C   UNL     1     -42.913 -47.734   9.469  1.00  0.00     0.076 A 
HETATM   19  C   UNL     1     -43.125 -46.341   9.530  1.00  0.00     0.025 A 
HETATM   20  C   UNL     1     -44.277 -45.583   8.984  1.00  0.00     0.070 C 
HETATM   21  N   UNL     1     -42.139 -45.722  10.186  1.00  0.00    -0.302 N 
HETATM   22  N   UNL     1     -41.318 -46.720  10.562  1.00  0.00    -0.281 N 
ATOM     23  HN  UNL     1     -42.032 -44.723  10.363  1.00  0.00     0.186 HD
HETATM   24  C   UNL     1     -40.178 -46.422  11.393  1.00  0.00     0.179 C 
ENDBRANCH   4  17
TORSDOF 4
ENDMDL
MODEL 4
REMARK VINA RESULT:      -6.1      2.412      7.287
REMARK  4 active torsions:
REMARK  status: ('A' for Active; 'I' for Inactive)
REMARK    1  A    between atoms: N_4  and  C_5 
REMARK    2  A    between atoms: C_5  and  C_6 
REMARK    3  A    between atoms: C_6  and  N_7 
REMARK       I    between atoms: N_7  and  C_8 
REMARK       I    between atoms: C_8  and  N_10 
REMARK    4  A    between atoms: N_10  and  C_11 
ROOT
HETATM    1  N   UNL     1     -40.934 -50.631  11.095  1.00  0.00    -0.341 N 
HETATM    2  C   UNL     1     -41.731 -51.174  12.055  1.00  0.00     0.321 C 
HETATM    3  O   UNL     1     -42.108 -50.626  13.071  1.00  0.00    -0.247 OA
HETATM    4  N   UNL     1     -42.115 -52.495  11.709  1.00  0.00    -0.293 N 
HETATM    5  H   UNL     1     -40.700 -51.128  10.248  1.00  0.00     0.164 HD
HETATM    6  H   UNL     1     -41.910 -52.849  10.792  1.00  0.00     0.172 HD
ENDROOT
BRANCH   1   7
HETATM    7  C   UNL     1     -40.536 -49.238  11.203  1.00  0.00     0.154 C 
BRANCH   7   8
HETATM    8  C   UNL     1     -41.507 -48.260  10.503  1.00  0.00     0.292 C 
BRANCH   8   9
HETATM    9  N   UNL     1     -41.432 -46.885  11.018  1.00  0.00     0.095 N 
HETATM   10  C   UNL     1     -40.062 -46.494  11.408  1.00  0.00     0.303 C 
HETATM   11  C   UNL     1     -40.010 -45.067  11.990  1.00  0.00     0.146 C 
HETATM   12  C   UNL     1     -40.275 -43.989  10.939  1.00  0.00     0.041 C 
HETATM   13  O   UNL     1     -40.893 -44.940  13.115  1.00  0.00    -0.378 OA
HETATM   14  C   UNL     1     -42.245 -45.312  12.801  1.00  0.00     0.146 C 
HETATM   15  C   UNL     1     -42.311 -46.735  12.205  1.00  0.00     0.303 C 
HETATM   16  C   UNL     1     -43.050 -45.224  14.092  1.00  0.00     0.041 C 
ENDBRANCH   8   9
ENDBRANCH   7   8
ENDBRANCH   1   7
BRANCH   4  17
HETATM   17  C   UNL     1     -42.853 -53.288  12.583  1.00  0.00     0.127 A 
HETATM   18  C   UNL     1     -44.207 -53.538  12.558  1.00  0.00     0.076 A 
HETATM   19  C   UNL     1     -44.446 -54.439  13.617  1.00  0.00     0.025 A 
HETATM   20  C   UNL     1     -45.734 -55.077  13.981  1.00  0.00     0.070 C 
HETATM   21  N   UNL     1     -43.327 -54.703  14.299  1.00  0.00    -0.302 N 
HETATM   22  N   UNL     1     -42.378 -53.993  13.661  1.00  0.00    -0.281 N 
ATOM     23  HN  UNL     1     -43.217 -55.305  15.115  1.00  0.00     0.186 HD
HETATM   24  C   UNL     1     -41.002 -54.122  14.074  1.00  0.00     0.179 C 
ENDBRANCH   4  17
TORSDOF 4
ENDMDL
MODEL 5
REMARK VINA RESULT:      -6.0      1.473      2.215
REMARK  4 active torsions:
REMARK  status: ('A' for Active; 'I' for Inactive)
REMARK    1  A    between atoms: N_4  and  C_5 
REMARK    2  A    between atoms: C_5  and  C_6 
REMARK    3  A    between atoms: C_6  and  N_7 
REMARK       I    between atoms: N_7  and  C_8 
REMARK       I    between atoms: C_8  and  N_10 
REMARK    4  A    between atoms: N_10  and  C_11 
ROOT
HETATM    1  N   UNL     1     -40.611 -50.199  11.027  1.00  0.00    -0.341 N 
HETATM    2  C   UNL     1     -41.308 -49.073  11.340  1.00  0.00     0.321 C 
HETATM    3  O   UNL     1     -41.924 -48.870  12.367  1.00  0.00    -0.247 OA
HETATM    4  N   UNL     1     -41.204 -48.107  10.306  1.00  0.00    -0.293 N 
HETATM    5  H   UNL     1     -40.078 -50.280  10.174  1.00  0.00     0.164 HD
HETATM    6  H   UNL     1     -40.559 -48.255   9.550  1.00  0.00     0.172 HD
ENDROOT
BRANCH   1   7
HETATM    7  C   UNL     1     -40.489 -51.259  12.013  1.00  0.00     0.154 C 
BRANCH   7   8
HETATM    8  C   UNL     1     -41.495 -52.414  11.809  1.00  0.00     0.292 C 
BRANCH   8   9
HETATM    9  N   UNL     1     -42.021 -52.967  13.066  1.00  0.00     0.095 N 
HETATM   10  C   UNL     1     -41.127 -53.979  13.662  1.00  0.00     0.303 C 
HETATM   11  C   UNL     1     -41.716 -54.584  14.954  1.00  0.00     0.146 C 
HETATM   12  C   UNL     1     -41.752 -53.585  16.111  1.00  0.00     0.041 C 
HETATM   13  O   UNL     1     -43.008 -55.157  14.708  1.00  0.00    -0.378 OA
HETATM   14  C   UNL     1     -43.926 -54.221  14.120  1.00  0.00     0.146 C 
HETATM   15  C   UNL     1     -43.344 -53.599  12.832  1.00  0.00     0.303 C 
HETATM   16  C   UNL     1     -45.217 -54.976  13.826  1.00  0.00     0.041 C 
ENDBRANCH   8   9
ENDBRANCH   7   8
ENDBRANCH   1   7
BRANCH   4  17
HETATM   17  C   UNL     1     -41.911 -46.910  10.358  1.00  0.00     0.127 A 
HETATM   18  C   UNL     1     -41.574 -45.758  11.033  1.00  0.00     0.076 A 
HETATM   19  C   UNL     1     -42.586 -44.826  10.721  1.00  0.00     0.025 A 
HETATM   20  C   UNL     1     -42.660 -43.405  11.141  1.00  0.00     0.070 C 
HETATM   21  N   UNL     1     -43.528 -45.366   9.941  1.00  0.00    -0.302 N 
HETATM   22  N   UNL     1     -43.104 -46.627   9.739  1.00  0.00    -0.281 N 
ATOM     23  HN  UNL     1     -44.375 -44.924   9.582  1.00  0.00     0.186 HD
HETATM   24  C   UNL     1     -43.841 -47.485   8.845  1.00  0.00     0.179 C 
ENDBRANCH   4  17
TORSDOF 4
ENDMDL
MODEL 6
REMARK VINA RESULT:      -5.9      2.086      3.114
REMARK  4 active torsions:
REMARK  status: ('A' for Active; 'I' for Inactive)
REMARK    1  A    between atoms: N_4  and  C_5 
REMARK    2  A    between atoms: C_5  and  C_6 
REMARK    3  A    between atoms: C_6  and  N_7 
REMARK       I    between atoms: N_7  and  C_8 
REMARK       I    between atoms: C_8  and  N_10 
REMARK    4  A    between atoms: N_10  and  C_11 
ROOT
HETATM    1  N   UNL     1     -42.396 -49.869  14.775  1.00  0.00    -0.341 N 
HETATM    2  C   UNL     1     -42.422 -49.613  13.438  1.00  0.00     0.321 C 
HETATM    3  O   UNL     1     -42.459 -50.438  12.548  1.00  0.00    -0.247 OA
HETATM    4  N   UNL     1     -42.434 -48.216  13.189  1.00  0.00    -0.293 N 
HETATM    5  H   UNL     1     -42.417 -49.131  15.462  1.00  0.00     0.164 HD
HETATM    6  H   UNL     1     -42.561 -47.575  13.952  1.00  0.00     0.172 HD
ENDROOT
BRANCH   1   7
HETATM    7  C   UNL     1     -42.506 -51.241  15.239  1.00  0.00     0.154 C 
BRANCH   7   8
HETATM    8  C   UNL     1     -43.910 -51.603  15.776  1.00  0.00     0.292 C 
BRANCH   8   9
HETATM    9  N   UNL     1     -44.678 -52.477  14.877  1.00  0.00     0.095 N 
HETATM   10  C   UNL     1     -43.818 -53.384  14.091  1.00  0.00     0.303 C 
HETATM   11  C   UNL     1     -44.636 -54.260  13.119  1.00  0.00     0.146 C 
HETATM   12  C   UNL     1     -45.489 -55.305  13.840  1.00  0.00     0.041 C 
HETATM   13  O   UNL     1     -45.425 -53.447  12.238  1.00  0.00    -0.378 OA
HETATM   14  C   UNL     1     -46.282 -52.536  12.944  1.00  0.00     0.146 C 
HETATM   15  C   UNL     1     -45.477 -51.660  13.930  1.00  0.00     0.303 C 
HETATM   16  C   UNL     1     -46.986 -51.676  11.902  1.00  0.00     0.041 C 
ENDBRANCH   8   9
ENDBRANCH   7   8
ENDBRANCH   1   7
BRANCH   4  17
HETATM   17  C   UNL     1     -42.365 -47.710  11.894  1.00  0.00     0.127 A 
HETATM   18  C   UNL     1     -43.408 -47.398  11.052  1.00  0.00     0.076 A 
HETATM   19  C   UNL     1     -42.811 -46.874   9.886  1.00  0.00     0.025 A 
HETATM   20  C   UNL     1     -43.499 -46.323   8.694  1.00  0.00     0.070 C 
HETATM   21  N   UNL     1     -41.476 -46.899   9.964  1.00  0.00    -0.302 N 
HETATM   22  N   UNL     1     -41.228 -47.413  11.183  1.00  0.00    -0.281 N 
ATOM     23  HN  UNL     1     -40.801 -46.598   9.261  1.00  0.00     0.186 HD
HETATM   24  C   UNL     1     -39.867 -47.493  11.651  1.00  0.00     0.179 C 
ENDBRANCH   4  17
TORSDOF 4
ENDMDL
MODEL 7
REMARK VINA RESULT:      -5.7      2.435      7.483
REMARK  4 active torsions:
REMARK  status: ('A' for Active; 'I' for Inactive)
REMARK    1  A    between atoms: N_4  and  C_5 
REMARK    2  A    between atoms: C_5  and  C_6 
REMARK    3  A    between atoms: C_6  and  N_7 
REMARK       I    between atoms: N_7  and  C_8 
REMARK       I    between atoms: C_8  and  N_10 
REMARK    4  A    between atoms: N_10  and  C_11 
ROOT
HETATM    1  N   UNL     1     -40.814 -50.820  11.106  1.00  0.00    -0.341 N 
HETATM    2  C   UNL     1     -41.403 -51.363  12.207  1.00  0.00     0.321 C 
HETATM    3  O   UNL     1     -41.604 -50.802  13.265  1.00  0.00    -0.247 OA
HETATM    4  N   UNL     1     -41.804 -52.701  11.960  1.00  0.00    -0.293 N 
HETATM    5  H   UNL     1     -40.725 -51.329  10.240  1.00  0.00     0.164 HD
HETATM    6  H   UNL     1     -41.760 -53.070  11.027  1.00  0.00     0.172 HD
ENDROOT
BRANCH   1   7
HETATM    7  C   UNL     1     -40.447 -49.414  11.115  1.00  0.00     0.154 C 
BRANCH   7   8
HETATM    8  C   UNL     1     -41.546 -48.483  10.556  1.00  0.00     0.292 C 
BRANCH   8   9
HETATM    9  N   UNL     1     -41.431 -47.091  11.018  1.00  0.00     0.095 N 
HETATM   10  C   UNL     1     -40.055 -46.734  11.417  1.00  0.00     0.303 C 
HETATM   11  C   UNL     1     -39.961 -45.287  11.943  1.00  0.00     0.146 C 
HETATM   12  C   UNL     1     -40.170 -44.243  10.845  1.00  0.00     0.041 C 
HETATM   13  O   UNL     1     -40.858 -45.084  13.045  1.00  0.00    -0.378 OA
HETATM   14  C   UNL     1     -42.217 -45.420  12.722  1.00  0.00     0.146 C 
HETATM   15  C   UNL     1     -42.324 -46.864  12.181  1.00  0.00     0.303 C 
HETATM   16  C   UNL     1     -43.040 -45.252  13.993  1.00  0.00     0.041 C 
ENDBRANCH   8   9
ENDBRANCH   7   8
ENDBRANCH   1   7
BRANCH   4  17
HETATM   17  C   UNL     1     -42.343 -53.494  12.968  1.00  0.00     0.127 A 
HETATM   18  C   UNL     1     -41.670 -54.231  13.917  1.00  0.00     0.076 A 
HETATM   19  C   UNL     1     -42.668 -54.804  14.732  1.00  0.00     0.025 A 
HETATM   20  C   UNL     1     -42.471 -55.636  15.943  1.00  0.00     0.070 C 
HETATM   21  N   UNL     1     -43.894 -54.493  14.299  1.00  0.00    -0.302 N 
HETATM   22  N   UNL     1     -43.675 -53.706  13.230  1.00  0.00    -0.281 N 
ATOM     23  HN  UNL     1     -44.790 -54.785  14.689  1.00  0.00     0.186 HD
HETATM   24  C   UNL     1     -44.797 -53.095  12.561  1.00  0.00     0.179 C 
ENDBRANCH   4  17
TORSDOF 4
ENDMDL
MODEL 8
REMARK VINA RESULT:      -5.7      2.515      3.627
REMARK  4 active torsions:
REMARK  status: ('A' for Active; 'I' for Inactive)
REMARK    1  A    between atoms: N_4  and  C_5 
REMARK    2  A    between atoms: C_5  and  C_6 
REMARK    3  A    between atoms: C_6  and  N_7 
REMARK       I    between atoms: N_7  and  C_8 
REMARK       I    between atoms: C_8  and  N_10 
REMARK    4  A    between atoms: N_10  and  C_11 
ROOT
HETATM    1  N   UNL     1     -41.787 -52.950  12.033  1.00  0.00    -0.341 N 
HETATM    2  C   UNL     1     -41.486 -51.648  12.295  1.00  0.00     0.321 C 
HETATM    3  O   UNL     1     -41.635 -51.075  13.354  1.00  0.00    -0.247 OA
HETATM    4  N   UNL     1     -40.924 -51.018  11.154  1.00  0.00    -0.293 N 
HETATM    5  H   UNL     1     -41.589 -53.377  11.141  1.00  0.00     0.164 HD
HETATM    6  H   UNL     1     -40.675 -51.570  10.353  1.00  0.00     0.172 HD
ENDROOT
BRANCH   1   7
HETATM    7  C   UNL     1     -42.256 -53.803  13.111  1.00  0.00     0.154 C 
BRANCH   7   8
HETATM    8  C   UNL     1     -43.786 -54.026  13.104  1.00  0.00     0.292 C 
BRANCH   8   9
HETATM    9  N   UNL     1     -44.497 -53.265  14.143  1.00  0.00     0.095 N 
HETATM   10  C   UNL     1     -44.912 -51.924  13.686  1.00  0.00     0.303 C 
HETATM   11  C   UNL     1     -45.614 -51.123  14.802  1.00  0.00     0.146 C 
HETATM   12  C   UNL     1     -46.989 -51.689  15.161  1.00  0.00     0.041 C 
HETATM   13  O   UNL     1     -44.770 -51.006  15.956  1.00  0.00    -0.378 OA
HETATM   14  C   UNL     1     -44.326 -52.281  16.449  1.00  0.00     0.146 C 
HETATM   15  C   UNL     1     -43.632 -53.100  15.337  1.00  0.00     0.303 C 
HETATM   16  C   UNL     1     -43.371 -52.013  17.605  1.00  0.00     0.041 C 
ENDBRANCH   8   9
ENDBRANCH   7   8
ENDBRANCH   1   7
BRANCH   4  17
HETATM   17  C   UNL     1     -40.624 -49.660  11.151  1.00  0.00     0.127 A 
HETATM   18  C   UNL     1     -41.441 -48.614  10.783  1.00  0.00     0.076 A 
HETATM   19  C   UNL     1     -40.687 -47.444  11.013  1.00  0.00     0.025 A 
HETATM   20  C   UNL     1     -41.133 -46.040  10.841  1.00  0.00     0.070 C 
HETATM   21  N   UNL     1     -39.457 -47.730  11.450  1.00  0.00    -0.302 N 
HETATM   22  N   UNL     1     -39.438 -49.074  11.521  1.00  0.00    -0.281 N 
ATOM     23  HN  UNL     1     -38.705 -47.080  11.678  1.00  0.00     0.186 HD
HETATM   24  C   UNL     1     -38.276 -49.737  12.060  1.00  0.00     0.179 C 
ENDBRANCH   4  17
TORSDOF 4
ENDMDL
MODEL 9
REMARK VINA RESULT:      -5.6      2.146      7.467
REMARK  4 active torsions:
REMARK  status: ('A' for Active; 'I' for Inactive)
REMARK    1  A    between atoms: N_4  and  C_5 
REMARK    2  A    between atoms: C_5  and  C_6 
REMARK    3  A    between atoms: C_6  and  N_7 
REMARK       I    between atoms: N_7  and  C_8 
REMARK       I    between atoms: C_8  and  N_10 
REMARK    4  A    between atoms: N_10  and  C_11 
ROOT
HETATM    1  N   UNL     1     -41.747 -50.325  11.579  1.00  0.00    -0.341 N 
HETATM    2  C   UNL     1     -42.172 -51.070  12.636  1.00  0.00     0.321 C 
HETATM    3  O   UNL     1     -42.240 -50.705  13.791  1.00  0.00    -0.247 OA
HETATM    4  N   UNL     1     -42.575 -52.364  12.215  1.00  0.00    -0.293 N 
HETATM    5  H   UNL     1     -41.764 -50.677  10.633  1.00  0.00     0.164 HD
HETATM    6  H   UNL     1     -42.650 -52.568  11.235  1.00  0.00     0.172 HD
ENDROOT
BRANCH   1   7
HETATM    7  C   UNL     1     -41.409 -48.927  11.783  1.00  0.00     0.154 C 
BRANCH   7   8
HETATM    8  C   UNL     1     -42.628 -47.980  11.721  1.00  0.00     0.292 C 
BRANCH   8   9
HETATM    9  N   UNL     1     -43.273 -47.933  10.400  1.00  0.00     0.095 N 
HETATM   10  C   UNL     1     -42.704 -46.890   9.523  1.00  0.00     0.303 C 
HETATM   11  C   UNL     1     -43.423 -46.823   8.160  1.00  0.00     0.146 C 
HETATM   12  C   UNL     1     -43.148 -48.047   7.285  1.00  0.00     0.041 C 
HETATM   13  O   UNL     1     -44.830 -46.601   8.334  1.00  0.00    -0.378 OA
HETATM   14  C   UNL     1     -45.444 -47.583   9.185  1.00  0.00     0.146 C 
HETATM   15  C   UNL     1     -44.726 -47.669  10.550  1.00  0.00     0.303 C 
HETATM   16  C   UNL     1     -46.903 -47.180   9.362  1.00  0.00     0.041 C 
ENDBRANCH   8   9
ENDBRANCH   7   8
ENDBRANCH   1   7
BRANCH   4  17
HETATM   17  C   UNL     1     -42.959 -53.337  13.133  1.00  0.00     0.127 A 
HETATM   18  C   UNL     1     -42.149 -54.114  13.931  1.00  0.00     0.076 A 
HETATM   19  C   UNL     1     -43.023 -54.896  14.713  1.00  0.00     0.025 A 
HETATM   20  C   UNL     1     -42.657 -55.854  15.785  1.00  0.00     0.070 C 
HETATM   21  N   UNL     1     -44.302 -54.669  14.397  1.00  0.00    -0.302 N 
HETATM   22  N   UNL     1     -44.240 -53.728  13.436  1.00  0.00    -0.281 N 
ATOM     23  HN  UNL     1     -45.134 -55.107  14.792  1.00  0.00     0.186 HD
HETATM   24  C   UNL     1     -45.463 -53.162  12.922  1.00  0.00     0.179 C 
ENDBRANCH   4  17
TORSDOF 4
ENDMDL
