MODEL 1
REMARK VINA RESULT:      -5.7      0.000      0.000
REMARK  3 active torsions:
REMARK  status: ('A' for Active; 'I' for Inactive)
REMARK    1  A    between atoms: C_7  and  C_8 
REMARK    2  A    between atoms: C_8  and  C_9 
REMARK       I    between atoms: C_9  and  N_11 
REMARK    3  A    between atoms: N_11  and  C_12 
ROOT
HETATM    1  C   UNL     1     -46.814 -48.018   8.929  1.00  0.00     0.089 C 
HETATM    2  C   UNL     1     -45.498 -47.456   9.372  1.00  0.00     0.080 A 
HETATM    3  N   UNL     1     -44.712 -48.132  10.137  1.00  0.00    -0.349 N 
ATOM      4  HN  UNL     1     -44.969 -49.064  10.461  1.00  0.00     0.167 HD
HETATM    5  C   UNL     1     -43.513 -47.560  10.506  1.00  0.00     0.018 A 
HETATM    6  C   UNL     1     -42.683 -48.441  11.405  1.00  0.00     0.069 C 
HETATM    7  C   UNL     1     -43.124 -46.328  10.122  1.00  0.00     0.041 A 
HETATM    8  C   UNL     1     -44.081 -45.550   9.295  1.00  0.00     0.255 A 
HETATM    9  O   UNL     1     -43.879 -44.380   8.986  1.00  0.00    -0.268 OA
HETATM   10  N   UNL     1     -45.210 -46.205   8.918  1.00  0.00    -0.313 N 
HETATM   11  H   UNL     1     -45.869 -45.685   8.359  1.00  0.00     0.170 HD
ENDROOT
BRANCH   7  12
HETATM   12  C   UNL     1     -41.849 -45.620  10.466  1.00  0.00     0.149 C 
BRANCH  12  13
HETATM   13  C   UNL     1     -42.044 -44.664  11.643  1.00  0.00     0.222 C 
HETATM   14  O   UNL     1     -42.136 -45.061  12.801  1.00  0.00    -0.273 OA
HETATM   15  N   UNL     1     -42.138 -43.344  11.268  1.00  0.00    -0.356 N 
HETATM   16  H   UNL     1     -41.691 -43.106  10.381  1.00  0.00     0.162 HD
BRANCH  15  17
HETATM   17  C   UNL     1     -42.497 -42.230  12.126  1.00  0.00     0.084 C 
HETATM   18  C   UNL     1     -41.375 -41.202  12.295  1.00  0.00     0.025 C 
HETATM   19  C   UNL     1     -41.710 -40.261  13.449  1.00  0.00     0.002 C 
HETATM   20  C   UNL     1     -43.068 -39.582  13.258  1.00  0.00     0.000 C 
HETATM   21  C   UNL     1     -44.188 -40.557  12.884  1.00  0.00     0.002 C 
HETATM   22  C   UNL     1     -43.792 -41.507  11.747  1.00  0.00     0.025 C 
ENDBRANCH  15  17
ENDBRANCH  12  13
ENDBRANCH   7  12
TORSDOF 3
ENDMDL
MODEL 2
REMARK VINA RESULT:      -5.6      9.056     10.790
REMARK  3 active torsions:
REMARK  status: ('A' for Active; 'I' for Inactive)
REMARK    1  A    between atoms: C_7  and  C_8 
REMARK    2  A    between atoms: C_8  and  C_9 
REMARK       I    between atoms: C_9  and  N_11 
REMARK    3  A    between atoms: N_11  and  C_12 
ROOT
HETATM    1  C   UNL     1     -47.409 -50.431  17.721  1.00  0.00     0.089 C 
HETATM    2  C   UNL     1     -46.974 -51.451  16.712  1.00  0.00     0.080 A 
HETATM    3  N   UNL     1     -47.046 -51.207  15.449  1.00  0.00    -0.349 N 
ATOM      4  HN  UNL     1     -47.404 -50.316  15.107  1.00  0.00     0.167 HD
HETATM    5  C   UNL     1     -46.626 -52.185  14.574  1.00  0.00     0.018 A 
HETATM    6  C   UNL     1     -46.764 -51.790  13.125  1.00  0.00     0.069 C 
HETATM    7  C   UNL     1     -46.157 -53.387  14.965  1.00  0.00     0.041 A 
HETATM    8  C   UNL     1     -46.148 -53.660  16.425  1.00  0.00     0.255 A 
HETATM    9  O   UNL     1     -45.850 -54.758  16.884  1.00  0.00    -0.268 OA
HETATM   10  N   UNL     1     -46.514 -52.625  17.225  1.00  0.00    -0.313 N 
HETATM   11  H   UNL     1     -46.515 -52.801  18.218  1.00  0.00     0.170 HD
ENDROOT
BRANCH   7  12
HETATM   12  C   UNL     1     -45.678 -54.512  14.098  1.00  0.00     0.149 C 
BRANCH  12  13
HETATM   13  C   UNL     1     -44.323 -54.192  13.469  1.00  0.00     0.222 C 
HETATM   14  O   UNL     1     -44.159 -54.149  12.252  1.00  0.00    -0.273 OA
HETATM   15  N   UNL     1     -43.322 -53.999  14.392  1.00  0.00    -0.356 N 
HETATM   16  H   UNL     1     -43.629 -53.696  15.317  1.00  0.00     0.162 HD
BRANCH  15  17
HETATM   17  C   UNL     1     -41.905 -53.856  14.107  1.00  0.00     0.084 C 
HETATM   18  C   UNL     1     -41.460 -52.401  13.933  1.00  0.00     0.025 C 
HETATM   19  C   UNL     1     -40.062 -52.363  13.320  1.00  0.00     0.002 C 
HETATM   20  C   UNL     1     -39.053 -53.163  14.146  1.00  0.00     0.000 C 
HETATM   21  C   UNL     1     -39.547 -54.564  14.518  1.00  0.00     0.002 C 
HETATM   22  C   UNL     1     -40.968 -54.558  15.093  1.00  0.00     0.025 C 
ENDBRANCH  15  17
ENDBRANCH  12  13
ENDBRANCH   7  12
TORSDOF 3
ENDMDL
MODEL 3
REMARK VINA RESULT:      -5.4      5.582      8.201
REMARK  3 active torsions:
REMARK  status: ('A' for Active; 'I' for Inactive)
REMARK    1  A    between atoms: C_7  and  C_8 
REMARK    2  A    between atoms: C_8  and  C_9 
REMARK       I    between atoms: C_9  and  N_11 
REMARK    3  A    between atoms: N_11  and  C_12 
ROOT
HETATM    1  C   UNL     1     -42.585 -55.495  16.545  1.00  0.00     0.089 C 
HETATM    2  C   UNL     1     -42.237 -54.773  15.279  1.00  0.00     0.080 A 
HETATM    3  N   UNL     1     -43.157 -54.331  14.492  1.00  0.00    -0.349 N 
ATOM      4  HN  UNL     1     -44.144 -54.465  14.713  1.00  0.00     0.167 HD
HETATM    5  C   UNL     1     -42.771 -53.671  13.345  1.00  0.00     0.018 A 
HETATM    6  C   UNL     1     -43.933 -53.208  12.503  1.00  0.00     0.069 C 
HETATM    7  C   UNL     1     -41.485 -53.475  12.994  1.00  0.00     0.041 A 
HETATM    8  C   UNL     1     -40.450 -54.053  13.888  1.00  0.00     0.255 A 
HETATM    9  O   UNL     1     -39.256 -54.033  13.607  1.00  0.00    -0.268 OA
HETATM   10  N   UNL     1     -40.906 -54.630  15.030  1.00  0.00    -0.313 N 
HETATM   11  H   UNL     1     -40.212 -55.030  15.643  1.00  0.00     0.170 HD
ENDROOT
BRANCH   7  12
HETATM   12  C   UNL     1     -40.963 -52.775  11.776  1.00  0.00     0.149 C 
BRANCH  12  13
HETATM   13  C   UNL     1     -40.733 -51.289  12.044  1.00  0.00     0.222 C 
HETATM   14  O   UNL     1     -39.822 -50.886  12.763  1.00  0.00    -0.273 OA
HETATM   15  N   UNL     1     -41.657 -50.472  11.436  1.00  0.00    -0.356 N 
HETATM   16  H   UNL     1     -42.107 -50.859  10.605  1.00  0.00     0.162 HD
BRANCH  15  17
HETATM   17  C   UNL     1     -41.809 -49.043  11.642  1.00  0.00     0.084 C 
HETATM   18  C   UNL     1     -41.804 -48.234  10.341  1.00  0.00     0.025 C 
HETATM   19  C   UNL     1     -41.636 -46.751  10.660  1.00  0.00     0.002 C 
HETATM   20  C   UNL     1     -42.708 -46.248  11.629  1.00  0.00     0.000 C 
HETATM   21  C   UNL     1     -42.890 -47.148  12.855  1.00  0.00     0.002 C 
HETATM   22  C   UNL     1     -43.016 -48.631  12.488  1.00  0.00     0.025 C 
ENDBRANCH  15  17
ENDBRANCH  12  13
ENDBRANCH   7  12
TORSDOF 3
ENDMDL
MODEL 4
REMARK VINA RESULT:      -5.4      6.277     10.109
REMARK  3 active torsions:
REMARK  status: ('A' for Active; 'I' for Inactive)
REMARK    1  A    between atoms: C_7  and  C_8 
REMARK    2  A    between atoms: C_8  and  C_9 
REMARK       I    between atoms: C_9  and  N_11 
REMARK    3  A    between atoms: N_11  and  C_12 
ROOT
HETATM    1  C   UNL     1     -36.536 -49.417  15.875  1.00  0.00     0.089 C 
HETATM    2  C   UNL     1     -37.570 -49.623  14.810  1.00  0.00     0.080 A 
HETATM    3  N   UNL     1     -38.241 -48.631  14.336  1.00  0.00    -0.349 N 
ATOM      4  HN  UNL     1     -38.086 -47.683  14.676  1.00  0.00     0.167 HD
HETATM    5  C   UNL     1     -39.174 -48.887  13.354  1.00  0.00     0.018 A 
HETATM    6  C   UNL     1     -39.900 -47.653  12.883  1.00  0.00     0.069 C 
HETATM    7  C   UNL     1     -39.434 -50.120  12.874  1.00  0.00     0.041 A 
HETATM    8  C   UNL     1     -38.690 -51.249  13.487  1.00  0.00     0.255 A 
HETATM    9  O   UNL     1     -38.928 -52.419  13.207  1.00  0.00    -0.268 OA
HETATM   10  N   UNL     1     -37.742 -50.910  14.399  1.00  0.00    -0.313 N 
HETATM   11  H   UNL     1     -37.233 -51.669  14.826  1.00  0.00     0.170 HD
ENDROOT
BRANCH   7  12
HETATM   12  C   UNL     1     -40.422 -50.502  11.815  1.00  0.00     0.149 C 
BRANCH  12  13
HETATM   13  C   UNL     1     -41.751 -50.943  12.426  1.00  0.00     0.222 C 
HETATM   14  O   UNL     1     -42.583 -50.136  12.837  1.00  0.00    -0.273 OA
HETATM   15  N   UNL     1     -41.897 -52.308  12.499  1.00  0.00    -0.356 N 
HETATM   16  H   UNL     1     -41.351 -52.844  11.823  1.00  0.00     0.162 HD
BRANCH  15  17
HETATM   17  C   UNL     1     -42.958 -53.025  13.183  1.00  0.00     0.084 C 
HETATM   18  C   UNL     1     -44.199 -53.253  12.315  1.00  0.00     0.025 C 
HETATM   19  C   UNL     1     -45.362 -53.705  13.193  1.00  0.00     0.002 C 
HETATM   20  C   UNL     1     -45.013 -54.951  14.010  1.00  0.00     0.000 C 
HETATM   21  C   UNL     1     -43.670 -54.843  14.738  1.00  0.00     0.002 C 
HETATM   22  C   UNL     1     -42.540 -54.349  13.826  1.00  0.00     0.025 C 
ENDBRANCH  15  17
ENDBRANCH  12  13
ENDBRANCH   7  12
TORSDOF 3
ENDMDL
MODEL 5
REMARK VINA RESULT:      -5.3      4.039      7.756
REMARK  3 active torsions:
REMARK  status: ('A' for Active; 'I' for Inactive)
REMARK    1  A    between atoms: C_7  and  C_8 
REMARK    2  A    between atoms: C_8  and  C_9 
REMARK       I    between atoms: C_9  and  N_11 
REMARK    3  A    between atoms: N_11  and  C_12 
ROOT
HETATM    1  C   UNL     1     -43.593 -46.590   8.538  1.00  0.00     0.089 C 
HETATM    2  C   UNL     1     -43.016 -47.069   9.835  1.00  0.00     0.080 A 
HETATM    3  N   UNL     1     -43.311 -46.488  10.947  1.00  0.00    -0.349 N 
ATOM      4  HN  UNL     1     -43.941 -45.687  10.968  1.00  0.00     0.167 HD
HETATM    5  C   UNL     1     -42.750 -46.980  12.106  1.00  0.00     0.018 A 
HETATM    6  C   UNL     1     -43.162 -46.217  13.339  1.00  0.00     0.069 C 
HETATM    7  C   UNL     1     -41.900 -48.026  12.139  1.00  0.00     0.041 A 
HETATM    8  C   UNL     1     -41.530 -48.631  10.834  1.00  0.00     0.255 A 
HETATM    9  O   UNL     1     -40.681 -49.510  10.738  1.00  0.00    -0.268 OA
HETATM   10  N   UNL     1     -42.174 -48.135   9.746  1.00  0.00    -0.313 N 
HETATM   11  H   UNL     1     -41.928 -48.536   8.854  1.00  0.00     0.170 HD
ENDROOT
BRANCH   7  12
HETATM   12  C   UNL     1     -41.240 -48.633  13.339  1.00  0.00     0.149 C 
BRANCH  12  13
HETATM   13  C   UNL     1     -42.146 -49.665  14.010  1.00  0.00     0.222 C 
HETATM   14  O   UNL     1     -42.175 -49.816  15.229  1.00  0.00    -0.273 OA
HETATM   15  N   UNL     1     -42.880 -50.413  13.120  1.00  0.00    -0.356 N 
HETATM   16  H   UNL     1     -43.055 -49.972  12.216  1.00  0.00     0.162 HD
BRANCH  15  17
HETATM   17  C   UNL     1     -43.688 -51.577  13.436  1.00  0.00     0.084 C 
HETATM   18  C   UNL     1     -45.194 -51.306  13.389  1.00  0.00     0.025 C 
HETATM   19  C   UNL     1     -45.944 -52.464  14.044  1.00  0.00     0.002 C 
HETATM   20  C   UNL     1     -45.596 -53.808  13.401  1.00  0.00     0.000 C 
HETATM   21  C   UNL     1     -44.089 -54.033  13.241  1.00  0.00     0.002 C 
HETATM   22  C   UNL     1     -43.373 -52.830  12.615  1.00  0.00     0.025 C 
ENDBRANCH  15  17
ENDBRANCH  12  13
ENDBRANCH   7  12
TORSDOF 3
ENDMDL
MODEL 6
REMARK VINA RESULT:      -5.3      7.873     10.125
REMARK  3 active torsions:
REMARK  status: ('A' for Active; 'I' for Inactive)
REMARK    1  A    between atoms: C_7  and  C_8 
REMARK    2  A    between atoms: C_8  and  C_9 
REMARK       I    between atoms: C_9  and  N_11 
REMARK    3  A    between atoms: N_11  and  C_12 
ROOT
HETATM    1  C   UNL     1     -47.958 -51.255  17.260  1.00  0.00     0.089 C 
HETATM    2  C   UNL     1     -46.908 -51.157  16.195  1.00  0.00     0.080 A 
HETATM    3  N   UNL     1     -47.163 -51.501  14.979  1.00  0.00    -0.349 N 
ATOM      4  HN  UNL     1     -48.083 -51.850  14.715  1.00  0.00     0.167 HD
HETATM    5  C   UNL     1     -46.155 -51.383  14.046  1.00  0.00     0.018 A 
HETATM    6  C   UNL     1     -46.568 -51.821  12.663  1.00  0.00     0.069 C 
HETATM    7  C   UNL     1     -44.915 -50.942  14.337  1.00  0.00     0.041 A 
HETATM    8  C   UNL     1     -44.636 -50.616  15.759  1.00  0.00     0.255 A 
HETATM    9  O   UNL     1     -43.514 -50.316  16.153  1.00  0.00    -0.268 OA
HETATM   10  N   UNL     1     -45.696 -50.694  16.605  1.00  0.00    -0.313 N 
HETATM   11  H   UNL     1     -45.517 -50.479  17.574  1.00  0.00     0.170 HD
ENDROOT
BRANCH   7  12
HETATM   12  C   UNL     1     -43.757 -50.779  13.401  1.00  0.00     0.149 C 
BRANCH  12  13
HETATM   13  C   UNL     1     -42.943 -52.068  13.292  1.00  0.00     0.222 C 
HETATM   14  O   UNL     1     -43.167 -52.914  12.430  1.00  0.00    -0.273 OA
HETATM   15  N   UNL     1     -41.978 -52.191  14.264  1.00  0.00    -0.356 N 
HETATM   16  H   UNL     1     -41.644 -51.314  14.666  1.00  0.00     0.162 HD
BRANCH  15  17
HETATM   17  C   UNL     1     -41.172 -53.369  14.531  1.00  0.00     0.084 C 
HETATM   18  C   UNL     1     -39.741 -53.264  13.995  1.00  0.00     0.025 C 
HETATM   19  C   UNL     1     -39.081 -54.640  14.022  1.00  0.00     0.002 C 
HETATM   20  C   UNL     1     -39.112 -55.263  15.419  1.00  0.00     0.000 C 
HETATM   21  C   UNL     1     -40.492 -55.204  16.081  1.00  0.00     0.002 C 
HETATM   22  C   UNL     1     -41.131 -53.813  15.995  1.00  0.00     0.025 C 
ENDBRANCH  15  17
ENDBRANCH  12  13
ENDBRANCH   7  12
TORSDOF 3
ENDMDL
MODEL 7
REMARK VINA RESULT:      -5.2      4.601      8.572
REMARK  3 active torsions:
REMARK  status: ('A' for Active; 'I' for Inactive)
REMARK    1  A    between atoms: C_7  and  C_8 
REMARK    2  A    between atoms: C_8  and  C_9 
REMARK       I    between atoms: C_9  and  N_11 
REMARK    3  A    between atoms: N_11  and  C_12 
ROOT
HETATM    1  C   UNL     1     -39.609 -45.201  12.866  1.00  0.00     0.089 C 
HETATM    2  C   UNL     1     -39.796 -46.666  12.616  1.00  0.00     0.080 A 
HETATM    3  N   UNL     1     -38.941 -47.527  13.048  1.00  0.00    -0.349 N 
ATOM      4  HN  UNL     1     -38.115 -47.231  13.567  1.00  0.00     0.167 HD
HETATM    5  C   UNL     1     -39.173 -48.861  12.788  1.00  0.00     0.018 A 
HETATM    6  C   UNL     1     -38.102 -49.771  13.336  1.00  0.00     0.069 C 
HETATM    7  C   UNL     1     -40.237 -49.313  12.096  1.00  0.00     0.041 A 
HETATM    8  C   UNL     1     -41.170 -48.291  11.556  1.00  0.00     0.255 A 
HETATM    9  O   UNL     1     -42.105 -48.582  10.818  1.00  0.00    -0.268 OA
HETATM   10  N   UNL     1     -40.910 -47.005  11.909  1.00  0.00    -0.313 N 
HETATM   11  H   UNL     1     -41.534 -46.301  11.545  1.00  0.00     0.170 HD
ENDROOT
BRANCH   7  12
HETATM   12  C   UNL     1     -40.579 -50.733  11.762  1.00  0.00     0.149 C 
BRANCH  12  13
HETATM   13  C   UNL     1     -41.499 -51.348  12.816  1.00  0.00     0.222 C 
HETATM   14  O   UNL     1     -41.073 -51.792  13.879  1.00  0.00    -0.273 OA
HETATM   15  N   UNL     1     -42.821 -51.381  12.438  1.00  0.00    -0.356 N 
HETATM   16  H   UNL     1     -43.098 -50.683  11.746  1.00  0.00     0.162 HD
BRANCH  15  17
HETATM   17  C   UNL     1     -43.899 -52.056  13.138  1.00  0.00     0.084 C 
HETATM   18  C   UNL     1     -45.167 -51.208  13.269  1.00  0.00     0.025 C 
HETATM   19  C   UNL     1     -46.110 -51.850  14.284  1.00  0.00     0.002 C 
HETATM   20  C   UNL     1     -46.440 -53.299  13.923  1.00  0.00     0.000 C 
HETATM   21  C   UNL     1     -45.204 -54.137  13.582  1.00  0.00     0.002 C 
HETATM   22  C   UNL     1     -44.268 -53.436  12.590  1.00  0.00     0.025 C 
ENDBRANCH  15  17
ENDBRANCH  12  13
ENDBRANCH   7  12
TORSDOF 3
ENDMDL
MODEL 8
REMARK VINA RESULT:      -5.1      8.067     11.291
REMARK  3 active torsions:
REMARK  status: ('A' for Active; 'I' for Inactive)
REMARK    1  A    between atoms: C_7  and  C_8 
REMARK    2  A    between atoms: C_8  and  C_9 
REMARK       I    between atoms: C_9  and  N_11 
REMARK    3  A    between atoms: N_11  and  C_12 
ROOT
HETATM    1  C   UNL     1     -47.663 -51.519  16.364  1.00  0.00     0.089 C 
HETATM    2  C   UNL     1     -46.638 -52.059  15.414  1.00  0.00     0.080 A 
HETATM    3  N   UNL     1     -45.856 -51.270  14.761  1.00  0.00    -0.349 N 
ATOM      4  HN  UNL     1     -45.920 -50.259  14.875  1.00  0.00     0.167 HD
HETATM    5  C   UNL     1     -44.932 -51.830  13.906  1.00  0.00     0.018 A 
HETATM    6  C   UNL     1     -44.081 -50.809  13.195  1.00  0.00     0.069 C 
HETATM    7  C   UNL     1     -44.810 -53.157  13.703  1.00  0.00     0.041 A 
HETATM    8  C   UNL     1     -45.769 -54.036  14.421  1.00  0.00     0.255 A 
HETATM    9  O   UNL     1     -45.822 -55.245  14.224  1.00  0.00    -0.268 OA
HETATM   10  N   UNL     1     -46.604 -53.415  15.294  1.00  0.00    -0.313 N 
HETATM   11  H   UNL     1     -47.263 -54.001  15.784  1.00  0.00     0.170 HD
ENDROOT
BRANCH   7  12
HETATM   12  C   UNL     1     -43.844 -53.862  12.801  1.00  0.00     0.149 C 
BRANCH  12  13
HETATM   13  C   UNL     1     -42.513 -54.122  13.505  1.00  0.00     0.222 C 
HETATM   14  O   UNL     1     -41.432 -53.933  12.952  1.00  0.00    -0.273 OA
HETATM   15  N   UNL     1     -42.653 -54.615  14.781  1.00  0.00    -0.356 N 
HETATM   16  H   UNL     1     -43.532 -54.384  15.246  1.00  0.00     0.162 HD
BRANCH  15  17
HETATM   17  C   UNL     1     -41.590 -55.121  15.629  1.00  0.00     0.084 C 
HETATM   18  C   UNL     1     -40.912 -54.037  16.472  1.00  0.00     0.025 C 
HETATM   19  C   UNL     1     -39.618 -54.586  17.068  1.00  0.00     0.002 C 
HETATM   20  C   UNL     1     -39.857 -55.860  17.881  1.00  0.00     0.000 C 
HETATM   21  C   UNL     1     -40.711 -56.898  17.146  1.00  0.00     0.002 C 
HETATM   22  C   UNL     1     -41.979 -56.294  16.532  1.00  0.00     0.025 C 
ENDBRANCH  15  17
ENDBRANCH  12  13
ENDBRANCH   7  12
TORSDOF 3
ENDMDL
MODEL 9
REMARK VINA RESULT:      -5.1      7.966      9.761
REMARK  3 active torsions:
REMARK  status: ('A' for Active; 'I' for Inactive)
REMARK    1  A    between atoms: C_7  and  C_8 
REMARK    2  A    between atoms: C_8  and  C_9 
REMARK       I    between atoms: C_9  and  N_11 
REMARK    3  A    between atoms: N_11  and  C_12 
ROOT
HETATM    1  C   UNL     1     -48.025 -50.939  17.068  1.00  0.00     0.089 C 
HETATM    2  C   UNL     1     -47.226 -51.728  16.076  1.00  0.00     0.080 A 
HETATM    3  N   UNL     1     -47.154 -51.363  14.842  1.00  0.00    -0.349 N 
ATOM      4  HN  UNL     1     -47.642 -50.531  14.513  1.00  0.00     0.167 HD
HETATM    5  C   UNL     1     -46.399 -52.130  13.981  1.00  0.00     0.018 A 
HETATM    6  C   UNL     1     -46.396 -51.610  12.566  1.00  0.00     0.069 C 
HETATM    7  C   UNL     1     -45.744 -53.247  14.354  1.00  0.00     0.041 A 
HETATM    8  C   UNL     1     -45.900 -53.676  15.768  1.00  0.00     0.255 A 
HETATM    9  O   UNL     1     -45.443 -54.734  16.185  1.00  0.00    -0.268 OA
HETATM   10  N   UNL     1     -46.604 -52.834  16.569  1.00  0.00    -0.313 N 
HETATM   11  H   UNL     1     -46.720 -53.117  17.530  1.00  0.00     0.170 HD
ENDROOT
BRANCH   7  12
HETATM   12  C   UNL     1     -44.902 -54.146  13.500  1.00  0.00     0.149 C 
BRANCH  12  13
HETATM   13  C   UNL     1     -43.413 -53.867  13.698  1.00  0.00     0.222 C 
HETATM   14  O   UNL     1     -42.686 -54.617  14.345  1.00  0.00    -0.273 OA
HETATM   15  N   UNL     1     -42.992 -52.693  13.118  1.00  0.00    -0.356 N 
HETATM   16  H   UNL     1     -43.555 -52.365  12.332  1.00  0.00     0.162 HD
BRANCH  15  17
HETATM   17  C   UNL     1     -41.690 -52.072  13.281  1.00  0.00     0.084 C 
HETATM   18  C   UNL     1     -40.524 -53.057  13.153  1.00  0.00     0.025 C 
HETATM   19  C   UNL     1     -39.241 -52.399  13.657  1.00  0.00     0.002 C 
HETATM   20  C   UNL     1     -38.947 -51.086  12.931  1.00  0.00     0.000 C 
HETATM   21  C   UNL     1     -40.156 -50.148  12.856  1.00  0.00     0.002 C 
HETATM   22  C   UNL     1     -41.429 -50.861  12.382  1.00  0.00     0.025 C 
ENDBRANCH  15  17
ENDBRANCH  12  13
ENDBRANCH   7  12
TORSDOF 3
ENDMDL
