MODEL 1
REMARK VINA RESULT:      -5.9      0.000      0.000
REMARK  5 active torsions:
REMARK  status: ('A' for Active; 'I' for Inactive)
REMARK    1  A    between atoms: C_2  and  C_4 
REMARK    2  A    between atoms: C_7  and  C_8 
REMARK    3  A    between atoms: C_8  and  C_9 
REMARK    4  A    between atoms: C_9  and  N_10 
REMARK       I    between atoms: N_10  and  C_11 
REMARK    5  A    between atoms: C_11  and  C_13 
ROOT
HETATM    1  C   UNL     1     -41.651 -50.897  12.252  1.00  0.00     0.077 C 
ENDROOT
BRANCH   1   2
HETATM    2  C   UNL     1     -42.741 -51.859  12.603  1.00  0.00     0.018 A 
HETATM    3  N   UNL     1     -44.045 -51.406  12.705  1.00  0.00    -0.356 N 
HETATM    4  C   UNL     1     -44.856 -52.404  12.991  1.00  0.00     0.054 A 
ATOM      5  HN  UNL     1     -44.337 -50.437  12.577  1.00  0.00     0.166 HD
HETATM    6  S   UNL     1     -44.092 -53.932  13.195  1.00  0.00    -0.086 SA
HETATM    7  C   UNL     1     -42.581 -53.212  12.848  1.00  0.00     0.076 A 
BRANCH   4   8
HETATM    8  C   UNL     1     -46.351 -52.278  13.126  1.00  0.00     0.035 C 
HETATM    9  C   UNL     1     -46.712 -51.408  14.331  1.00  0.00     0.016 C 
HETATM   10  C   UNL     1     -46.953 -51.700  11.845  1.00  0.00     0.016 C 
ENDBRANCH   4   8
ENDBRANCH   1   2
BRANCH   1  11
HETATM   11  C   UNL     1     -42.119 -49.439  12.259  1.00  0.00     0.128 C 
BRANCH  11  12
HETATM   12  N   UNL     1     -42.416 -48.928  10.931  1.00  0.00    -0.360 N 
HETATM   13  C   UNL     1     -42.928 -47.668  10.750  1.00  0.00     0.222 C 
HETATM   14  O   UNL     1     -43.234 -46.912  11.663  1.00  0.00    -0.273 OA
HETATM   15  H   UNL     1     -42.108 -49.460  10.129  1.00  0.00     0.162 HD
BRANCH  13  16
HETATM   16  C   UNL     1     -43.104 -47.277   9.325  1.00  0.00     0.082 A 
HETATM   17  C   UNL     1     -43.809 -45.984   8.975  1.00  0.00     0.019 A 
HETATM   18  C   UNL     1     -44.464 -47.298   8.653  1.00  0.00    -0.005 A 
HETATM   19  C   UNL     1     -45.706 -47.708   9.370  1.00  0.00     0.011 C 
ENDBRANCH  13  16
ENDBRANCH  11  12
ENDBRANCH   1  11
TORSDOF 5
ENDMDL
MODEL 2
REMARK VINA RESULT:      -5.7      2.758      6.047
REMARK  5 active torsions:
REMARK  status: ('A' for Active; 'I' for Inactive)
REMARK    1  A    between atoms: C_2  and  C_4 
REMARK    2  A    between atoms: C_7  and  C_8 
REMARK    3  A    between atoms: C_8  and  C_9 
REMARK    4  A    between atoms: C_9  and  N_10 
REMARK       I    between atoms: N_10  and  C_11 
REMARK    5  A    between atoms: C_11  and  C_13 
ROOT
HETATM    1  C   UNL     1     -42.916 -48.836  13.167  1.00  0.00     0.077 C 
ENDROOT
BRANCH   1   2
HETATM    2  C   UNL     1     -42.853 -47.932  11.977  1.00  0.00     0.018 A 
HETATM    3  N   UNL     1     -43.675 -48.176  10.890  1.00  0.00    -0.356 N 
HETATM    4  C   UNL     1     -43.493 -47.259   9.962  1.00  0.00     0.054 A 
ATOM      5  HN  UNL     1     -44.328 -48.956  10.817  1.00  0.00     0.166 HD
HETATM    6  S   UNL     1     -42.295 -46.078  10.325  1.00  0.00    -0.086 SA
HETATM    7  C   UNL     1     -42.027 -46.831  11.836  1.00  0.00     0.076 A 
BRANCH   4   8
HETATM    8  C   UNL     1     -44.259 -47.191   8.666  1.00  0.00     0.035 C 
HETATM    9  C   UNL     1     -43.534 -47.972   7.570  1.00  0.00     0.016 C 
HETATM   10  C   UNL     1     -45.679 -47.725   8.860  1.00  0.00     0.016 C 
ENDBRANCH   4   8
ENDBRANCH   1   2
BRANCH   1  11
HETATM   11  C   UNL     1     -42.605 -50.295  12.824  1.00  0.00     0.128 C 
BRANCH  11  12
HETATM   12  N   UNL     1     -43.798 -51.098  12.612  1.00  0.00    -0.360 N 
HETATM   13  C   UNL     1     -44.117 -52.136  13.451  1.00  0.00     0.222 C 
HETATM   14  O   UNL     1     -43.416 -52.508  14.382  1.00  0.00    -0.273 OA
HETATM   15  H   UNL     1     -44.467 -50.796  11.918  1.00  0.00     0.162 HD
BRANCH  13  16
HETATM   16  C   UNL     1     -45.408 -52.806  13.134  1.00  0.00     0.082 A 
HETATM   17  C   UNL     1     -46.502 -52.043  12.418  1.00  0.00     0.019 A 
HETATM   18  C   UNL     1     -46.693 -52.445  13.854  1.00  0.00    -0.005 A 
HETATM   19  C   UNL     1     -46.750 -51.401  14.918  1.00  0.00     0.011 C 
ENDBRANCH  13  16
ENDBRANCH  11  12
ENDBRANCH   1  11
TORSDOF 5
ENDMDL
MODEL 3
REMARK VINA RESULT:      -5.5      3.504      6.585
REMARK  5 active torsions:
REMARK  status: ('A' for Active; 'I' for Inactive)
REMARK    1  A    between atoms: C_2  and  C_4 
REMARK    2  A    between atoms: C_7  and  C_8 
REMARK    3  A    between atoms: C_8  and  C_9 
REMARK    4  A    between atoms: C_9  and  N_10 
REMARK       I    between atoms: N_10  and  C_11 
REMARK    5  A    between atoms: C_11  and  C_13 
ROOT
HETATM    1  C   UNL     1     -41.060 -49.383  12.204  1.00  0.00     0.077 C 
ENDROOT
BRANCH   1   2
HETATM    2  C   UNL     1     -41.535 -48.229  11.379  1.00  0.00     0.018 A 
HETATM    3  N   UNL     1     -42.480 -48.441  10.390  1.00  0.00    -0.356 N 
HETATM    4  C   UNL     1     -42.787 -47.304   9.799  1.00  0.00     0.054 A 
ATOM      5  HN  UNL     1     -42.881 -49.348  10.151  1.00  0.00     0.166 HD
HETATM    6  S   UNL     1     -41.928 -45.927  10.369  1.00  0.00    -0.086 SA
HETATM    7  C   UNL     1     -41.114 -46.916  11.501  1.00  0.00     0.076 A 
BRANCH   4   8
HETATM    8  C   UNL     1     -43.818 -47.159   8.710  1.00  0.00     0.035 C 
HETATM    9  C   UNL     1     -43.457 -48.030   7.507  1.00  0.00     0.016 C 
HETATM   10  C   UNL     1     -45.206 -47.521   9.241  1.00  0.00     0.016 C 
ENDBRANCH   4   8
ENDBRANCH   1   2
BRANCH   1  11
HETATM   11  C   UNL     1     -40.590 -50.568  11.355  1.00  0.00     0.128 C 
BRANCH  11  12
HETATM   12  N   UNL     1     -41.232 -51.820  11.718  1.00  0.00    -0.360 N 
HETATM   13  C   UNL     1     -40.612 -52.729  12.539  1.00  0.00     0.222 C 
HETATM   14  O   UNL     1     -39.474 -52.601  12.970  1.00  0.00    -0.273 OA
HETATM   15  H   UNL     1     -42.203 -51.954  11.472  1.00  0.00     0.162 HD
BRANCH  13  16
HETATM   16  C   UNL     1     -41.438 -53.922  12.868  1.00  0.00     0.082 A 
HETATM   17  C   UNL     1     -42.944 -53.797  12.968  1.00  0.00     0.019 A 
HETATM   18  C   UNL     1     -42.137 -54.065  14.207  1.00  0.00    -0.005 A 
HETATM   19  C   UNL     1     -42.044 -53.027  15.275  1.00  0.00     0.011 C 
ENDBRANCH  13  16
ENDBRANCH  11  12
ENDBRANCH   1  11
TORSDOF 5
ENDMDL
MODEL 4
REMARK VINA RESULT:      -5.5      4.074      6.342
REMARK  5 active torsions:
REMARK  status: ('A' for Active; 'I' for Inactive)
REMARK    1  A    between atoms: C_2  and  C_4 
REMARK    2  A    between atoms: C_7  and  C_8 
REMARK    3  A    between atoms: C_8  and  C_9 
REMARK    4  A    between atoms: C_9  and  N_10 
REMARK       I    between atoms: N_10  and  C_11 
REMARK    5  A    between atoms: C_11  and  C_13 
ROOT
HETATM    1  C   UNL     1     -41.260 -54.095  12.887  1.00  0.00     0.077 C 
ENDROOT
BRANCH   1   2
HETATM    2  C   UNL     1     -40.494 -52.835  13.136  1.00  0.00     0.018 A 
HETATM    3  N   UNL     1     -40.182 -52.005  12.072  1.00  0.00    -0.356 N 
HETATM    4  C   UNL     1     -39.535 -50.939  12.497  1.00  0.00     0.054 A 
ATOM      5  HN  UNL     1     -40.419 -52.192  11.098  1.00  0.00     0.166 HD
HETATM    6  S   UNL     1     -39.228 -50.895  14.189  1.00  0.00    -0.086 SA
HETATM    7  C   UNL     1     -40.041 -52.389  14.365  1.00  0.00     0.076 A 
BRANCH   4   8
HETATM    8  C   UNL     1     -39.086 -49.804  11.614  1.00  0.00     0.035 C 
HETATM    9  C   UNL     1     -39.440 -48.458  12.244  1.00  0.00     0.016 C 
HETATM   10  C   UNL     1     -37.583 -49.899  11.351  1.00  0.00     0.016 C 
ENDBRANCH   4   8
ENDBRANCH   1   2
BRANCH   1  11
HETATM   11  C   UNL     1     -42.551 -54.179  13.707  1.00  0.00     0.128 C 
BRANCH  11  12
HETATM   12  N   UNL     1     -43.554 -53.213  13.293  1.00  0.00    -0.360 N 
HETATM   13  C   UNL     1     -44.837 -53.600  12.998  1.00  0.00     0.222 C 
HETATM   14  O   UNL     1     -45.221 -54.762  12.992  1.00  0.00    -0.273 OA
HETATM   15  H   UNL     1     -43.334 -52.229  13.359  1.00  0.00     0.162 HD
BRANCH  13  16
HETATM   16  C   UNL     1     -45.754 -52.476  12.662  1.00  0.00     0.082 A 
HETATM   17  C   UNL     1     -45.460 -51.081  13.170  1.00  0.00     0.019 A 
HETATM   18  C   UNL     1     -46.645 -51.833  13.708  1.00  0.00    -0.005 A 
HETATM   19  C   UNL     1     -46.661 -52.279  15.132  1.00  0.00     0.011 C 
ENDBRANCH  13  16
ENDBRANCH  11  12
ENDBRANCH   1  11
TORSDOF 5
ENDMDL
MODEL 5
REMARK VINA RESULT:      -5.3      2.850      6.079
REMARK  5 active torsions:
REMARK  status: ('A' for Active; 'I' for Inactive)
REMARK    1  A    between atoms: C_2  and  C_4 
REMARK    2  A    between atoms: C_7  and  C_8 
REMARK    3  A    between atoms: C_8  and  C_9 
REMARK    4  A    between atoms: C_9  and  N_10 
REMARK       I    between atoms: N_10  and  C_11 
REMARK    5  A    between atoms: C_11  and  C_13 
ROOT
HETATM    1  C   UNL     1     -41.340 -52.446  11.835  1.00  0.00     0.077 C 
ENDROOT
BRANCH   1   2
HETATM    2  C   UNL     1     -40.857 -51.031  11.862  1.00  0.00     0.018 A 
HETATM    3  N   UNL     1     -41.655 -50.027  11.339  1.00  0.00    -0.356 N 
HETATM    4  C   UNL     1     -41.070 -48.855  11.483  1.00  0.00     0.054 A 
ATOM      5  HN  UNL     1     -42.566 -50.174  10.905  1.00  0.00     0.166 HD
HETATM    6  S   UNL     1     -39.513 -48.899  12.213  1.00  0.00    -0.086 SA
HETATM    7  C   UNL     1     -39.647 -50.596  12.373  1.00  0.00     0.076 A 
BRANCH   4   8
HETATM    8  C   UNL     1     -41.679 -47.541  11.069  1.00  0.00     0.035 C 
HETATM    9  C   UNL     1     -40.590 -46.498  10.816  1.00  0.00     0.016 C 
HETATM   10  C   UNL     1     -42.549 -47.726   9.825  1.00  0.00     0.016 C 
ENDBRANCH   4   8
ENDBRANCH   1   2
BRANCH   1  11
HETATM   11  C   UNL     1     -42.142 -52.825  13.083  1.00  0.00     0.128 C 
BRANCH  11  12
HETATM   12  N   UNL     1     -43.502 -52.311  13.067  1.00  0.00    -0.360 N 
HETATM   13  C   UNL     1     -44.562 -53.110  12.719  1.00  0.00     0.222 C 
HETATM   14  O   UNL     1     -44.455 -54.269  12.340  1.00  0.00    -0.273 OA
HETATM   15  H   UNL     1     -43.676 -51.393  13.451  1.00  0.00     0.162 HD
BRANCH  13  16
HETATM   16  C   UNL     1     -45.890 -52.446  12.826  1.00  0.00     0.082 A 
HETATM   17  C   UNL     1     -46.108 -51.347  13.844  1.00  0.00     0.019 A 
HETATM   18  C   UNL     1     -46.801 -52.670  14.018  1.00  0.00    -0.005 A 
HETATM   19  C   UNL     1     -46.429 -53.562  15.155  1.00  0.00     0.011 C 
ENDBRANCH  13  16
ENDBRANCH  11  12
ENDBRANCH   1  11
TORSDOF 5
ENDMDL
MODEL 6
REMARK VINA RESULT:      -5.2      2.726      6.238
REMARK  5 active torsions:
REMARK  status: ('A' for Active; 'I' for Inactive)
REMARK    1  A    between atoms: C_2  and  C_4 
REMARK    2  A    between atoms: C_7  and  C_8 
REMARK    3  A    between atoms: C_8  and  C_9 
REMARK    4  A    between atoms: C_9  and  N_10 
REMARK       I    between atoms: N_10  and  C_11 
REMARK    5  A    between atoms: C_11  and  C_13 
ROOT
HETATM    1  C   UNL     1     -40.464 -50.018  11.580  1.00  0.00     0.077 C 
ENDROOT
BRANCH   1   2
HETATM    2  C   UNL     1     -41.065 -48.740  11.086  1.00  0.00     0.018 A 
HETATM    3  N   UNL     1     -42.149 -48.784  10.226  1.00  0.00    -0.356 N 
HETATM    4  C   UNL     1     -42.549 -47.564   9.931  1.00  0.00     0.054 A 
ATOM      5  HN  UNL     1     -42.576 -49.639   9.870  1.00  0.00     0.166 HD
HETATM    6  S   UNL     1     -41.621 -46.298  10.635  1.00  0.00    -0.086 SA
HETATM    7  C   UNL     1     -40.638 -47.464  11.409  1.00  0.00     0.076 A 
BRANCH   4   8
HETATM    8  C   UNL     1     -43.734 -47.242   9.058  1.00  0.00     0.035 C 
HETATM    9  C   UNL     1     -43.950 -45.731   8.978  1.00  0.00     0.016 C 
HETATM   10  C   UNL     1     -43.542 -47.835   7.661  1.00  0.00     0.016 C 
ENDBRANCH   4   8
ENDBRANCH   1   2
BRANCH   1  11
HETATM   11  C   UNL     1     -41.216 -50.607  12.777  1.00  0.00     0.128 C 
BRANCH  11  12
HETATM   12  N   UNL     1     -42.076 -51.721  12.418  1.00  0.00    -0.360 N 
HETATM   13  C   UNL     1     -43.354 -51.822  12.908  1.00  0.00     0.222 C 
HETATM   14  O   UNL     1     -43.844 -51.045  13.717  1.00  0.00    -0.273 OA
HETATM   15  H   UNL     1     -41.773 -52.352  11.689  1.00  0.00     0.162 HD
BRANCH  13  16
HETATM   16  C   UNL     1     -44.122 -52.984  12.383  1.00  0.00     0.082 A 
HETATM   17  C   UNL     1     -45.449 -53.360  13.008  1.00  0.00     0.019 A 
HETATM   18  C   UNL     1     -44.264 -54.271  13.174  1.00  0.00    -0.005 A 
HETATM   19  C   UNL     1     -43.650 -54.456  14.521  1.00  0.00     0.011 C 
ENDBRANCH  13  16
ENDBRANCH  11  12
ENDBRANCH   1  11
TORSDOF 5
ENDMDL
MODEL 7
REMARK VINA RESULT:      -5.1      4.432      6.774
REMARK  5 active torsions:
REMARK  status: ('A' for Active; 'I' for Inactive)
REMARK    1  A    between atoms: C_2  and  C_4 
REMARK    2  A    between atoms: C_7  and  C_8 
REMARK    3  A    between atoms: C_8  and  C_9 
REMARK    4  A    between atoms: C_9  and  N_10 
REMARK       I    between atoms: N_10  and  C_11 
REMARK    5  A    between atoms: C_11  and  C_13 
ROOT
HETATM    1  C   UNL     1     -42.129 -54.173  13.382  1.00  0.00     0.077 C 
ENDROOT
BRANCH   1   2
HETATM    2  C   UNL     1     -41.385 -52.929  13.010  1.00  0.00     0.018 A 
HETATM    3  N   UNL     1     -40.184 -52.640  13.634  1.00  0.00    -0.356 N 
HETATM    4  C   UNL     1     -39.673 -51.525  13.151  1.00  0.00     0.054 A 
ATOM      5  HN  UNL     1     -39.754 -53.209  14.364  1.00  0.00     0.166 HD
HETATM    6  S   UNL     1     -40.628 -50.742  11.954  1.00  0.00    -0.086 SA
HETATM    7  C   UNL     1     -41.785 -51.995  12.071  1.00  0.00     0.076 A 
BRANCH   4   8
HETATM    8  C   UNL     1     -38.349 -50.942  13.569  1.00  0.00     0.035 C 
HETATM    9  C   UNL     1     -37.331 -51.047  12.433  1.00  0.00     0.016 C 
HETATM   10  C   UNL     1     -38.523 -49.486  14.004  1.00  0.00     0.016 C 
ENDBRANCH   4   8
ENDBRANCH   1   2
BRANCH   1  11
HETATM   11  C   UNL     1     -43.056 -53.976  14.585  1.00  0.00     0.128 C 
BRANCH  11  12
HETATM   12  N   UNL     1     -44.306 -53.319  14.240  1.00  0.00    -0.360 N 
HETATM   13  C   UNL     1     -45.485 -53.666  14.851  1.00  0.00     0.222 C 
HETATM   14  O   UNL     1     -45.598 -54.574  15.663  1.00  0.00    -0.273 OA
HETATM   15  H   UNL     1     -44.276 -52.504  13.644  1.00  0.00     0.162 HD
BRANCH  13  16
HETATM   16  C   UNL     1     -46.655 -52.846  14.434  1.00  0.00     0.082 A 
HETATM   17  C   UNL     1     -46.441 -51.523  13.729  1.00  0.00     0.019 A 
HETATM   18  C   UNL     1     -47.001 -51.540  15.124  1.00  0.00    -0.005 A 
HETATM   19  C   UNL     1     -46.198 -50.994  16.257  1.00  0.00     0.011 C 
ENDBRANCH  13  16
ENDBRANCH  11  12
ENDBRANCH   1  11
TORSDOF 5
ENDMDL
MODEL 8
REMARK VINA RESULT:      -5.1      3.552      4.543
REMARK  5 active torsions:
REMARK  status: ('A' for Active; 'I' for Inactive)
REMARK    1  A    between atoms: C_2  and  C_4 
REMARK    2  A    between atoms: C_7  and  C_8 
REMARK    3  A    between atoms: C_8  and  C_9 
REMARK    4  A    between atoms: C_9  and  N_10 
REMARK       I    between atoms: N_10  and  C_11 
REMARK    5  A    between atoms: C_11  and  C_13 
ROOT
HETATM    1  C   UNL     1     -41.461 -53.763  12.933  1.00  0.00     0.077 C 
ENDROOT
BRANCH   1   2
HETATM    2  C   UNL     1     -42.839 -53.591  13.489  1.00  0.00     0.018 A 
HETATM    3  N   UNL     1     -43.572 -52.464  13.159  1.00  0.00    -0.356 N 
HETATM    4  C   UNL     1     -44.763 -52.512  13.720  1.00  0.00     0.054 A 
ATOM      5  HN  UNL     1     -43.237 -51.704  12.567  1.00  0.00     0.166 HD
HETATM    6  S   UNL     1     -45.052 -53.890  14.708  1.00  0.00    -0.086 SA
HETATM    7  C   UNL     1     -43.489 -54.473  14.334  1.00  0.00     0.076 A 
BRANCH   4   8
HETATM    8  C   UNL     1     -45.837 -51.471  13.533  1.00  0.00     0.035 C 
HETATM    9  C   UNL     1     -46.640 -51.748  12.263  1.00  0.00     0.016 C 
HETATM   10  C   UNL     1     -46.756 -51.432  14.755  1.00  0.00     0.016 C 
ENDBRANCH   4   8
ENDBRANCH   1   2
BRANCH   1  11
HETATM   11  C   UNL     1     -40.400 -52.991  13.723  1.00  0.00     0.128 C 
BRANCH  11  12
HETATM   12  N   UNL     1     -39.660 -52.042  12.908  1.00  0.00    -0.360 N 
HETATM   13  C   UNL     1     -40.109 -50.759  12.723  1.00  0.00     0.222 C 
HETATM   14  O   UNL     1     -41.171 -50.332  13.157  1.00  0.00    -0.273 OA
HETATM   15  H   UNL     1     -38.734 -52.295  12.591  1.00  0.00     0.162 HD
BRANCH  13  16
HETATM   16  C   UNL     1     -39.195 -49.899  11.922  1.00  0.00     0.082 A 
HETATM   17  C   UNL     1     -37.738 -50.280  11.767  1.00  0.00     0.019 A 
HETATM   18  C   UNL     1     -38.107 -49.067  12.574  1.00  0.00    -0.005 A 
HETATM   19  C   UNL     1     -37.880 -49.057  14.049  1.00  0.00     0.011 C 
ENDBRANCH  13  16
ENDBRANCH  11  12
ENDBRANCH   1  11
TORSDOF 5
ENDMDL
MODEL 9
REMARK VINA RESULT:      -4.9      3.660      5.240
REMARK  5 active torsions:
REMARK  status: ('A' for Active; 'I' for Inactive)
REMARK    1  A    between atoms: C_2  and  C_4 
REMARK    2  A    between atoms: C_7  and  C_8 
REMARK    3  A    between atoms: C_8  and  C_9 
REMARK    4  A    between atoms: C_9  and  N_10 
REMARK       I    between atoms: N_10  and  C_11 
REMARK    5  A    between atoms: C_11  and  C_13 
ROOT
HETATM    1  C   UNL     1     -41.385 -52.337  11.913  1.00  0.00     0.077 C 
ENDROOT
BRANCH   1   2
HETATM    2  C   UNL     1     -42.556 -52.386  12.843  1.00  0.00     0.018 A 
HETATM    3  N   UNL     1     -43.705 -51.680  12.530  1.00  0.00    -0.356 N 
HETATM    4  C   UNL     1     -44.626 -51.874  13.452  1.00  0.00     0.054 A 
ATOM      5  HN  UNL     1     -43.822 -51.093  11.705  1.00  0.00     0.166 HD
HETATM    6  S   UNL     1     -44.149 -52.878  14.764  1.00  0.00    -0.086 SA
HETATM    7  C   UNL     1     -42.619 -53.090  14.032  1.00  0.00     0.076 A 
BRANCH   4   8
HETATM    8  C   UNL     1     -46.017 -51.295  13.404  1.00  0.00     0.035 C 
HETATM    9  C   UNL     1     -46.778 -51.821  12.187  1.00  0.00     0.016 C 
HETATM   10  C   UNL     1     -46.772 -51.620  14.694  1.00  0.00     0.016 C 
ENDBRANCH   4   8
ENDBRANCH   1   2
BRANCH   1  11
HETATM   11  C   UNL     1     -40.614 -51.016  11.996  1.00  0.00     0.128 C 
BRANCH  11  12
HETATM   12  N   UNL     1     -39.837 -50.884  13.217  1.00  0.00    -0.360 N 
HETATM   13  C   UNL     1     -38.468 -50.985  13.205  1.00  0.00     0.222 C 
HETATM   14  O   UNL     1     -37.807 -51.252  12.211  1.00  0.00    -0.273 OA
HETATM   15  H   UNL     1     -40.306 -50.577  14.057  1.00  0.00     0.162 HD
BRANCH  13  16
HETATM   16  C   UNL     1     -37.826 -50.752  14.527  1.00  0.00     0.082 A 
HETATM   17  C   UNL     1     -38.575 -50.010  15.614  1.00  0.00     0.019 A 
HETATM   18  C   UNL     1     -37.379 -49.370  14.966  1.00  0.00    -0.005 A 
HETATM   19  C   UNL     1     -37.553 -48.161  14.109  1.00  0.00     0.011 C 
ENDBRANCH  13  16
ENDBRANCH  11  12
ENDBRANCH   1  11
TORSDOF 5
ENDMDL
