MODEL 1
REMARK VINA RESULT:      -6.0      0.000      0.000
REMARK  5 active torsions:
REMARK  status: ('A' for Active; 'I' for Inactive)
REMARK    1  A    between atoms: C_4  and  C_5 
REMARK    2  A    between atoms: C_5  and  C_6 
REMARK    3  A    between atoms: C_6  and  N_7 
REMARK       I    between atoms: N_7  and  C_8 
REMARK       I    between atoms: C_8  and  N_10 
REMARK    4  A    between atoms: N_10  and  C_11 
REMARK    5  A    between atoms: C_11  and  C_12 
ROOT
HETATM    1  N   UNL     1     -42.095 -49.471  11.263  1.00  0.00    -0.343 N 
HETATM    2  C   UNL     1     -41.896 -50.358  12.294  1.00  0.00     0.316 C 
HETATM    3  O   UNL     1     -41.614 -50.012  13.433  1.00  0.00    -0.247 OA
HETATM    4  N   UNL     1     -42.057 -51.659  11.907  1.00  0.00    -0.343 N 
HETATM    5  H   UNL     1     -41.957 -49.831  10.329  1.00  0.00     0.164 HD
HETATM    6  H   UNL     1     -42.459 -51.837  10.999  1.00  0.00     0.164 HD
ENDROOT
BRANCH   1   7
HETATM    7  C   UNL     1     -41.810 -48.062  11.494  1.00  0.00     0.129 C 
BRANCH   7   8
HETATM    8  C   UNL     1     -41.993 -47.181  10.259  1.00  0.00     0.061 C 
BRANCH   8   9
HETATM    9  C   UNL     1     -43.271 -47.432   9.529  1.00  0.00    -0.023 A 
HETATM   10  C   UNL     1     -44.562 -47.404  10.019  1.00  0.00     0.118 A 
HETATM   11  N   UNL     1     -45.380 -47.701   8.968  1.00  0.00    -0.308 N 
HETATM   12  C   UNL     1     -46.821 -47.786   8.981  1.00  0.00     0.177 C 
HETATM   13  N   UNL     1     -44.713 -47.929   7.824  1.00  0.00    -0.310 N 
HETATM   14  C   UNL     1     -43.434 -47.779   8.168  1.00  0.00     0.115 A 
ATOM     15  HN  UNL     1     -45.096 -48.162   6.907  1.00  0.00     0.186 HD
ENDBRANCH   8   9
ENDBRANCH   7   8
ENDBRANCH   1   7
BRANCH   4  16
HETATM   16  C   UNL     1     -42.015 -52.742  12.870  1.00  0.00     0.131 C 
BRANCH  16  17
HETATM   17  C   UNL     1     -43.391 -53.082  13.427  1.00  0.00     0.029 C 
HETATM   18  C   UNL     1     -43.413 -54.390  14.199  1.00  0.00     0.034 C 
HETATM   19  C   UNL     1     -44.813 -54.935  13.977  1.00  0.00     0.168 C 
HETATM   20  O   UNL     1     -45.461 -54.093  13.015  1.00  0.00    -0.391 OA
HETATM   21  C   UNL     1     -44.446 -53.321  12.363  1.00  0.00     0.173 C 
ENDBRANCH  16  17
ENDBRANCH   4  16
TORSDOF 5
ENDMDL
MODEL 2
REMARK VINA RESULT:      -5.5      2.646      3.771
REMARK  5 active torsions:
REMARK  status: ('A' for Active; 'I' for Inactive)
REMARK    1  A    between atoms: C_4  and  C_5 
REMARK    2  A    between atoms: C_5  and  C_6 
REMARK    3  A    between atoms: C_6  and  N_7 
REMARK       I    between atoms: N_7  and  C_8 
REMARK       I    between atoms: C_8  and  N_10 
REMARK    4  A    between atoms: N_10  and  C_11 
REMARK    5  A    between atoms: C_11  and  C_12 
ROOT
HETATM    1  N   UNL     1     -41.916 -51.562  11.674  1.00  0.00    -0.343 N 
HETATM    2  C   UNL     1     -42.397 -52.564  12.484  1.00  0.00     0.316 C 
HETATM    3  O   UNL     1     -41.855 -52.904  13.526  1.00  0.00    -0.247 OA
HETATM    4  N   UNL     1     -43.545 -53.125  11.999  1.00  0.00    -0.343 N 
HETATM    5  H   UNL     1     -42.192 -51.600  10.703  1.00  0.00     0.164 HD
HETATM    6  H   UNL     1     -44.011 -52.665  11.232  1.00  0.00     0.164 HD
ENDROOT
BRANCH   1   7
HETATM    7  C   UNL     1     -40.621 -50.978  11.988  1.00  0.00     0.129 C 
BRANCH   7   8
HETATM    8  C   UNL     1     -40.704 -49.639  12.720  1.00  0.00     0.061 C 
BRANCH   8   9
HETATM    9  C   UNL     1     -40.722 -48.458  11.807  1.00  0.00    -0.023 A 
HETATM   10  C   UNL     1     -39.933 -47.326  11.849  1.00  0.00     0.118 A 
HETATM   11  N   UNL     1     -40.330 -46.539  10.807  1.00  0.00    -0.308 N 
HETATM   12  C   UNL     1     -39.795 -45.253  10.432  1.00  0.00     0.177 C 
HETATM   13  N   UNL     1     -41.332 -47.076  10.089  1.00  0.00    -0.310 N 
HETATM   14  C   UNL     1     -41.578 -48.233  10.704  1.00  0.00     0.115 A 
ATOM     15  HN  UNL     1     -41.794 -46.689   9.266  1.00  0.00     0.186 HD
ENDBRANCH   8   9
ENDBRANCH   7   8
ENDBRANCH   1   7
BRANCH   4  16
HETATM   16  C   UNL     1     -44.282 -54.112  12.764  1.00  0.00     0.131 C 
BRANCH  16  17
HETATM   17  C   UNL     1     -45.530 -53.531  13.418  1.00  0.00     0.029 C 
HETATM   18  C   UNL     1     -45.974 -52.221  12.790  1.00  0.00     0.034 C 
HETATM   19  C   UNL     1     -46.610 -51.452  13.935  1.00  0.00     0.168 C 
HETATM   20  O   UNL     1     -46.380 -52.193  15.139  1.00  0.00    -0.391 OA
HETATM   21  C   UNL     1     -45.340 -53.140  14.872  1.00  0.00     0.173 C 
ENDBRANCH  16  17
ENDBRANCH   4  16
TORSDOF 5
ENDMDL
MODEL 3
REMARK VINA RESULT:      -5.5      3.165      6.680
REMARK  5 active torsions:
REMARK  status: ('A' for Active; 'I' for Inactive)
REMARK    1  A    between atoms: C_4  and  C_5 
REMARK    2  A    between atoms: C_5  and  C_6 
REMARK    3  A    between atoms: C_6  and  N_7 
REMARK       I    between atoms: N_7  and  C_8 
REMARK       I    between atoms: C_8  and  N_10 
REMARK    4  A    between atoms: N_10  and  C_11 
REMARK    5  A    between atoms: C_11  and  C_12 
ROOT
HETATM    1  N   UNL     1     -41.674 -53.132  12.146  1.00  0.00    -0.343 N 
HETATM    2  C   UNL     1     -40.739 -52.125  12.165  1.00  0.00     0.316 C 
HETATM    3  O   UNL     1     -39.683 -52.200  12.776  1.00  0.00    -0.247 OA
HETATM    4  N   UNL     1     -41.118 -51.043  11.421  1.00  0.00    -0.343 N 
HETATM    5  H   UNL     1     -42.625 -52.858  11.944  1.00  0.00     0.164 HD
HETATM    6  H   UNL     1     -41.918 -51.141  10.814  1.00  0.00     0.164 HD
ENDROOT
BRANCH   1   7
HETATM    7  C   UNL     1     -41.472 -54.283  13.014  1.00  0.00     0.129 C 
BRANCH   7   8
HETATM    8  C   UNL     1     -42.357 -54.284  14.261  1.00  0.00     0.061 C 
BRANCH   8   9
HETATM    9  C   UNL     1     -43.739 -53.776  14.014  1.00  0.00    -0.023 A 
HETATM   10  C   UNL     1     -44.281 -52.553  14.357  1.00  0.00     0.118 A 
HETATM   11  N   UNL     1     -45.573 -52.566  13.919  1.00  0.00    -0.308 N 
HETATM   12  C   UNL     1     -46.545 -51.507  14.039  1.00  0.00     0.177 C 
HETATM   13  N   UNL     1     -45.917 -53.718  13.317  1.00  0.00    -0.310 N 
HETATM   14  C   UNL     1     -44.809 -54.456  13.387  1.00  0.00     0.115 A 
ATOM     15  HN  UNL     1     -46.816 -53.968  12.904  1.00  0.00     0.186 HD
ENDBRANCH   8   9
ENDBRANCH   7   8
ENDBRANCH   1   7
BRANCH   4  16
HETATM   16  C   UNL     1     -40.220 -49.925  11.207  1.00  0.00     0.131 C 
BRANCH  16  17
HETATM   17  C   UNL     1     -40.881 -48.582  11.490  1.00  0.00     0.029 C 
HETATM   18  C   UNL     1     -41.854 -48.158  10.402  1.00  0.00     0.034 C 
HETATM   19  C   UNL     1     -41.781 -46.642  10.402  1.00  0.00     0.168 C 
HETATM   20  O   UNL     1     -40.725 -46.256  11.290  1.00  0.00    -0.391 OA
HETATM   21  C   UNL     1     -39.914 -47.414  11.527  1.00  0.00     0.173 C 
ENDBRANCH  16  17
ENDBRANCH   4  16
TORSDOF 5
ENDMDL
MODEL 4
REMARK VINA RESULT:      -5.5      1.716      2.487
REMARK  5 active torsions:
REMARK  status: ('A' for Active; 'I' for Inactive)
REMARK    1  A    between atoms: C_4  and  C_5 
REMARK    2  A    between atoms: C_5  and  C_6 
REMARK    3  A    between atoms: C_6  and  N_7 
REMARK       I    between atoms: N_7  and  C_8 
REMARK       I    between atoms: C_8  and  N_10 
REMARK    4  A    between atoms: N_10  and  C_11 
REMARK    5  A    between atoms: C_11  and  C_12 
ROOT
HETATM    1  N   UNL     1     -41.953 -51.008  11.738  1.00  0.00    -0.343 N 
HETATM    2  C   UNL     1     -42.102 -52.193  12.418  1.00  0.00     0.316 C 
HETATM    3  O   UNL     1     -41.309 -52.590  13.260  1.00  0.00    -0.247 OA
HETATM    4  N   UNL     1     -43.234 -52.868  12.055  1.00  0.00    -0.343 N 
HETATM    5  H   UNL     1     -42.419 -50.942  10.844  1.00  0.00     0.164 HD
HETATM    6  H   UNL     1     -43.913 -52.384  11.487  1.00  0.00     0.164 HD
ENDROOT
BRANCH   1   7
HETATM    7  C   UNL     1     -40.718 -50.258  11.914  1.00  0.00     0.129 C 
BRANCH   7   8
HETATM    8  C   UNL     1     -40.930 -48.778  12.232  1.00  0.00     0.061 C 
BRANCH   8   9
HETATM    9  C   UNL     1     -41.984 -48.131  11.395  1.00  0.00    -0.023 A 
HETATM   10  C   UNL     1     -42.014 -47.968  10.024  1.00  0.00     0.118 A 
HETATM   11  N   UNL     1     -43.179 -47.318   9.737  1.00  0.00    -0.308 N 
HETATM   12  C   UNL     1     -43.663 -46.930   8.435  1.00  0.00     0.177 C 
HETATM   13  N   UNL     1     -43.912 -47.038  10.829  1.00  0.00    -0.310 N 
HETATM   14  C   UNL     1     -43.180 -47.519  11.834  1.00  0.00     0.115 A 
ATOM     15  HN  UNL     1     -44.816 -46.568  10.877  1.00  0.00     0.186 HD
ENDBRANCH   8   9
ENDBRANCH   7   8
ENDBRANCH   1   7
BRANCH   4  16
HETATM   16  C   UNL     1     -43.643 -54.077  12.742  1.00  0.00     0.131 C 
BRANCH  16  17
HETATM   17  C   UNL     1     -44.935 -53.894  13.528  1.00  0.00     0.029 C 
HETATM   18  C   UNL     1     -44.712 -53.296  14.906  1.00  0.00     0.034 C 
HETATM   19  C   UNL     1     -45.817 -53.894  15.759  1.00  0.00     0.168 C 
HETATM   20  O   UNL     1     -46.492 -54.881  14.969  1.00  0.00    -0.391 OA
HETATM   21  C   UNL     1     -45.648 -55.193  13.854  1.00  0.00     0.173 C 
ENDBRANCH  16  17
ENDBRANCH   4  16
TORSDOF 5
ENDMDL
MODEL 5
REMARK VINA RESULT:      -5.5      2.958      3.514
REMARK  5 active torsions:
REMARK  status: ('A' for Active; 'I' for Inactive)
REMARK    1  A    between atoms: C_4  and  C_5 
REMARK    2  A    between atoms: C_5  and  C_6 
REMARK    3  A    between atoms: C_6  and  N_7 
REMARK       I    between atoms: N_7  and  C_8 
REMARK       I    between atoms: C_8  and  N_10 
REMARK    4  A    between atoms: N_10  and  C_11 
REMARK    5  A    between atoms: C_11  and  C_12 
ROOT
HETATM    1  N   UNL     1     -40.867 -51.080  11.169  1.00  0.00    -0.343 N 
HETATM    2  C   UNL     1     -41.058 -51.779  12.337  1.00  0.00     0.316 C 
HETATM    3  O   UNL     1     -40.893 -51.292  13.447  1.00  0.00    -0.247 OA
HETATM    4  N   UNL     1     -41.459 -53.068  12.119  1.00  0.00    -0.343 N 
HETATM    5  H   UNL     1     -40.667 -51.630  10.346  1.00  0.00     0.164 HD
HETATM    6  H   UNL     1     -41.737 -53.326  11.184  1.00  0.00     0.164 HD
ENDROOT
BRANCH   1   7
HETATM    7  C   UNL     1     -40.296 -49.743  11.246  1.00  0.00     0.129 C 
BRANCH   7   8
HETATM    8  C   UNL     1     -41.243 -48.637  10.781  1.00  0.00     0.061 C 
BRANCH   8   9
HETATM    9  C   UNL     1     -40.787 -47.265  11.155  1.00  0.00    -0.023 A 
HETATM   10  C   UNL     1     -41.159 -46.055  10.604  1.00  0.00     0.118 A 
HETATM   11  N   UNL     1     -40.470 -45.093  11.283  1.00  0.00    -0.308 N 
HETATM   12  C   UNL     1     -40.530 -43.666  11.074  1.00  0.00     0.177 C 
HETATM   13  N   UNL     1     -39.666 -45.591  12.238  1.00  0.00    -0.310 N 
HETATM   14  C   UNL     1     -39.849 -46.908  12.150  1.00  0.00     0.115 A 
ATOM     15  HN  UNL     1     -39.059 -45.080  12.879  1.00  0.00     0.186 HD
ENDBRANCH   8   9
ENDBRANCH   7   8
ENDBRANCH   1   7
BRANCH   4  16
HETATM   16  C   UNL     1     -41.836 -53.935  13.217  1.00  0.00     0.131 C 
BRANCH  16  17
HETATM   17  C   UNL     1     -43.301 -53.783  13.606  1.00  0.00     0.029 C 
HETATM   18  C   UNL     1     -43.856 -55.003  14.322  1.00  0.00     0.034 C 
HETATM   19  C   UNL     1     -45.321 -55.037  13.926  1.00  0.00     0.168 C 
HETATM   20  O   UNL     1     -45.528 -54.027  12.931  1.00  0.00    -0.391 OA
HETATM   21  C   UNL     1     -44.242 -53.650  12.424  1.00  0.00     0.173 C 
ENDBRANCH  16  17
ENDBRANCH   4  16
TORSDOF 5
ENDMDL
MODEL 6
REMARK VINA RESULT:      -5.3      2.637      6.473
REMARK  5 active torsions:
REMARK  status: ('A' for Active; 'I' for Inactive)
REMARK    1  A    between atoms: C_4  and  C_5 
REMARK    2  A    between atoms: C_5  and  C_6 
REMARK    3  A    between atoms: C_6  and  N_7 
REMARK       I    between atoms: N_7  and  C_8 
REMARK       I    between atoms: C_8  and  N_10 
REMARK    4  A    between atoms: N_10  and  C_11 
REMARK    5  A    between atoms: C_11  and  C_12 
ROOT
HETATM    1  N   UNL     1     -40.323 -48.118  11.023  1.00  0.00    -0.343 N 
HETATM    2  C   UNL     1     -41.506 -47.420  11.081  1.00  0.00     0.316 C 
HETATM    3  O   UNL     1     -42.122 -47.226  12.119  1.00  0.00    -0.247 OA
HETATM    4  N   UNL     1     -41.907 -46.966   9.856  1.00  0.00    -0.343 N 
HETATM    5  H   UNL     1     -40.091 -48.535  10.133  1.00  0.00     0.164 HD
HETATM    6  H   UNL     1     -41.252 -47.022   9.091  1.00  0.00     0.164 HD
ENDROOT
BRANCH   1   7
HETATM    7  C   UNL     1     -39.853 -48.788  12.227  1.00  0.00     0.129 C 
BRANCH   7   8
HETATM    8  C   UNL     1     -39.361 -50.216  11.992  1.00  0.00     0.061 C 
BRANCH   8   9
HETATM    9  C   UNL     1     -40.354 -51.262  12.380  1.00  0.00    -0.023 A 
HETATM   10  C   UNL     1     -41.694 -51.339  12.057  1.00  0.00     0.118 A 
HETATM   11  N   UNL     1     -42.169 -52.473  12.649  1.00  0.00    -0.308 N 
HETATM   12  C   UNL     1     -43.516 -52.987  12.593  1.00  0.00     0.177 C 
HETATM   13  N   UNL     1     -41.232 -53.142  13.344  1.00  0.00    -0.310 N 
HETATM   14  C   UNL     1     -40.135 -52.399  13.192  1.00  0.00     0.115 A 
ATOM     15  HN  UNL     1     -41.336 -54.012  13.864  1.00  0.00     0.186 HD
ENDBRANCH   8   9
ENDBRANCH   7   8
ENDBRANCH   1   7
BRANCH   4  16
HETATM   16  C   UNL     1     -43.062 -46.101   9.715  1.00  0.00     0.131 C 
BRANCH  16  17
HETATM   17  C   UNL     1     -44.046 -46.607   8.667  1.00  0.00     0.029 C 
HETATM   18  C   UNL     1     -45.338 -47.132   9.270  1.00  0.00     0.034 C 
HETATM   19  C   UNL     1     -45.780 -48.227   8.315  1.00  0.00     0.168 C 
HETATM   20  O   UNL     1     -44.732 -48.420   7.357  1.00  0.00    -0.391 OA
HETATM   21  C   UNL     1     -43.549 -47.805   7.881  1.00  0.00     0.173 C 
ENDBRANCH  16  17
ENDBRANCH   4  16
TORSDOF 5
ENDMDL
MODEL 7
REMARK VINA RESULT:      -5.1      2.958      4.049
REMARK  5 active torsions:
REMARK  status: ('A' for Active; 'I' for Inactive)
REMARK    1  A    between atoms: C_4  and  C_5 
REMARK    2  A    between atoms: C_5  and  C_6 
REMARK    3  A    between atoms: C_6  and  N_7 
REMARK       I    between atoms: N_7  and  C_8 
REMARK       I    between atoms: C_8  and  N_10 
REMARK    4  A    between atoms: N_10  and  C_11 
REMARK    5  A    between atoms: C_11  and  C_12 
ROOT
HETATM    1  N   UNL     1     -39.560 -51.242  13.962  1.00  0.00    -0.343 N 
HETATM    2  C   UNL     1     -39.932 -52.556  13.805  1.00  0.00     0.316 C 
HETATM    3  O   UNL     1     -39.143 -53.450  13.537  1.00  0.00    -0.247 OA
HETATM    4  N   UNL     1     -41.273 -52.747  13.990  1.00  0.00    -0.343 N 
HETATM    5  H   UNL     1     -40.282 -50.551  13.815  1.00  0.00     0.164 HD
HETATM    6  H   UNL     1     -41.811 -51.988  14.379  1.00  0.00     0.164 HD
ENDROOT
BRANCH   1   7
HETATM    7  C   UNL     1     -38.190 -50.866  13.648  1.00  0.00     0.129 C 
BRANCH   7   8
HETATM    8  C   UNL     1     -37.996 -50.360  12.219  1.00  0.00     0.061 C 
BRANCH   8   9
HETATM    9  C   UNL     1     -39.141 -49.546  11.713  1.00  0.00    -0.023 A 
HETATM   10  C   UNL     1     -39.400 -48.205  11.915  1.00  0.00     0.118 A 
HETATM   11  N   UNL     1     -40.562 -47.932  11.254  1.00  0.00    -0.308 N 
HETATM   12  C   UNL     1     -41.236 -46.659  11.165  1.00  0.00     0.177 C 
HETATM   13  N   UNL     1     -41.086 -49.005  10.636  1.00  0.00    -0.310 N 
HETATM   14  C   UNL     1     -40.231 -49.986  10.926  1.00  0.00     0.115 A 
ATOM     15  HN  UNL     1     -41.937 -49.056  10.076  1.00  0.00     0.186 HD
ENDBRANCH   8   9
ENDBRANCH   7   8
ENDBRANCH   1   7
BRANCH   4  16
HETATM   16  C   UNL     1     -41.850 -54.077  13.993  1.00  0.00     0.131 C 
BRANCH  16  17
HETATM   17  C   UNL     1     -43.110 -54.170  13.142  1.00  0.00     0.029 C 
HETATM   18  C   UNL     1     -43.544 -52.828  12.577  1.00  0.00     0.034 C 
HETATM   19  C   UNL     1     -45.057 -52.928  12.491  1.00  0.00     0.168 C 
HETATM   20  O   UNL     1     -45.450 -54.153  13.122  1.00  0.00    -0.391 OA
HETATM   21  C   UNL     1     -44.343 -54.608  13.910  1.00  0.00     0.173 C 
ENDBRANCH  16  17
ENDBRANCH   4  16
TORSDOF 5
ENDMDL
MODEL 8
REMARK VINA RESULT:      -4.9      2.598      7.462
REMARK  5 active torsions:
REMARK  status: ('A' for Active; 'I' for Inactive)
REMARK    1  A    between atoms: C_4  and  C_5 
REMARK    2  A    between atoms: C_5  and  C_6 
REMARK    3  A    between atoms: C_6  and  N_7 
REMARK       I    between atoms: N_7  and  C_8 
REMARK       I    between atoms: C_8  and  N_10 
REMARK    4  A    between atoms: N_10  and  C_11 
REMARK    5  A    between atoms: C_11  and  C_12 
ROOT
HETATM    1  N   UNL     1     -40.878 -51.443  11.223  1.00  0.00    -0.343 N 
HETATM    2  C   UNL     1     -40.934 -50.155  11.700  1.00  0.00     0.316 C 
HETATM    3  O   UNL     1     -40.904 -49.877  12.890  1.00  0.00    -0.247 OA
HETATM    4  N   UNL     1     -41.019 -49.228  10.699  1.00  0.00    -0.343 N 
HETATM    5  H   UNL     1     -41.268 -51.599  10.304  1.00  0.00     0.164 HD
HETATM    6  H   UNL     1     -40.860 -49.537   9.752  1.00  0.00     0.164 HD
ENDROOT
BRANCH   1   7
HETATM    7  C   UNL     1     -40.936 -52.540  12.177  1.00  0.00     0.129 C 
BRANCH   7   8
HETATM    8  C   UNL     1     -42.355 -53.005  12.503  1.00  0.00     0.061 C 
BRANCH   8   9
HETATM    9  C   UNL     1     -42.532 -53.440  13.921  1.00  0.00    -0.023 A 
HETATM   10  C   UNL     1     -43.690 -53.477  14.671  1.00  0.00     0.118 A 
HETATM   11  N   UNL     1     -43.337 -53.944  15.904  1.00  0.00    -0.308 N 
HETATM   12  C   UNL     1     -44.205 -54.166  17.034  1.00  0.00     0.177 C 
HETATM   13  N   UNL     1     -42.023 -54.209  16.014  1.00  0.00    -0.310 N 
HETATM   14  C   UNL     1     -41.534 -53.890  14.816  1.00  0.00     0.115 A 
ATOM     15  HN  UNL     1     -41.520 -54.570  16.824  1.00  0.00     0.186 HD
ENDBRANCH   8   9
ENDBRANCH   7   8
ENDBRANCH   1   7
BRANCH   4  16
HETATM   16  C   UNL     1     -40.962 -47.807  10.982  1.00  0.00     0.131 C 
BRANCH  16  17
HETATM   17  C   UNL     1     -42.252 -47.086  10.610  1.00  0.00     0.029 C 
HETATM   18  C   UNL     1     -42.919 -47.663   9.373  1.00  0.00     0.034 C 
HETATM   19  C   UNL     1     -43.610 -46.473   8.730  1.00  0.00     0.168 C 
HETATM   20  O   UNL     1     -43.214 -45.298   9.447  1.00  0.00    -0.391 OA
HETATM   21  C   UNL     1     -42.055 -45.633  10.220  1.00  0.00     0.173 C 
ENDBRANCH  16  17
ENDBRANCH   4  16
TORSDOF 5
ENDMDL
MODEL 9
REMARK VINA RESULT:      -4.9     18.775     21.226
REMARK  5 active torsions:
REMARK  status: ('A' for Active; 'I' for Inactive)
REMARK    1  A    between atoms: C_4  and  C_5 
REMARK    2  A    between atoms: C_5  and  C_6 
REMARK    3  A    between atoms: C_6  and  N_7 
REMARK       I    between atoms: N_7  and  C_8 
REMARK       I    between atoms: C_8  and  N_10 
REMARK    4  A    between atoms: N_10  and  C_11 
REMARK    5  A    between atoms: C_11  and  C_12 
ROOT
HETATM    1  N   UNL     1     -32.611 -51.328  -5.340  1.00  0.00    -0.343 N 
HETATM    2  C   UNL     1     -32.005 -50.178  -4.892  1.00  0.00     0.316 C 
HETATM    3  O   UNL     1     -30.815 -49.942  -5.043  1.00  0.00    -0.247 OA
HETATM    4  N   UNL     1     -32.880 -49.330  -4.271  1.00  0.00    -0.343 N 
HETATM    5  H   UNL     1     -33.462 -51.599  -4.868  1.00  0.00     0.164 HD
HETATM    6  H   UNL     1     -33.867 -49.527  -4.349  1.00  0.00     0.164 HD
ENDROOT
BRANCH   1   7
HETATM    7  C   UNL     1     -31.774 -52.385  -5.886  1.00  0.00     0.129 C 
BRANCH   7   8
HETATM    8  C   UNL     1     -31.560 -53.562  -4.935  1.00  0.00     0.061 C 
BRANCH   8   9
HETATM    9  C   UNL     1     -30.137 -54.004  -4.841  1.00  0.00    -0.023 A 
HETATM   10  C   UNL     1     -29.001 -53.228  -4.719  1.00  0.00     0.118 A 
HETATM   11  N   UNL     1     -27.946 -54.092  -4.674  1.00  0.00    -0.308 N 
HETATM   12  C   UNL     1     -26.549 -53.757  -4.543  1.00  0.00     0.177 C 
HETATM   13  N   UNL     1     -28.313 -55.383  -4.766  1.00  0.00    -0.310 N 
HETATM   14  C   UNL     1     -29.640 -55.327  -4.880  1.00  0.00     0.115 A 
ATOM     15  HN  UNL     1     -27.716 -56.210  -4.750  1.00  0.00     0.186 HD
ENDBRANCH   8   9
ENDBRANCH   7   8
ENDBRANCH   1   7
BRANCH   4  16
HETATM   16  C   UNL     1     -32.470 -48.009  -3.838  1.00  0.00     0.131 C 
BRANCH  16  17
HETATM   17  C   UNL     1     -33.332 -46.905  -4.438  1.00  0.00     0.029 C 
HETATM   18  C   UNL     1     -33.199 -45.582  -3.701  1.00  0.00     0.034 C 
HETATM   19  C   UNL     1     -34.560 -44.928  -3.855  1.00  0.00     0.168 C 
HETATM   20  O   UNL     1     -35.435 -45.880  -4.472  1.00  0.00    -0.391 OA
HETATM   21  C   UNL     1     -34.823 -47.170  -4.352  1.00  0.00     0.173 C 
ENDBRANCH  16  17
ENDBRANCH   4  16
TORSDOF 5
ENDMDL
