MODEL 1
REMARK VINA RESULT:      -6.4      0.000      0.000
REMARK  3 active torsions:
REMARK  status: ('A' for Active; 'I' for Inactive)
REMARK    1  A    between atoms: S_2  and  N_5 
REMARK    2  A    between atoms: N_5  and  C_6 
REMARK       I    between atoms: N_5  and  C_12 
REMARK       I    between atoms: C_12  and  N_14 
REMARK       I    between atoms: N_14  and  C_15 
REMARK       I    between atoms: C_15  and  N_17 
REMARK    3  A    between atoms: N_17  and  C_18 
ROOT
HETATM    1  N   UNL     1     -42.414 -51.970  14.093  1.00  0.00    -0.222 N 
HETATM    2  C   UNL     1     -42.685 -50.696  13.451  1.00  0.00     0.340 C 
HETATM    3  O   UNL     1     -43.638 -50.013  13.815  1.00  0.00    -0.246 OA
HETATM    4  N   UNL     1     -41.899 -50.305  12.392  1.00  0.00    -0.260 N 
HETATM    5  C   UNL     1     -41.999 -49.171  11.632  1.00  0.00     0.328 C 
HETATM    6  O   UNL     1     -40.990 -48.727  11.092  1.00  0.00    -0.247 OA
HETATM    7  N   UNL     1     -43.260 -48.648  11.497  1.00  0.00    -0.307 N 
HETATM    8  H   UNL     1     -40.963 -50.692  12.351  1.00  0.00     0.175 HD
HETATM    9  H   UNL     1     -44.025 -49.283  11.685  1.00  0.00     0.170 HD
ENDROOT
BRANCH   1  10
HETATM   10  S   UNL     1     -41.011 -52.806  13.637  1.00  0.00     0.233 S 
HETATM   11  C   UNL     1     -40.490 -53.938  14.914  1.00  0.00     0.186 C 
HETATM   12  O   UNL     1     -39.948 -51.813  13.573  1.00  0.00    -0.206 OA
HETATM   13  O   UNL     1     -41.329 -53.563  12.450  1.00  0.00    -0.206 OA
ENDBRANCH   1  10
BRANCH   1  14
HETATM   14  C   UNL     1     -43.531 -52.535  14.983  1.00  0.00     0.106 C 
HETATM   15  C   UNL     1     -43.425 -53.962  15.520  1.00  0.00     0.026 C 
HETATM   16  C   UNL     1     -43.737 -55.061  14.503  1.00  0.00     0.002 C 
HETATM   17  C   UNL     1     -45.043 -54.833  13.745  1.00  0.00     0.000 C 
HETATM   18  C   UNL     1     -45.199 -53.402  13.247  1.00  0.00     0.002 C 
HETATM   19  C   UNL     1     -44.949 -52.404  14.369  1.00  0.00     0.026 C 
ENDBRANCH   1  14
BRANCH   7  20
HETATM   20  C   UNL     1     -43.525 -47.504  10.729  1.00  0.00     0.051 A 
HETATM   21  C   UNL     1     -44.368 -47.612   9.627  1.00  0.00     0.032 A 
HETATM   22  C   UNL     1     -44.560 -46.500   8.811  1.00  0.00     0.019 A 
HETATM   23  C   UNL     1     -43.951 -45.305   9.166  1.00  0.00     0.088 A 
HETATM   24  N   UNL     1     -43.179 -45.151  10.260  1.00  0.00    -0.373 N 
HETATM   25  C   UNL     1     -42.967 -46.259  11.008  1.00  0.00     0.117 A 
ATOM     26  HN  UNL     1     -42.775 -44.248  10.510  1.00  0.00     0.164 HD
ENDBRANCH   7  20
TORSDOF 3
ENDMDL
MODEL 2
REMARK VINA RESULT:      -6.3      1.907      2.538
REMARK  3 active torsions:
REMARK  status: ('A' for Active; 'I' for Inactive)
REMARK    1  A    between atoms: S_2  and  N_5 
REMARK    2  A    between atoms: N_5  and  C_6 
REMARK       I    between atoms: N_5  and  C_12 
REMARK       I    between atoms: C_12  and  N_14 
REMARK       I    between atoms: N_14  and  C_15 
REMARK       I    between atoms: C_15  and  N_17 
REMARK    3  A    between atoms: N_17  and  C_18 
ROOT
HETATM    1  N   UNL     1     -43.254 -52.392  14.608  1.00  0.00    -0.222 N 
HETATM    2  C   UNL     1     -42.666 -51.186  14.056  1.00  0.00     0.340 C 
HETATM    3  O   UNL     1     -42.781 -50.116  14.648  1.00  0.00    -0.246 OA
HETATM    4  N   UNL     1     -42.038 -51.252  12.833  1.00  0.00    -0.260 N 
HETATM    5  C   UNL     1     -41.450 -50.240  12.123  1.00  0.00     0.328 C 
HETATM    6  O   UNL     1     -40.538 -50.512  11.347  1.00  0.00    -0.247 OA
HETATM    7  N   UNL     1     -41.980 -48.989  12.310  1.00  0.00    -0.307 N 
HETATM    8  H   UNL     1     -41.670 -52.156  12.558  1.00  0.00     0.175 HD
HETATM    9  H   UNL     1     -42.920 -48.957  12.684  1.00  0.00     0.170 HD
ENDROOT
BRANCH   1  10
HETATM   10  S   UNL     1     -42.953 -53.859  13.814  1.00  0.00     0.233 S 
HETATM   11  C   UNL     1     -43.114 -55.243  14.928  1.00  0.00     0.186 C 
HETATM   12  O   UNL     1     -41.541 -53.843  13.454  1.00  0.00    -0.206 OA
HETATM   13  O   UNL     1     -43.936 -53.991  12.767  1.00  0.00    -0.206 OA
ENDBRANCH   1  10
BRANCH   1  14
HETATM   14  C   UNL     1     -44.262 -52.196  15.751  1.00  0.00     0.106 C 
HETATM   15  C   UNL     1     -45.088 -53.383  16.247  1.00  0.00     0.026 C 
HETATM   16  C   UNL     1     -46.255 -53.782  15.342  1.00  0.00     0.002 C 
HETATM   17  C   UNL     1     -47.138 -52.605  14.935  1.00  0.00     0.000 C 
HETATM   18  C   UNL     1     -46.337 -51.389  14.489  1.00  0.00     0.002 C 
HETATM   19  C   UNL     1     -45.265 -51.037  15.511  1.00  0.00     0.026 C 
ENDBRANCH   1  14
BRANCH   7  20
HETATM   20  C   UNL     1     -41.500 -47.857  11.634  1.00  0.00     0.051 A 
HETATM   21  C   UNL     1     -40.408 -47.170  12.158  1.00  0.00     0.032 A 
HETATM   22  C   UNL     1     -39.987 -45.996  11.539  1.00  0.00     0.019 A 
HETATM   23  C   UNL     1     -40.635 -45.588  10.383  1.00  0.00     0.088 A 
HETATM   24  N   UNL     1     -41.656 -46.262   9.814  1.00  0.00    -0.373 N 
HETATM   25  C   UNL     1     -42.078 -47.373  10.463  1.00  0.00     0.117 A 
ATOM     26  HN  UNL     1     -42.086 -45.952   8.943  1.00  0.00     0.164 HD
ENDBRANCH   7  20
TORSDOF 3
ENDMDL
MODEL 3
REMARK VINA RESULT:      -6.0      3.811      5.170
REMARK  3 active torsions:
REMARK  status: ('A' for Active; 'I' for Inactive)
REMARK    1  A    between atoms: S_2  and  N_5 
REMARK    2  A    between atoms: N_5  and  C_6 
REMARK       I    between atoms: N_5  and  C_12 
REMARK       I    between atoms: C_12  and  N_14 
REMARK       I    between atoms: N_14  and  C_15 
REMARK       I    between atoms: C_15  and  N_17 
REMARK    3  A    between atoms: N_17  and  C_18 
ROOT
HETATM    1  N   UNL     1     -44.390 -53.279  15.017  1.00  0.00    -0.222 N 
HETATM    2  C   UNL     1     -43.080 -52.886  14.531  1.00  0.00     0.340 C 
HETATM    3  O   UNL     1     -42.188 -52.601  15.325  1.00  0.00    -0.246 OA
HETATM    4  N   UNL     1     -42.879 -52.777  13.174  1.00  0.00    -0.260 N 
HETATM    5  C   UNL     1     -41.745 -52.395  12.511  1.00  0.00     0.328 C 
HETATM    6  O   UNL     1     -41.556 -52.810  11.370  1.00  0.00    -0.247 OA
HETATM    7  N   UNL     1     -40.925 -51.521  13.177  1.00  0.00    -0.307 N 
HETATM    8  H   UNL     1     -43.485 -53.329  12.578  1.00  0.00     0.175 HD
HETATM    9  H   UNL     1     -41.354 -50.997  13.929  1.00  0.00     0.170 HD
ENDROOT
BRANCH   1  10
HETATM   10  S   UNL     1     -45.540 -53.786  13.879  1.00  0.00     0.233 S 
HETATM   11  C   UNL     1     -46.442 -52.400  13.209  1.00  0.00     0.186 C 
HETATM   12  O   UNL     1     -46.538 -54.546  14.620  1.00  0.00    -0.206 OA
HETATM   13  O   UNL     1     -44.827 -54.435  12.806  1.00  0.00    -0.206 OA
ENDBRANCH   1  10
BRANCH   1  14
HETATM   14  C   UNL     1     -44.675 -53.008  16.502  1.00  0.00     0.106 C 
HETATM   15  C   UNL     1     -46.099 -53.150  17.040  1.00  0.00     0.026 C 
HETATM   16  C   UNL     1     -47.040 -51.995  16.692  1.00  0.00     0.002 C 
HETATM   17  C   UNL     1     -46.451 -50.620  16.995  1.00  0.00     0.000 C 
HETATM   18  C   UNL     1     -45.012 -50.472  16.518  1.00  0.00     0.002 C 
HETATM   19  C   UNL     1     -44.155 -51.634  17.000  1.00  0.00     0.026 C 
ENDBRANCH   1  14
BRANCH   7  20
HETATM   20  C   UNL     1     -39.740 -51.021  12.616  1.00  0.00     0.051 A 
HETATM   21  C   UNL     1     -38.519 -51.402  13.167  1.00  0.00     0.032 A 
HETATM   22  C   UNL     1     -37.347 -50.836  12.672  1.00  0.00     0.019 A 
HETATM   23  C   UNL     1     -37.437 -49.959  11.600  1.00  0.00     0.088 A 
HETATM   24  N   UNL     1     -38.596 -49.616  11.004  1.00  0.00    -0.373 N 
HETATM   25  C   UNL     1     -39.725 -50.141  11.537  1.00  0.00     0.117 A 
ATOM     26  HN  UNL     1     -38.622 -48.995  10.195  1.00  0.00     0.164 HD
ENDBRANCH   7  20
TORSDOF 3
ENDMDL
MODEL 4
REMARK VINA RESULT:      -5.9      3.712      4.818
REMARK  3 active torsions:
REMARK  status: ('A' for Active; 'I' for Inactive)
REMARK    1  A    between atoms: S_2  and  N_5 
REMARK    2  A    between atoms: N_5  and  C_6 
REMARK       I    between atoms: N_5  and  C_12 
REMARK       I    between atoms: C_12  and  N_14 
REMARK       I    between atoms: N_14  and  C_15 
REMARK       I    between atoms: C_15  and  N_17 
REMARK    3  A    between atoms: N_17  and  C_18 
ROOT
HETATM    1  N   UNL     1     -44.988 -51.305  14.739  1.00  0.00    -0.222 N 
HETATM    2  C   UNL     1     -43.777 -50.917  14.041  1.00  0.00     0.340 C 
HETATM    3  O   UNL     1     -43.723 -50.985  12.816  1.00  0.00    -0.246 OA
HETATM    4  N   UNL     1     -42.677 -50.539  14.776  1.00  0.00    -0.260 N 
HETATM    5  C   UNL     1     -41.439 -50.170  14.325  1.00  0.00     0.328 C 
HETATM    6  O   UNL     1     -40.758 -49.412  15.012  1.00  0.00    -0.247 OA
HETATM    7  N   UNL     1     -41.038 -50.735  13.141  1.00  0.00    -0.307 N 
HETATM    8  H   UNL     1     -42.854 -50.172  15.705  1.00  0.00     0.175 HD
HETATM    9  H   UNL     1     -41.519 -51.583  12.870  1.00  0.00     0.170 HD
ENDROOT
BRANCH   1  10
HETATM   10  S   UNL     1     -45.049 -51.068  16.417  1.00  0.00     0.233 S 
HETATM   11  C   UNL     1     -46.731 -51.067  17.010  1.00  0.00     0.186 C 
HETATM   12  O   UNL     1     -44.578 -49.709  16.653  1.00  0.00    -0.206 OA
HETATM   13  O   UNL     1     -44.342 -52.165  17.032  1.00  0.00    -0.206 OA
ENDBRANCH   1  10
BRANCH   1  14
HETATM   14  C   UNL     1     -46.030 -52.080  13.918  1.00  0.00     0.106 C 
HETATM   15  C   UNL     1     -47.013 -53.014  14.625  1.00  0.00     0.026 C 
HETATM   16  C   UNL     1     -46.426 -54.355  15.068  1.00  0.00     0.002 C 
HETATM   17  C   UNL     1     -45.651 -55.072  13.965  1.00  0.00     0.000 C 
HETATM   18  C   UNL     1     -44.705 -54.150  13.208  1.00  0.00     0.002 C 
HETATM   19  C   UNL     1     -45.424 -52.892  12.743  1.00  0.00     0.026 C 
ENDBRANCH   1  14
BRANCH   7  20
HETATM   20  C   UNL     1     -39.785 -50.473  12.566  1.00  0.00     0.051 A 
HETATM   21  C   UNL     1     -38.673 -51.174  13.023  1.00  0.00     0.032 A 
HETATM   22  C   UNL     1     -37.416 -50.853  12.518  1.00  0.00     0.019 A 
HETATM   23  C   UNL     1     -37.328 -49.885  11.528  1.00  0.00     0.088 A 
HETATM   24  N   UNL     1     -38.391 -49.231  11.019  1.00  0.00    -0.373 N 
HETATM   25  C   UNL     1     -39.596 -49.526  11.563  1.00  0.00     0.117 A 
ATOM     26  HN  UNL     1     -38.294 -48.550  10.266  1.00  0.00     0.164 HD
ENDBRANCH   7  20
TORSDOF 3
ENDMDL
MODEL 5
REMARK VINA RESULT:      -5.8      2.270      2.691
REMARK  3 active torsions:
REMARK  status: ('A' for Active; 'I' for Inactive)
REMARK    1  A    between atoms: S_2  and  N_5 
REMARK    2  A    between atoms: N_5  and  C_6 
REMARK       I    between atoms: N_5  and  C_12 
REMARK       I    between atoms: C_12  and  N_14 
REMARK       I    between atoms: N_14  and  C_15 
REMARK       I    between atoms: C_15  and  N_17 
REMARK    3  A    between atoms: N_17  and  C_18 
ROOT
HETATM    1  N   UNL     1     -41.102 -52.277  14.456  1.00  0.00    -0.222 N 
HETATM    2  C   UNL     1     -40.855 -50.901  14.068  1.00  0.00     0.340 C 
HETATM    3  O   UNL     1     -41.502 -49.991  14.578  1.00  0.00    -0.246 OA
HETATM    4  N   UNL     1     -39.935 -50.644  13.077  1.00  0.00    -0.260 N 
HETATM    5  C   UNL     1     -39.577 -49.437  12.542  1.00  0.00     0.328 C 
HETATM    6  O   UNL     1     -38.452 -49.309  12.064  1.00  0.00    -0.247 OA
HETATM    7  N   UNL     1     -40.547 -48.467  12.542  1.00  0.00    -0.307 N 
HETATM    8  H   UNL     1     -39.209 -51.337  12.939  1.00  0.00     0.175 HD
HETATM    9  H   UNL     1     -41.501 -48.795  12.631  1.00  0.00     0.170 HD
ENDROOT
BRANCH   1  10
HETATM   10  S   UNL     1     -40.091 -53.477  13.814  1.00  0.00     0.233 S 
HETATM   11  C   UNL     1     -39.667 -54.694  15.048  1.00  0.00     0.186 C 
HETATM   12  O   UNL     1     -38.829 -52.821  13.500  1.00  0.00    -0.206 OA
HETATM   13  O   UNL     1     -40.818 -54.130  12.753  1.00  0.00    -0.206 OA
ENDBRANCH   1  10
BRANCH   1  14
HETATM   14  C   UNL     1     -42.386 -52.539  15.258  1.00  0.00     0.106 C 
HETATM   15  C   UNL     1     -42.642 -53.924  15.852  1.00  0.00     0.026 C 
HETATM   16  C   UNL     1     -43.103 -54.982  14.848  1.00  0.00     0.002 C 
HETATM   17  C   UNL     1     -44.259 -54.519  13.966  1.00  0.00     0.000 C 
HETATM   18  C   UNL     1     -44.054 -53.117  13.406  1.00  0.00     0.002 C 
HETATM   19  C   UNL     1     -43.685 -52.138  14.511  1.00  0.00     0.026 C 
ENDBRANCH   1  14
BRANCH   7  20
HETATM   20  C   UNL     1     -40.337 -47.188  12.005  1.00  0.00     0.051 A 
HETATM   21  C   UNL     1     -39.722 -46.219  12.793  1.00  0.00     0.032 A 
HETATM   22  C   UNL     1     -39.595 -44.924  12.296  1.00  0.00     0.019 A 
HETATM   23  C   UNL     1     -40.030 -44.665  11.005  1.00  0.00     0.088 A 
HETATM   24  N   UNL     1     -40.573 -45.595  10.193  1.00  0.00    -0.373 N 
HETATM   25  C   UNL     1     -40.732 -46.833  10.718  1.00  0.00     0.117 A 
ATOM     26  HN  UNL     1     -40.850 -45.377   9.236  1.00  0.00     0.164 HD
ENDBRANCH   7  20
TORSDOF 3
ENDMDL
MODEL 6
REMARK VINA RESULT:      -5.7      2.536      7.272
REMARK  3 active torsions:
REMARK  status: ('A' for Active; 'I' for Inactive)
REMARK    1  A    between atoms: S_2  and  N_5 
REMARK    2  A    between atoms: N_5  and  C_6 
REMARK       I    between atoms: N_5  and  C_12 
REMARK       I    between atoms: C_12  and  N_14 
REMARK       I    between atoms: N_14  and  C_15 
REMARK       I    between atoms: C_15  and  N_17 
REMARK    3  A    between atoms: N_17  and  C_18 
ROOT
HETATM    1  N   UNL     1     -41.840 -47.725  12.724  1.00  0.00    -0.222 N 
HETATM    2  C   UNL     1     -42.332 -49.069  12.969  1.00  0.00     0.340 C 
HETATM    3  O   UNL     1     -42.101 -49.966  12.165  1.00  0.00    -0.246 OA
HETATM    4  N   UNL     1     -43.112 -49.299  14.080  1.00  0.00    -0.260 N 
HETATM    5  C   UNL     1     -43.698 -50.469  14.478  1.00  0.00     0.328 C 
HETATM    6  O   UNL     1     -43.920 -50.645  15.673  1.00  0.00    -0.247 OA
HETATM    7  N   UNL     1     -44.041 -51.341  13.477  1.00  0.00    -0.307 N 
HETATM    8  H   UNL     1     -42.993 -48.663  14.860  1.00  0.00     0.175 HD
HETATM    9  H   UNL     1     -44.131 -50.940  12.552  1.00  0.00     0.170 HD
ENDROOT
BRANCH   1  10
HETATM   10  S   UNL     1     -42.079 -46.559  13.932  1.00  0.00     0.233 S 
HETATM   11  C   UNL     1     -40.924 -45.210  13.765  1.00  0.00     0.186 C 
HETATM   12  O   UNL     1     -41.716 -47.197  15.190  1.00  0.00    -0.206 OA
HETATM   13  O   UNL     1     -43.418 -46.044  13.774  1.00  0.00    -0.206 OA
ENDBRANCH   1  10
BRANCH   1  14
HETATM   14  C   UNL     1     -41.325 -47.437  11.306  1.00  0.00     0.106 C 
HETATM   15  C   UNL     1     -41.087 -45.993  10.864  1.00  0.00     0.026 C 
HETATM   16  C   UNL     1     -42.352 -45.206  10.518  1.00  0.00     0.002 C 
HETATM   17  C   UNL     1     -43.287 -45.947   9.566  1.00  0.00     0.000 C 
HETATM   18  C   UNL     1     -43.496 -47.405   9.954  1.00  0.00     0.002 C 
HETATM   19  C   UNL     1     -42.165 -48.104  10.186  1.00  0.00     0.026 C 
ENDBRANCH   1  14
BRANCH   7  20
HETATM   20  C   UNL     1     -44.672 -52.569  13.727  1.00  0.00     0.051 A 
HETATM   21  C   UNL     1     -43.889 -53.689  13.990  1.00  0.00     0.032 A 
HETATM   22  C   UNL     1     -44.508 -54.926  14.149  1.00  0.00     0.019 A 
HETATM   23  C   UNL     1     -45.893 -54.984  14.102  1.00  0.00     0.088 A 
HETATM   24  N   UNL     1     -46.685 -53.909  13.911  1.00  0.00    -0.373 N 
HETATM   25  C   UNL     1     -46.056 -52.727  13.709  1.00  0.00     0.117 A 
ATOM     26  HN  UNL     1     -47.702 -53.983  13.917  1.00  0.00     0.164 HD
ENDBRANCH   7  20
TORSDOF 3
ENDMDL
MODEL 7
REMARK VINA RESULT:      -5.6      1.887      2.699
REMARK  3 active torsions:
REMARK  status: ('A' for Active; 'I' for Inactive)
REMARK    1  A    between atoms: S_2  and  N_5 
REMARK    2  A    between atoms: N_5  and  C_6 
REMARK       I    between atoms: N_5  and  C_12 
REMARK       I    between atoms: C_12  and  N_14 
REMARK       I    between atoms: N_14  and  C_15 
REMARK       I    between atoms: C_15  and  N_17 
REMARK    3  A    between atoms: N_17  and  C_18 
ROOT
HETATM    1  N   UNL     1     -44.231 -52.829  14.081  1.00  0.00    -0.222 N 
HETATM    2  C   UNL     1     -43.912 -51.492  13.615  1.00  0.00     0.340 C 
HETATM    3  O   UNL     1     -44.778 -50.622  13.597  1.00  0.00    -0.246 OA
HETATM    4  N   UNL     1     -42.648 -51.239  13.135  1.00  0.00    -0.260 N 
HETATM    5  C   UNL     1     -42.151 -50.071  12.622  1.00  0.00     0.328 C 
HETATM    6  O   UNL     1     -40.945 -49.852  12.705  1.00  0.00    -0.247 OA
HETATM    7  N   UNL     1     -43.059 -49.253  12.001  1.00  0.00    -0.307 N 
HETATM    8  H   UNL     1     -41.903 -51.838  13.474  1.00  0.00     0.175 HD
HETATM    9  H   UNL     1     -43.917 -49.695  11.696  1.00  0.00     0.170 HD
ENDROOT
BRANCH   1  10
HETATM   10  S   UNL     1     -42.965 -53.950  14.205  1.00  0.00     0.233 S 
HETATM   11  C   UNL     1     -41.764 -53.439  15.421  1.00  0.00     0.186 C 
HETATM   12  O   UNL     1     -42.247 -53.895  12.938  1.00  0.00    -0.206 OA
HETATM   13  O   UNL     1     -43.541 -55.205  14.623  1.00  0.00    -0.206 OA
ENDBRANCH   1  10
BRANCH   1  14
HETATM   14  C   UNL     1     -45.723 -53.161  14.231  1.00  0.00     0.106 C 
HETATM   15  C   UNL     1     -46.742 -52.030  14.374  1.00  0.00     0.026 C 
HETATM   16  C   UNL     1     -46.792 -51.377  15.756  1.00  0.00     0.002 C 
HETATM   17  C   UNL     1     -46.893 -52.383  16.900  1.00  0.00     0.000 C 
HETATM   18  C   UNL     1     -45.925 -53.550  16.751  1.00  0.00     0.002 C 
HETATM   19  C   UNL     1     -46.030 -54.172  15.367  1.00  0.00     0.026 C 
ENDBRANCH   1  14
BRANCH   7  20
HETATM   20  C   UNL     1     -42.696 -48.035  11.406  1.00  0.00     0.051 A 
HETATM   21  C   UNL     1     -42.661 -46.885  12.190  1.00  0.00     0.032 A 
HETATM   22  C   UNL     1     -42.390 -45.661  11.584  1.00  0.00     0.019 A 
HETATM   23  C   UNL     1     -42.101 -45.645  10.227  1.00  0.00     0.088 A 
HETATM   24  N   UNL     1     -42.066 -46.747   9.451  1.00  0.00    -0.373 N 
HETATM   25  C   UNL     1     -42.383 -47.917  10.055  1.00  0.00     0.117 A 
ATOM     26  HN  UNL     1     -41.815 -46.702   8.464  1.00  0.00     0.164 HD
ENDBRANCH   7  20
TORSDOF 3
ENDMDL
MODEL 8
REMARK VINA RESULT:      -5.6      4.527      6.497
REMARK  3 active torsions:
REMARK  status: ('A' for Active; 'I' for Inactive)
REMARK    1  A    between atoms: S_2  and  N_5 
REMARK    2  A    between atoms: N_5  and  C_6 
REMARK       I    between atoms: N_5  and  C_12 
REMARK       I    between atoms: C_12  and  N_14 
REMARK       I    between atoms: N_14  and  C_15 
REMARK       I    between atoms: C_15  and  N_17 
REMARK    3  A    between atoms: N_17  and  C_18 
ROOT
HETATM    1  N   UNL     1     -40.464 -55.450  16.003  1.00  0.00    -0.222 N 
HETATM    2  C   UNL     1     -41.533 -54.880  15.204  1.00  0.00     0.340 C 
HETATM    3  O   UNL     1     -41.274 -54.282  14.163  1.00  0.00    -0.246 OA
HETATM    4  N   UNL     1     -42.827 -54.965  15.666  1.00  0.00    -0.260 N 
HETATM    5  C   UNL     1     -43.968 -54.472  15.094  1.00  0.00     0.328 C 
HETATM    6  O   UNL     1     -45.038 -55.027  15.330  1.00  0.00    -0.247 OA
HETATM    7  N   UNL     1     -43.818 -53.345  14.328  1.00  0.00    -0.307 N 
HETATM    8  H   UNL     1     -43.034 -55.725  16.304  1.00  0.00     0.175 HD
HETATM    9  H   UNL     1     -42.981 -52.801  14.499  1.00  0.00     0.170 HD
ENDROOT
BRANCH   1  10
HETATM   10  S   UNL     1     -40.892 -56.373  17.359  1.00  0.00     0.233 S 
HETATM   11  C   UNL     1     -39.863 -57.823  17.504  1.00  0.00     0.186 C 
HETATM   12  O   UNL     1     -42.225 -56.896  17.091  1.00  0.00    -0.206 OA
HETATM   13  O   UNL     1     -40.690 -55.545  18.524  1.00  0.00    -0.206 OA
ENDBRANCH   1  10
BRANCH   1  14
HETATM   14  C   UNL     1     -39.038 -54.995  15.657  1.00  0.00     0.106 C 
HETATM   15  C   UNL     1     -37.845 -55.628  16.372  1.00  0.00     0.026 C 
HETATM   16  C   UNL     1     -37.610 -55.135  17.800  1.00  0.00     0.002 C 
HETATM   17  C   UNL     1     -37.606 -53.613  17.924  1.00  0.00     0.000 C 
HETATM   18  C   UNL     1     -38.755 -52.953  17.173  1.00  0.00     0.002 C 
HETATM   19  C   UNL     1     -38.833 -53.459  15.740  1.00  0.00     0.026 C 
ENDBRANCH   1  14
BRANCH   7  20
HETATM   20  C   UNL     1     -44.899 -52.710  13.697  1.00  0.00     0.051 A 
HETATM   21  C   UNL     1     -45.699 -51.845  14.438  1.00  0.00     0.032 A 
HETATM   22  C   UNL     1     -46.825 -51.285  13.840  1.00  0.00     0.019 A 
HETATM   23  C   UNL     1     -47.071 -51.563  12.503  1.00  0.00     0.088 A 
HETATM   24  N   UNL     1     -46.284 -52.347  11.740  1.00  0.00    -0.373 N 
HETATM   25  C   UNL     1     -45.224 -52.919  12.359  1.00  0.00     0.117 A 
ATOM     26  HN  UNL     1     -46.476 -52.501  10.750  1.00  0.00     0.164 HD
ENDBRANCH   7  20
TORSDOF 3
ENDMDL
MODEL 9
REMARK VINA RESULT:      -5.4      4.319      8.671
REMARK  3 active torsions:
REMARK  status: ('A' for Active; 'I' for Inactive)
REMARK    1  A    between atoms: S_2  and  N_5 
REMARK    2  A    between atoms: N_5  and  C_6 
REMARK       I    between atoms: N_5  and  C_12 
REMARK       I    between atoms: C_12  and  N_14 
REMARK       I    between atoms: N_14  and  C_15 
REMARK       I    between atoms: C_15  and  N_17 
REMARK    3  A    between atoms: N_17  and  C_18 
ROOT
HETATM    1  N   UNL     1     -43.635 -53.485  14.231  1.00  0.00    -0.222 N 
HETATM    2  C   UNL     1     -42.899 -54.507  14.953  1.00  0.00     0.340 C 
HETATM    3  O   UNL     1     -43.379 -55.628  15.094  1.00  0.00    -0.246 OA
HETATM    4  N   UNL     1     -41.693 -54.177  15.528  1.00  0.00    -0.260 N 
HETATM    5  C   UNL     1     -40.861 -54.970  16.271  1.00  0.00     0.328 C 
HETATM    6  O   UNL     1     -39.658 -54.720  16.284  1.00  0.00    -0.247 OA
HETATM    7  N   UNL     1     -41.466 -55.967  16.993  1.00  0.00    -0.307 N 
HETATM    8  H   UNL     1     -41.189 -53.400  15.116  1.00  0.00     0.175 HD
HETATM    9  H   UNL     1     -42.455 -55.845  17.172  1.00  0.00     0.170 HD
ENDROOT
BRANCH   1  10
HETATM   10  S   UNL     1     -42.868 -51.998  13.957  1.00  0.00     0.233 S 
HETATM   11  C   UNL     1     -43.167 -50.859  15.296  1.00  0.00     0.186 C 
HETATM   12  O   UNL     1     -43.539 -51.400  12.811  1.00  0.00    -0.206 OA
HETATM   13  O   UNL     1     -41.450 -52.254  13.876  1.00  0.00    -0.206 OA
ENDBRANCH   1  10
BRANCH   1  14
HETATM   14  C   UNL     1     -45.117 -53.779  13.956  1.00  0.00     0.106 C 
HETATM   15  C   UNL     1     -45.940 -52.808  13.109  1.00  0.00     0.026 C 
HETATM   16  C   UNL     1     -46.370 -51.528  13.827  1.00  0.00     0.002 C 
HETATM   17  C   UNL     1     -47.013 -51.782  15.188  1.00  0.00     0.000 C 
HETATM   18  C   UNL     1     -46.242 -52.790  16.031  1.00  0.00     0.002 C 
HETATM   19  C   UNL     1     -45.949 -54.054  15.236  1.00  0.00     0.026 C 
ENDBRANCH   1  14
BRANCH   7  20
HETATM   20  C   UNL     1     -40.748 -56.843  17.820  1.00  0.00     0.051 A 
HETATM   21  C   UNL     1     -39.933 -57.808  17.235  1.00  0.00     0.032 A 
HETATM   22  C   UNL     1     -39.291 -58.736  18.051  1.00  0.00     0.019 A 
HETATM   23  C   UNL     1     -39.438 -58.623  19.426  1.00  0.00     0.088 A 
HETATM   24  N   UNL     1     -40.170 -57.663  20.027  1.00  0.00    -0.373 N 
HETATM   25  C   UNL     1     -40.824 -56.804  19.210  1.00  0.00     0.117 A 
ATOM     26  HN  UNL     1     -40.227 -57.589  21.043  1.00  0.00     0.164 HD
ENDBRANCH   7  20
TORSDOF 3
ENDMDL
