MODEL 1
REMARK VINA RESULT:      -7.0      0.000      0.000
REMARK  4 active torsions:
REMARK  status: ('A' for Active; 'I' for Inactive)
REMARK    1  A    between atoms: O_2  and  C_3 
REMARK    2  A    between atoms: C_3  and  C_4 
REMARK    3  A    between atoms: C_4  and  N_5 
REMARK    4  A    between atoms: C_6  and  N_18 
ROOT
HETATM    1  N   UNL     1     -42.218 -53.148  13.720  1.00  0.00    -0.172 N 
HETATM    2  C   UNL     1     -43.237 -53.627  14.540  1.00  0.00     0.685 C 
HETATM    3  N   UNL     1     -42.750 -54.540  15.369  1.00  0.00    -0.174 N 
ATOM      4  HN  UNL     1     -43.276 -55.113  16.028  1.00  0.00     0.186 HD
HETATM    5  C   UNL     1     -41.410 -54.559  15.163  1.00  0.00     0.160 A 
HETATM    6  N   UNL     1     -40.483 -55.367  15.793  1.00  0.00    -0.287 N 
HETATM    7  C   UNL     1     -40.853 -56.337  16.801  1.00  0.00     0.163 C 
HETATM    8  C   UNL     1     -39.146 -55.275  15.420  1.00  0.00     0.330 A 
HETATM    9  O   UNL     1     -38.251 -55.974  15.898  1.00  0.00    -0.246 OA
HETATM   10  N   UNL     1     -38.823 -54.339  14.460  1.00  0.00    -0.273 N 
HETATM   11  C   UNL     1     -39.677 -53.449  13.852  1.00  0.00     0.280 A 
HETATM   12  O   UNL     1     -39.268 -52.577  13.093  1.00  0.00    -0.265 OA
HETATM   13  C   UNL     1     -41.038 -53.654  14.211  1.00  0.00     0.164 A 
HETATM   14  H   UNL     1     -37.847 -54.266  14.225  1.00  0.00     0.173 HD
ENDROOT
BRANCH   2  15
HETATM   15  N   UNL     1     -44.552 -53.262  14.473  1.00  0.00    -0.217 N 
HETATM   16  C   UNL     1     -45.356 -53.246  13.257  1.00  0.00     0.145 C 
HETATM   17  C   UNL     1     -45.983 -51.866  13.017  1.00  0.00     0.000 C 
HETATM   18  C   UNL     1     -46.906 -51.904  11.800  1.00  0.00     0.011 C 
HETATM   19  C   UNL     1     -46.743 -51.385  14.255  1.00  0.00     0.011 C 
HETATM   20  C   UNL     1     -45.831 -51.398  15.487  1.00  0.00     0.000 C 
HETATM   21  C   UNL     1     -46.616 -50.953  16.721  1.00  0.00     0.011 C 
HETATM   22  C   UNL     1     -45.216 -52.791  15.695  1.00  0.00     0.145 C 
ENDBRANCH   2  15
BRANCH   1  23
HETATM   23  C   UNL     1     -42.326 -52.387  12.486  1.00  0.00     0.174 C 
BRANCH  23  24
HETATM   24  C   UNL     1     -42.322 -50.867  12.657  1.00  0.00     0.187 C 
BRANCH  24  25
HETATM   25  O   UNL     1     -41.396 -50.279  11.741  1.00  0.00    -0.394 OA
HETATM   26  C   UNL     1     -41.773 -48.951  11.403  1.00  0.00     0.201 C 
ENDBRANCH  24  25
ENDBRANCH  23  24
ENDBRANCH   1  23
TORSDOF 4
ENDMDL
MODEL 2
REMARK VINA RESULT:      -6.6      3.667      6.812
REMARK  4 active torsions:
REMARK  status: ('A' for Active; 'I' for Inactive)
REMARK    1  A    between atoms: O_2  and  C_3 
REMARK    2  A    between atoms: C_3  and  C_4 
REMARK    3  A    between atoms: C_4  and  N_5 
REMARK    4  A    between atoms: C_6  and  N_18 
ROOT
HETATM    1  N   UNL     1     -41.612 -48.484  12.522  1.00  0.00    -0.172 N 
HETATM    2  C   UNL     1     -42.723 -49.319  12.613  1.00  0.00     0.685 C 
HETATM    3  N   UNL     1     -43.640 -48.937  11.734  1.00  0.00    -0.174 N 
ATOM      4  HN  UNL     1     -44.581 -49.314  11.627  1.00  0.00     0.186 HD
HETATM    5  C   UNL     1     -43.074 -47.942  11.008  1.00  0.00     0.160 A 
HETATM    6  N   UNL     1     -43.660 -47.224   9.982  1.00  0.00    -0.287 N 
HETATM    7  C   UNL     1     -45.015 -47.465   9.539  1.00  0.00     0.163 C 
HETATM    8  C   UNL     1     -42.934 -46.204   9.376  1.00  0.00     0.330 A 
HETATM    9  O   UNL     1     -43.378 -45.488   8.477  1.00  0.00    -0.246 OA
HETATM   10  N   UNL     1     -41.643 -46.000   9.817  1.00  0.00    -0.273 N 
HETATM   11  C   UNL     1     -40.971 -46.727  10.772  1.00  0.00     0.280 A 
HETATM   12  O   UNL     1     -39.783 -46.537  11.011  1.00  0.00    -0.265 OA
HETATM   13  C   UNL     1     -41.795 -47.694  11.413  1.00  0.00     0.164 A 
HETATM   14  H   UNL     1     -41.124 -45.278   9.345  1.00  0.00     0.173 HD
ENDROOT
BRANCH   2  15
HETATM   15  N   UNL     1     -42.881 -50.344  13.502  1.00  0.00    -0.217 N 
HETATM   16  C   UNL     1     -42.234 -51.647  13.402  1.00  0.00     0.145 C 
HETATM   17  C   UNL     1     -43.262 -52.786  13.418  1.00  0.00     0.000 C 
HETATM   18  C   UNL     1     -42.556 -54.141  13.422  1.00  0.00     0.011 C 
HETATM   19  C   UNL     1     -44.200 -52.664  14.622  1.00  0.00     0.011 C 
HETATM   20  C   UNL     1     -44.867 -51.284  14.647  1.00  0.00     0.000 C 
HETATM   21  C   UNL     1     -45.768 -51.164  15.876  1.00  0.00     0.011 C 
HETATM   22  C   UNL     1     -43.811 -50.167  14.624  1.00  0.00     0.145 C 
ENDBRANCH   2  15
BRANCH   1  23
HETATM   23  C   UNL     1     -40.517 -48.324  13.465  1.00  0.00     0.174 C 
BRANCH  23  24
HETATM   24  C   UNL     1     -39.380 -49.338  13.320  1.00  0.00     0.187 C 
BRANCH  24  25
HETATM   25  O   UNL     1     -39.207 -49.677  11.943  1.00  0.00    -0.394 OA
HETATM   26  C   UNL     1     -37.832 -49.825  11.615  1.00  0.00     0.201 C 
ENDBRANCH  24  25
ENDBRANCH  23  24
ENDBRANCH   1  23
TORSDOF 4
ENDMDL
MODEL 3
REMARK VINA RESULT:      -6.5      2.330      5.289
REMARK  4 active torsions:
REMARK  status: ('A' for Active; 'I' for Inactive)
REMARK    1  A    between atoms: O_2  and  C_3 
REMARK    2  A    between atoms: C_3  and  C_4 
REMARK    3  A    between atoms: C_4  and  N_5 
REMARK    4  A    between atoms: C_6  and  N_18 
ROOT
HETATM    1  N   UNL     1     -41.798 -51.174  13.326  1.00  0.00    -0.172 N 
HETATM    2  C   UNL     1     -43.178 -51.062  13.477  1.00  0.00     0.685 C 
HETATM    3  N   UNL     1     -43.607 -49.972  12.855  1.00  0.00    -0.174 N 
ATOM      4  HN  UNL     1     -44.556 -49.597  12.860  1.00  0.00     0.186 HD
HETATM    5  C   UNL     1     -42.531 -49.456  12.214  1.00  0.00     0.160 A 
HETATM    6  N   UNL     1     -42.492 -48.308  11.444  1.00  0.00    -0.287 N 
HETATM    7  C   UNL     1     -43.658 -47.482  11.221  1.00  0.00     0.163 C 
HETATM    8  C   UNL     1     -41.279 -47.908  10.894  1.00  0.00     0.330 A 
HETATM    9  O   UNL     1     -41.136 -46.885  10.222  1.00  0.00    -0.246 OA
HETATM   10  N   UNL     1     -40.186 -48.718  11.120  1.00  0.00    -0.273 N 
HETATM   11  C   UNL     1     -40.169 -49.911  11.804  1.00  0.00     0.280 A 
HETATM   12  O   UNL     1     -39.165 -50.614  11.850  1.00  0.00    -0.265 OA
HETATM   13  C   UNL     1     -41.417 -50.218  12.415  1.00  0.00     0.164 A 
HETATM   14  H   UNL     1     -39.325 -48.428  10.688  1.00  0.00     0.173 HD
ENDROOT
BRANCH   2  15
HETATM   15  N   UNL     1     -43.972 -51.907  14.198  1.00  0.00    -0.217 N 
HETATM   16  C   UNL     1     -44.023 -53.355  14.032  1.00  0.00     0.145 C 
HETATM   17  C   UNL     1     -45.453 -53.838  13.754  1.00  0.00     0.000 C 
HETATM   18  C   UNL     1     -45.497 -55.365  13.691  1.00  0.00     0.011 C 
HETATM   19  C   UNL     1     -46.426 -53.314  14.812  1.00  0.00     0.011 C 
HETATM   20  C   UNL     1     -46.342 -51.786  14.911  1.00  0.00     0.000 C 
HETATM   21  C   UNL     1     -47.291 -51.283  15.999  1.00  0.00     0.011 C 
HETATM   22  C   UNL     1     -44.898 -51.336  15.184  1.00  0.00     0.145 C 
ENDBRANCH   2  15
BRANCH   1  23
HETATM   23  C   UNL     1     -40.867 -52.009  14.067  1.00  0.00     0.174 C 
BRANCH  23  24
HETATM   24  C   UNL     1     -40.479 -53.319  13.379  1.00  0.00     0.187 C 
BRANCH  24  25
HETATM   25  O   UNL     1     -39.118 -53.636  13.674  1.00  0.00    -0.394 OA
HETATM   26  C   UNL     1     -39.024 -54.598  14.717  1.00  0.00     0.201 C 
ENDBRANCH  24  25
ENDBRANCH  23  24
ENDBRANCH   1  23
TORSDOF 4
ENDMDL
MODEL 4
REMARK VINA RESULT:      -6.4      3.113      6.026
REMARK  4 active torsions:
REMARK  status: ('A' for Active; 'I' for Inactive)
REMARK    1  A    between atoms: O_2  and  C_3 
REMARK    2  A    between atoms: C_3  and  C_4 
REMARK    3  A    between atoms: C_4  and  N_5 
REMARK    4  A    between atoms: C_6  and  N_18 
ROOT
HETATM    1  N   UNL     1     -41.306 -50.446  12.348  1.00  0.00    -0.172 N 
HETATM    2  C   UNL     1     -42.121 -49.378  12.716  1.00  0.00     0.685 C 
HETATM    3  N   UNL     1     -43.360 -49.809  12.907  1.00  0.00    -0.174 N 
ATOM      4  HN  UNL     1     -44.182 -49.241  13.109  1.00  0.00     0.186 HD
HETATM    5  C   UNL     1     -43.314 -51.158  12.779  1.00  0.00     0.160 A 
HETATM    6  N   UNL     1     -44.373 -52.040  12.882  1.00  0.00    -0.287 N 
HETATM    7  C   UNL     1     -45.725 -51.604  13.155  1.00  0.00     0.163 C 
HETATM    8  C   UNL     1     -44.141 -53.396  12.677  1.00  0.00     0.330 A 
HETATM    9  O   UNL     1     -45.023 -54.256  12.715  1.00  0.00    -0.246 OA
HETATM   10  N   UNL     1     -42.842 -53.782  12.423  1.00  0.00    -0.273 N 
HETATM   11  C   UNL     1     -41.730 -52.973  12.388  1.00  0.00     0.280 A 
HETATM   12  O   UNL     1     -40.600 -53.433  12.267  1.00  0.00    -0.265 OA
HETATM   13  C   UNL     1     -42.047 -51.591  12.516  1.00  0.00     0.164 A 
HETATM   14  H   UNL     1     -42.689 -54.770  12.308  1.00  0.00     0.173 HD
ENDROOT
BRANCH   2  15
HETATM   15  N   UNL     1     -41.729 -48.073  12.814  1.00  0.00    -0.217 N 
HETATM   16  C   UNL     1     -41.800 -47.094  11.736  1.00  0.00     0.145 C 
HETATM   17  C   UNL     1     -40.431 -46.455  11.467  1.00  0.00     0.000 C 
HETATM   18  C   UNL     1     -40.554 -45.357  10.411  1.00  0.00     0.011 C 
HETATM   19  C   UNL     1     -39.821 -45.898  12.755  1.00  0.00     0.011 C 
HETATM   20  C   UNL     1     -39.749 -46.987  13.832  1.00  0.00     0.000 C 
HETATM   21  C   UNL     1     -39.175 -46.404  15.123  1.00  0.00     0.011 C 
HETATM   22  C   UNL     1     -41.133 -47.609  14.072  1.00  0.00     0.145 C 
ENDBRANCH   2  15
BRANCH   1  23
HETATM   23  C   UNL     1     -39.980 -50.415  11.752  1.00  0.00     0.174 C 
BRANCH  23  24
HETATM   24  C   UNL     1     -38.819 -50.510  12.743  1.00  0.00     0.187 C 
BRANCH  24  25
HETATM   25  O   UNL     1     -37.658 -51.017  12.082  1.00  0.00    -0.394 OA
HETATM   26  C   UNL     1     -37.233 -50.146  11.042  1.00  0.00     0.201 C 
ENDBRANCH  24  25
ENDBRANCH  23  24
ENDBRANCH   1  23
TORSDOF 4
ENDMDL
MODEL 5
REMARK VINA RESULT:      -6.3      2.284      4.232
REMARK  4 active torsions:
REMARK  status: ('A' for Active; 'I' for Inactive)
REMARK    1  A    between atoms: O_2  and  C_3 
REMARK    2  A    between atoms: C_3  and  C_4 
REMARK    3  A    between atoms: C_4  and  N_5 
REMARK    4  A    between atoms: C_6  and  N_18 
ROOT
HETATM    1  N   UNL     1     -42.152 -52.299  14.409  1.00  0.00    -0.172 N 
HETATM    2  C   UNL     1     -42.735 -51.045  14.243  1.00  0.00     0.685 C 
HETATM    3  N   UNL     1     -41.789 -50.136  14.051  1.00  0.00    -0.174 N 
ATOM      4  HN  UNL     1     -41.915 -49.127  13.975  1.00  0.00     0.186 HD
HETATM    5  C   UNL     1     -40.620 -50.819  13.976  1.00  0.00     0.160 A 
HETATM    6  N   UNL     1     -39.357 -50.287  13.796  1.00  0.00    -0.287 N 
HETATM    7  C   UNL     1     -39.122 -48.867  13.657  1.00  0.00     0.163 C 
HETATM    8  C   UNL     1     -38.261 -51.145  13.786  1.00  0.00     0.330 A 
HETATM    9  O   UNL     1     -37.096 -50.766  13.665  1.00  0.00    -0.246 OA
HETATM   10  N   UNL     1     -38.516 -52.494  13.917  1.00  0.00    -0.273 N 
HETATM   11  C   UNL     1     -39.749 -53.097  14.017  1.00  0.00     0.280 A 
HETATM   12  O   UNL     1     -39.873 -54.317  14.013  1.00  0.00    -0.265 OA
HETATM   13  C   UNL     1     -40.817 -52.162  14.110  1.00  0.00     0.164 A 
HETATM   14  H   UNL     1     -37.715 -53.101  13.876  1.00  0.00     0.173 HD
ENDROOT
BRANCH   2  15
HETATM   15  N   UNL     1     -44.071 -50.771  14.319  1.00  0.00    -0.217 N 
HETATM   16  C   UNL     1     -44.801 -50.503  15.552  1.00  0.00     0.145 C 
HETATM   17  C   UNL     1     -45.993 -51.455  15.717  1.00  0.00     0.000 C 
HETATM   18  C   UNL     1     -46.805 -51.084  16.958  1.00  0.00     0.011 C 
HETATM   19  C   UNL     1     -46.881 -51.446  14.470  1.00  0.00     0.011 C 
HETATM   20  C   UNL     1     -46.055 -51.765  13.219  1.00  0.00     0.000 C 
HETATM   21  C   UNL     1     -46.948 -51.713  11.979  1.00  0.00     0.011 C 
HETATM   22  C   UNL     1     -44.868 -50.798  13.087  1.00  0.00     0.145 C 
ENDBRANCH   2  15
BRANCH   1  23
HETATM   23  C   UNL     1     -42.747 -53.516  14.937  1.00  0.00     0.174 C 
BRANCH  23  24
HETATM   24  C   UNL     1     -43.451 -54.397  13.904  1.00  0.00     0.187 C 
BRANCH  24  25
HETATM   25  O   UNL     1     -44.386 -55.257  14.558  1.00  0.00    -0.394 OA
HETATM   26  C   UNL     1     -45.628 -55.293  13.867  1.00  0.00     0.201 C 
ENDBRANCH  24  25
ENDBRANCH  23  24
ENDBRANCH   1  23
TORSDOF 4
ENDMDL
MODEL 6
REMARK VINA RESULT:      -6.2      2.851      5.563
REMARK  4 active torsions:
REMARK  status: ('A' for Active; 'I' for Inactive)
REMARK    1  A    between atoms: O_2  and  C_3 
REMARK    2  A    between atoms: C_3  and  C_4 
REMARK    3  A    between atoms: C_4  and  N_5 
REMARK    4  A    between atoms: C_6  and  N_18 
ROOT
HETATM    1  N   UNL     1     -41.627 -50.283  12.010  1.00  0.00    -0.172 N 
HETATM    2  C   UNL     1     -42.700 -49.430  12.257  1.00  0.00     0.685 C 
HETATM    3  N   UNL     1     -43.692 -50.113  12.813  1.00  0.00    -0.174 N 
ATOM      4  HN  UNL     1     -44.626 -49.767  13.033  1.00  0.00     0.186 HD
HETATM    5  C   UNL     1     -43.215 -51.363  13.028  1.00  0.00     0.160 A 
HETATM    6  N   UNL     1     -43.898 -52.431  13.578  1.00  0.00    -0.287 N 
HETATM    7  C   UNL     1     -45.275 -52.334  14.012  1.00  0.00     0.163 C 
HETATM    8  C   UNL     1     -43.254 -53.660  13.684  1.00  0.00     0.330 A 
HETATM    9  O   UNL     1     -43.787 -54.677  14.129  1.00  0.00    -0.246 OA
HETATM   10  N   UNL     1     -41.941 -53.721  13.266  1.00  0.00    -0.273 N 
HETATM   11  C   UNL     1     -41.176 -52.682  12.788  1.00  0.00     0.280 A 
HETATM   12  O   UNL     1     -39.980 -52.817  12.550  1.00  0.00    -0.265 OA
HETATM   13  C   UNL     1     -41.918 -51.479  12.621  1.00  0.00     0.164 A 
HETATM   14  H   UNL     1     -41.482 -54.609  13.379  1.00  0.00     0.173 HD
ENDROOT
BRANCH   2  15
HETATM   15  N   UNL     1     -42.757 -48.105  11.931  1.00  0.00    -0.217 N 
HETATM   16  C   UNL     1     -43.567 -47.541  10.857  1.00  0.00     0.145 C 
HETATM   17  C   UNL     1     -42.710 -46.732   9.874  1.00  0.00     0.000 C 
HETATM   18  C   UNL     1     -43.594 -46.063   8.822  1.00  0.00     0.011 C 
HETATM   19  C   UNL     1     -41.864 -45.690  10.610  1.00  0.00     0.011 C 
HETATM   20  C   UNL     1     -41.018 -46.356  11.701  1.00  0.00     0.000 C 
HETATM   21  C   UNL     1     -40.211 -45.297  12.451  1.00  0.00     0.011 C 
HETATM   22  C   UNL     1     -41.905 -47.161  12.663  1.00  0.00     0.145 C 
ENDBRANCH   2  15
BRANCH   1  23
HETATM   23  C   UNL     1     -40.470 -50.064  11.158  1.00  0.00     0.174 C 
BRANCH  23  24
HETATM   24  C   UNL     1     -39.227 -49.530  11.872  1.00  0.00     0.187 C 
BRANCH  24  25
HETATM   25  O   UNL     1     -38.081 -50.288  11.481  1.00  0.00    -0.394 OA
HETATM   26  C   UNL     1     -37.340 -50.728  12.612  1.00  0.00     0.201 C 
ENDBRANCH  24  25
ENDBRANCH  23  24
ENDBRANCH   1  23
TORSDOF 4
ENDMDL
MODEL 7
REMARK VINA RESULT:      -6.2      2.032      4.105
REMARK  4 active torsions:
REMARK  status: ('A' for Active; 'I' for Inactive)
REMARK    1  A    between atoms: O_2  and  C_3 
REMARK    2  A    between atoms: C_3  and  C_4 
REMARK    3  A    between atoms: C_4  and  N_5 
REMARK    4  A    between atoms: C_6  and  N_18 
ROOT
HETATM    1  N   UNL     1     -41.814 -52.694  14.338  1.00  0.00    -0.172 N 
HETATM    2  C   UNL     1     -42.812 -52.051  13.609  1.00  0.00     0.685 C 
HETATM    3  N   UNL     1     -42.265 -51.143  12.811  1.00  0.00    -0.174 N 
ATOM      4  HN  UNL     1     -42.755 -50.473  12.219  1.00  0.00     0.186 HD
HETATM    5  C   UNL     1     -40.923 -51.287  12.942  1.00  0.00     0.160 A 
HETATM    6  N   UNL     1     -39.943 -50.544  12.311  1.00  0.00    -0.287 N 
HETATM    7  C   UNL     1     -40.249 -49.474  11.387  1.00  0.00     0.163 C 
HETATM    8  C   UNL     1     -38.608 -50.808  12.602  1.00  0.00     0.330 A 
HETATM    9  O   UNL     1     -37.664 -50.182  12.117  1.00  0.00    -0.246 OA
HETATM   10  N   UNL     1     -38.346 -51.837  13.482  1.00  0.00    -0.273 N 
HETATM   11  C   UNL     1     -39.265 -52.666  14.082  1.00  0.00     0.280 A 
HETATM   12  O   UNL     1     -38.921 -53.628  14.761  1.00  0.00    -0.265 OA
HETATM   13  C   UNL     1     -40.610 -52.288  13.813  1.00  0.00     0.164 A 
HETATM   14  H   UNL     1     -37.374 -52.033  13.657  1.00  0.00     0.173 HD
ENDROOT
BRANCH   2  15
HETATM   15  N   UNL     1     -44.154 -52.272  13.727  1.00  0.00    -0.217 N 
HETATM   16  C   UNL     1     -45.062 -52.526  12.615  1.00  0.00     0.145 C 
HETATM   17  C   UNL     1     -46.228 -51.528  12.603  1.00  0.00     0.000 C 
HETATM   18  C   UNL     1     -47.221 -51.881  11.497  1.00  0.00     0.011 C 
HETATM   19  C   UNL     1     -46.929 -51.486  13.963  1.00  0.00     0.011 C 
HETATM   20  C   UNL     1     -45.923 -51.185  15.079  1.00  0.00     0.000 C 
HETATM   21  C   UNL     1     -46.632 -51.186  16.434  1.00  0.00     0.011 C 
HETATM   22  C   UNL     1     -44.767 -52.198  15.059  1.00  0.00     0.145 C 
ENDBRANCH   2  15
BRANCH   1  23
HETATM   23  C   UNL     1     -41.947 -53.520  15.527  1.00  0.00     0.174 C 
BRANCH  23  24
HETATM   24  C   UNL     1     -42.234 -54.999  15.263  1.00  0.00     0.187 C 
BRANCH  24  25
HETATM   25  O   UNL     1     -43.227 -55.470  16.174  1.00  0.00    -0.394 OA
HETATM   26  C   UNL     1     -43.079 -54.874  17.457  1.00  0.00     0.201 C 
ENDBRANCH  24  25
ENDBRANCH  23  24
ENDBRANCH   1  23
TORSDOF 4
ENDMDL
MODEL 8
REMARK VINA RESULT:      -6.1      3.000      5.704
REMARK  4 active torsions:
REMARK  status: ('A' for Active; 'I' for Inactive)
REMARK    1  A    between atoms: O_2  and  C_3 
REMARK    2  A    between atoms: C_3  and  C_4 
REMARK    3  A    between atoms: C_4  and  N_5 
REMARK    4  A    between atoms: C_6  and  N_18 
ROOT
HETATM    1  N   UNL     1     -40.349 -50.240  12.022  1.00  0.00    -0.172 N 
HETATM    2  C   UNL     1     -41.515 -49.519  11.774  1.00  0.00     0.685 C 
HETATM    3  N   UNL     1     -42.571 -50.271  12.055  1.00  0.00    -0.174 N 
ATOM      4  HN  UNL     1     -43.551 -50.033  11.900  1.00  0.00     0.186 HD
HETATM    5  C   UNL     1     -42.086 -51.417  12.590  1.00  0.00     0.160 A 
HETATM    6  N   UNL     1     -42.817 -52.508  13.022  1.00  0.00    -0.287 N 
HETATM    7  C   UNL     1     -44.261 -52.554  12.953  1.00  0.00     0.163 C 
HETATM    8  C   UNL     1     -42.140 -53.622  13.508  1.00  0.00     0.330 A 
HETATM    9  O   UNL     1     -42.699 -54.653  13.886  1.00  0.00    -0.246 OA
HETATM   10  N   UNL     1     -40.764 -53.548  13.566  1.00  0.00    -0.273 N 
HETATM   11  C   UNL     1     -39.979 -52.469  13.231  1.00  0.00     0.280 A 
HETATM   12  O   UNL     1     -38.769 -52.464  13.429  1.00  0.00    -0.265 OA
HETATM   13  C   UNL     1     -40.724 -51.398  12.661  1.00  0.00     0.164 A 
HETATM   14  H   UNL     1     -40.294 -54.351  13.949  1.00  0.00     0.173 HD
ENDROOT
BRANCH   2  15
HETATM   15  N   UNL     1     -41.576 -48.253  11.267  1.00  0.00    -0.217 N 
HETATM   16  C   UNL     1     -41.257 -47.038  12.007  1.00  0.00     0.145 C 
HETATM   17  C   UNL     1     -42.425 -46.043  11.984  1.00  0.00     0.000 C 
HETATM   18  C   UNL     1     -42.027 -44.737  12.671  1.00  0.00     0.011 C 
HETATM   19  C   UNL     1     -42.893 -45.777  10.551  1.00  0.00     0.011 C 
HETATM   20  C   UNL     1     -43.241 -47.092   9.845  1.00  0.00     0.000 C 
HETATM   21  C   UNL     1     -43.667 -46.812   8.404  1.00  0.00     0.011 C 
HETATM   22  C   UNL     1     -42.053 -48.066   9.891  1.00  0.00     0.145 C 
ENDBRANCH   2  15
BRANCH   1  23
HETATM   23  C   UNL     1     -38.993 -49.954  11.584  1.00  0.00     0.174 C 
BRANCH  23  24
HETATM   24  C   UNL     1     -38.147 -49.148  12.572  1.00  0.00     0.187 C 
BRANCH  24  25
HETATM   25  O   UNL     1     -38.875 -48.951  13.785  1.00  0.00    -0.394 OA
HETATM   26  C   UNL     1     -38.491 -47.744  14.429  1.00  0.00     0.201 C 
ENDBRANCH  24  25
ENDBRANCH  23  24
ENDBRANCH   1  23
TORSDOF 4
ENDMDL
MODEL 9
REMARK VINA RESULT:      -6.1      2.729      5.639
REMARK  4 active torsions:
REMARK  status: ('A' for Active; 'I' for Inactive)
REMARK    1  A    between atoms: O_2  and  C_3 
REMARK    2  A    between atoms: C_3  and  C_4 
REMARK    3  A    between atoms: C_4  and  N_5 
REMARK    4  A    between atoms: C_6  and  N_18 
ROOT
HETATM    1  N   UNL     1     -41.757 -51.215  12.404  1.00  0.00    -0.172 N 
HETATM    2  C   UNL     1     -42.588 -50.107  12.548  1.00  0.00     0.685 C 
HETATM    3  N   UNL     1     -43.835 -50.510  12.756  1.00  0.00    -0.174 N 
ATOM      4  HN  UNL     1     -44.666 -49.922  12.823  1.00  0.00     0.186 HD
HETATM    5  C   UNL     1     -43.781 -51.860  12.862  1.00  0.00     0.160 A 
HETATM    6  N   UNL     1     -44.843 -52.721  13.067  1.00  0.00    -0.287 N 
HETATM    7  C   UNL     1     -46.206 -52.257  13.203  1.00  0.00     0.163 C 
HETATM    8  C   UNL     1     -44.601 -54.090  13.107  1.00  0.00     0.330 A 
HETATM    9  O   UNL     1     -45.482 -54.938  13.253  1.00  0.00    -0.246 OA
HETATM   10  N   UNL     1     -43.291 -54.503  12.979  1.00  0.00    -0.273 N 
HETATM   11  C   UNL     1     -42.180 -53.701  12.855  1.00  0.00     0.280 A 
HETATM   12  O   UNL     1     -41.044 -54.165  12.863  1.00  0.00    -0.265 OA
HETATM   13  C   UNL     1     -42.504 -52.321  12.732  1.00  0.00     0.164 A 
HETATM   14  H   UNL     1     -43.131 -55.494  13.041  1.00  0.00     0.173 HD
ENDROOT
BRANCH   2  15
HETATM   15  N   UNL     1     -42.203 -48.801  12.440  1.00  0.00    -0.217 N 
HETATM   16  C   UNL     1     -41.859 -47.934  13.560  1.00  0.00     0.145 C 
HETATM   17  C   UNL     1     -42.707 -46.655  13.561  1.00  0.00     0.000 C 
HETATM   18  C   UNL     1     -42.253 -45.715  14.678  1.00  0.00     0.011 C 
HETATM   19  C   UNL     1     -42.641 -45.950  12.204  1.00  0.00     0.011 C 
HETATM   20  C   UNL     1     -43.044 -46.909  11.079  1.00  0.00     0.000 C 
HETATM   21  C   UNL     1     -42.935 -46.202   9.728  1.00  0.00     0.011 C 
HETATM   22  C   UNL     1     -42.181 -48.180  11.110  1.00  0.00     0.145 C 
ENDBRANCH   2  15
BRANCH   1  23
HETATM   23  C   UNL     1     -40.406 -51.273  11.869  1.00  0.00     0.174 C 
BRANCH  23  24
HETATM   24  C   UNL     1     -39.305 -50.831  12.835  1.00  0.00     0.187 C 
BRANCH  24  25
HETATM   25  O   UNL     1     -38.600 -51.975  13.322  1.00  0.00    -0.394 OA
HETATM   26  C   UNL     1     -38.875 -52.205  14.697  1.00  0.00     0.201 C 
ENDBRANCH  24  25
ENDBRANCH  23  24
ENDBRANCH   1  23
TORSDOF 4
ENDMDL
