MODEL 1
REMARK VINA RESULT:      -5.9      0.000      0.000
REMARK  5 active torsions:
REMARK  status: ('A' for Active; 'I' for Inactive)
REMARK    1  A    between atoms: C_2  and  O_3 
REMARK    2  A    between atoms: O_3  and  C_4 
REMARK    3  A    between atoms: C_4  and  C_5 
REMARK    4  A    between atoms: C_5  and  N_6 
REMARK    5  A    between atoms: C_7  and  N_19 
ROOT
HETATM    1  N   UNL     1     -40.680 -49.461  13.125  1.00  0.00    -0.172 N 
HETATM    2  C   UNL     1     -41.520 -50.337  12.448  1.00  0.00     0.684 A 
HETATM    3  N   UNL     1     -42.114 -49.719  11.439  1.00  0.00    -0.174 N 
ATOM      4  HN  UNL     1     -42.826 -50.097  10.815  1.00  0.00     0.186 HD
HETATM    5  C   UNL     1     -41.571 -48.469  11.413  1.00  0.00     0.160 A 
HETATM    6  N   UNL     1     -41.856 -47.451  10.523  1.00  0.00    -0.287 N 
HETATM    7  C   UNL     1     -42.795 -47.602   9.434  1.00  0.00     0.163 C 
HETATM    8  C   UNL     1     -41.210 -46.227  10.672  1.00  0.00     0.330 C 
HETATM    9  O   UNL     1     -41.396 -45.261   9.931  1.00  0.00    -0.246 OA
HETATM   10  N   UNL     1     -40.300 -46.111  11.702  1.00  0.00    -0.273 N 
HETATM   11  C   UNL     1     -39.889 -47.108  12.554  1.00  0.00     0.280 C 
HETATM   12  O   UNL     1     -38.954 -46.951  13.332  1.00  0.00    -0.265 OA
HETATM   13  C   UNL     1     -40.642 -48.301  12.400  1.00  0.00     0.164 A 
HETATM   14  H   UNL     1     -39.812 -45.232  11.764  1.00  0.00     0.173 HD
ENDROOT
BRANCH   2  15
HETATM   15  N   UNL     1     -41.706 -51.612  12.884  1.00  0.00    -0.217 N 
HETATM   16  C   UNL     1     -43.052 -51.983  13.339  1.00  0.00     0.141 C 
HETATM   17  C   UNL     1     -42.922 -53.158  14.317  1.00  0.00     0.020 C 
HETATM   18  C   UNL     1     -42.166 -54.333  13.692  1.00  0.00     0.003 C 
HETATM   19  C   UNL     1     -40.834 -53.877  13.098  1.00  0.00     0.020 C 
HETATM   20  C   UNL     1     -41.040 -52.696  12.146  1.00  0.00     0.141 C 
ENDBRANCH   2  15
BRANCH   1  21
HETATM   21  C   UNL     1     -40.009 -49.695  14.392  1.00  0.00     0.174 C 
BRANCH  21  22
HETATM   22  C   UNL     1     -38.804 -50.632  14.322  1.00  0.00     0.188 C 
BRANCH  22  23
HETATM   23  O   UNL     1     -37.756 -50.026  13.566  1.00  0.00    -0.390 OA
BRANCH  23  24
HETATM   24  C   UNL     1     -37.410 -50.813  12.430  1.00  0.00     0.163 C 
HETATM   25  C   UNL     1     -37.432 -49.921  11.207  1.00  0.00     0.033 C 
ENDBRANCH  23  24
ENDBRANCH  22  23
ENDBRANCH  21  22
ENDBRANCH   1  21
TORSDOF 5
ENDMDL
MODEL 2
REMARK VINA RESULT:      -5.9      3.578      6.720
REMARK  5 active torsions:
REMARK  status: ('A' for Active; 'I' for Inactive)
REMARK    1  A    between atoms: C_2  and  O_3 
REMARK    2  A    between atoms: O_3  and  C_4 
REMARK    3  A    between atoms: C_4  and  C_5 
REMARK    4  A    between atoms: C_5  and  N_6 
REMARK    5  A    between atoms: C_7  and  N_19 
ROOT
HETATM    1  N   UNL     1     -41.667 -53.336  13.799  1.00  0.00    -0.172 N 
HETATM    2  C   UNL     1     -42.837 -53.562  14.513  1.00  0.00     0.684 A 
HETATM    3  N   UNL     1     -42.633 -54.466  15.458  1.00  0.00    -0.174 N 
ATOM      4  HN  UNL     1     -43.326 -54.870  16.088  1.00  0.00     0.186 HD
HETATM    5  C   UNL     1     -41.299 -54.741  15.411  1.00  0.00     0.160 A 
HETATM    6  N   UNL     1     -40.596 -55.614  16.218  1.00  0.00    -0.287 N 
HETATM    7  C   UNL     1     -41.214 -56.364  17.289  1.00  0.00     0.163 C 
HETATM    8  C   UNL     1     -39.230 -55.779  16.002  1.00  0.00     0.330 C 
HETATM    9  O   UNL     1     -38.518 -56.532  16.667  1.00  0.00    -0.246 OA
HETATM   10  N   UNL     1     -38.654 -55.037  14.992  1.00  0.00    -0.273 N 
HETATM   11  C   UNL     1     -39.266 -54.076  14.225  1.00  0.00     0.280 C 
HETATM   12  O   UNL     1     -38.632 -53.352  13.464  1.00  0.00    -0.265 OA
HETATM   13  C   UNL     1     -40.668 -54.016  14.441  1.00  0.00     0.164 A 
HETATM   14  H   UNL     1     -37.658 -55.138  14.882  1.00  0.00     0.173 HD
ENDROOT
BRANCH   2  15
HETATM   15  N   UNL     1     -44.003 -52.955  14.163  1.00  0.00    -0.217 N 
HETATM   16  C   UNL     1     -44.898 -53.680  13.253  1.00  0.00     0.141 C 
HETATM   17  C   UNL     1     -45.775 -52.655  12.522  1.00  0.00     0.020 C 
HETATM   18  C   UNL     1     -46.532 -51.757  13.503  1.00  0.00     0.003 C 
HETATM   19  C   UNL     1     -45.583 -51.137  14.527  1.00  0.00     0.020 C 
HETATM   20  C   UNL     1     -44.734 -52.215  15.203  1.00  0.00     0.141 C 
ENDBRANCH   2  15
BRANCH   1  21
HETATM   21  C   UNL     1     -41.524 -52.573  12.571  1.00  0.00     0.174 C 
BRANCH  21  22
HETATM   22  C   UNL     1     -41.155 -51.102  12.763  1.00  0.00     0.188 C 
BRANCH  22  23
HETATM   23  O   UNL     1     -40.125 -50.733  11.846  1.00  0.00    -0.390 OA
BRANCH  23  24
HETATM   24  C   UNL     1     -39.106 -49.971  12.487  1.00  0.00     0.163 C 
HETATM   25  C   UNL     1     -37.871 -49.995  11.612  1.00  0.00     0.033 C 
ENDBRANCH  23  24
ENDBRANCH  22  23
ENDBRANCH  21  22
ENDBRANCH   1  21
TORSDOF 5
ENDMDL
MODEL 3
REMARK VINA RESULT:      -5.7      2.205      3.394
REMARK  5 active torsions:
REMARK  status: ('A' for Active; 'I' for Inactive)
REMARK    1  A    between atoms: C_2  and  O_3 
REMARK    2  A    between atoms: O_3  and  C_4 
REMARK    3  A    between atoms: C_4  and  C_5 
REMARK    4  A    between atoms: C_5  and  N_6 
REMARK    5  A    between atoms: C_7  and  N_19 
ROOT
HETATM    1  N   UNL     1     -41.919 -51.720  13.157  1.00  0.00    -0.172 N 
HETATM    2  C   UNL     1     -43.298 -51.558  13.106  1.00  0.00     0.684 A 
HETATM    3  N   UNL     1     -43.605 -50.393  12.560  1.00  0.00    -0.174 N 
ATOM      4  HN  UNL     1     -44.534 -49.985  12.454  1.00  0.00     0.186 HD
HETATM    5  C   UNL     1     -42.417 -49.854  12.168  1.00  0.00     0.160 A 
HETATM    6  N   UNL     1     -42.215 -48.647  11.527  1.00  0.00    -0.287 N 
HETATM    7  C   UNL     1     -43.301 -47.770  11.147  1.00  0.00     0.163 C 
HETATM    8  C   UNL     1     -40.914 -48.253  11.224  1.00  0.00     0.330 C 
HETATM    9  O   UNL     1     -40.633 -47.198  10.657  1.00  0.00    -0.246 OA
HETATM   10  N   UNL     1     -39.895 -49.114  11.574  1.00  0.00    -0.273 N 
HETATM   11  C   UNL     1     -40.027 -50.371  12.112  1.00  0.00     0.280 C 
HETATM   12  O   UNL     1     -39.069 -51.127  12.235  1.00  0.00    -0.265 OA
HETATM   13  C   UNL     1     -41.367 -50.674  12.467  1.00  0.00     0.164 A 
HETATM   14  H   UNL     1     -38.966 -48.831  11.306  1.00  0.00     0.173 HD
ENDROOT
BRANCH   2  15
HETATM   15  N   UNL     1     -44.135 -52.486  13.644  1.00  0.00    -0.217 N 
HETATM   16  C   UNL     1     -45.133 -52.017  14.615  1.00  0.00     0.141 C 
HETATM   17  C   UNL     1     -45.516 -53.196  15.518  1.00  0.00     0.020 C 
HETATM   18  C   UNL     1     -46.003 -54.397  14.705  1.00  0.00     0.003 C 
HETATM   19  C   UNL     1     -45.004 -54.761  13.608  1.00  0.00     0.020 C 
HETATM   20  C   UNL     1     -44.659 -53.536  12.759  1.00  0.00     0.141 C 
ENDBRANCH   2  15
BRANCH   1  21
HETATM   21  C   UNL     1     -41.184 -52.761  13.855  1.00  0.00     0.174 C 
BRANCH  21  22
HETATM   22  C   UNL     1     -40.878 -54.005  13.022  1.00  0.00     0.188 C 
BRANCH  22  23
HETATM   23  O   UNL     1     -39.537 -54.434  13.259  1.00  0.00    -0.390 OA
BRANCH  23  24
HETATM   24  C   UNL     1     -39.071 -54.009  14.536  1.00  0.00     0.163 C 
HETATM   25  C   UNL     1     -38.855 -55.235  15.398  1.00  0.00     0.033 C 
ENDBRANCH  23  24
ENDBRANCH  22  23
ENDBRANCH  21  22
ENDBRANCH   1  21
TORSDOF 5
ENDMDL
MODEL 4
REMARK VINA RESULT:      -5.4      2.694      5.675
REMARK  5 active torsions:
REMARK  status: ('A' for Active; 'I' for Inactive)
REMARK    1  A    between atoms: C_2  and  O_3 
REMARK    2  A    between atoms: O_3  and  C_4 
REMARK    3  A    between atoms: C_4  and  C_5 
REMARK    4  A    between atoms: C_5  and  N_6 
REMARK    5  A    between atoms: C_7  and  N_19 
ROOT
HETATM    1  N   UNL     1     -41.556 -51.203  12.503  1.00  0.00    -0.172 N 
HETATM    2  C   UNL     1     -42.345 -50.061  12.526  1.00  0.00     0.684 A 
HETATM    3  N   UNL     1     -43.624 -50.387  12.620  1.00  0.00    -0.174 N 
ATOM      4  HN  UNL     1     -44.427 -49.758  12.594  1.00  0.00     0.186 HD
HETATM    5  C   UNL     1     -43.641 -51.742  12.760  1.00  0.00     0.160 A 
HETATM    6  N   UNL     1     -44.748 -52.554  12.913  1.00  0.00    -0.287 N 
HETATM    7  C   UNL     1     -46.097 -52.037  12.976  1.00  0.00     0.163 C 
HETATM    8  C   UNL     1     -44.565 -53.930  13.020  1.00  0.00     0.330 C 
HETATM    9  O   UNL     1     -45.486 -54.735  13.158  1.00  0.00    -0.246 OA
HETATM   10  N   UNL     1     -43.269 -54.401  12.981  1.00  0.00    -0.273 N 
HETATM   11  C   UNL     1     -42.120 -53.649  12.939  1.00  0.00     0.280 C 
HETATM   12  O   UNL     1     -41.010 -54.152  13.075  1.00  0.00    -0.265 OA
HETATM   13  C   UNL     1     -42.381 -52.266  12.752  1.00  0.00     0.164 A 
HETATM   14  H   UNL     1     -43.156 -55.395  13.105  1.00  0.00     0.173 HD
ENDROOT
BRANCH   2  15
HETATM   15  N   UNL     1     -41.797 -48.824  12.383  1.00  0.00    -0.217 N 
HETATM   16  C   UNL     1     -42.203 -48.034  11.213  1.00  0.00     0.141 C 
HETATM   17  C   UNL     1     -41.087 -47.028  10.903  1.00  0.00     0.020 C 
HETATM   18  C   UNL     1     -40.758 -46.156  12.116  1.00  0.00     0.003 C 
HETATM   19  C   UNL     1     -40.487 -47.013  13.352  1.00  0.00     0.020 C 
HETATM   20  C   UNL     1     -41.632 -48.000  13.590  1.00  0.00     0.141 C 
ENDBRANCH   2  15
BRANCH   1  21
HETATM   21  C   UNL     1     -40.134 -51.279  12.213  1.00  0.00     0.174 C 
BRANCH  21  22
HETATM   22  C   UNL     1     -39.216 -51.003  13.403  1.00  0.00     0.188 C 
BRANCH  22  23
HETATM   23  O   UNL     1     -38.148 -50.143  13.007  1.00  0.00    -0.390 OA
BRANCH  23  24
HETATM   24  C   UNL     1     -38.355 -49.623  11.697  1.00  0.00     0.163 C 
HETATM   25  C   UNL     1     -37.151 -49.974  10.849  1.00  0.00     0.033 C 
ENDBRANCH  23  24
ENDBRANCH  22  23
ENDBRANCH  21  22
ENDBRANCH   1  21
TORSDOF 5
ENDMDL
MODEL 5
REMARK VINA RESULT:      -5.4      1.982      2.548
REMARK  5 active torsions:
REMARK  status: ('A' for Active; 'I' for Inactive)
REMARK    1  A    between atoms: C_2  and  O_3 
REMARK    2  A    between atoms: O_3  and  C_4 
REMARK    3  A    between atoms: C_4  and  C_5 
REMARK    4  A    between atoms: C_5  and  N_6 
REMARK    5  A    between atoms: C_7  and  N_19 
ROOT
HETATM    1  N   UNL     1     -41.635 -47.893  12.633  1.00  0.00    -0.172 N 
HETATM    2  C   UNL     1     -41.620 -49.078  11.908  1.00  0.00     0.684 A 
HETATM    3  N   UNL     1     -42.197 -48.905  10.730  1.00  0.00    -0.174 N 
ATOM      4  HN  UNL     1     -42.383 -49.615  10.022  1.00  0.00     0.186 HD
HETATM    5  C   UNL     1     -42.490 -47.576  10.665  1.00  0.00     0.160 A 
HETATM    6  N   UNL     1     -43.086 -46.901   9.617  1.00  0.00    -0.287 N 
HETATM    7  C   UNL     1     -43.469 -47.549   8.383  1.00  0.00     0.163 C 
HETATM    8  C   UNL     1     -43.326 -45.535   9.746  1.00  0.00     0.330 C 
HETATM    9  O   UNL     1     -43.851 -44.847   8.870  1.00  0.00    -0.246 OA
HETATM   10  N   UNL     1     -42.933 -44.931  10.922  1.00  0.00    -0.273 N 
HETATM   11  C   UNL     1     -42.242 -45.514  11.956  1.00  0.00     0.280 C 
HETATM   12  O   UNL     1     -41.791 -44.855  12.887  1.00  0.00    -0.265 OA
HETATM   13  C   UNL     1     -42.102 -46.917  11.796  1.00  0.00     0.164 A 
HETATM   14  H   UNL     1     -43.075 -43.935  10.976  1.00  0.00     0.173 HD
ENDROOT
BRANCH   2  15
HETATM   15  N   UNL     1     -41.133 -50.228  12.449  1.00  0.00    -0.217 N 
HETATM   16  C   UNL     1     -42.015 -51.402  12.453  1.00  0.00     0.141 C 
HETATM   17  C   UNL     1     -41.571 -52.333  13.589  1.00  0.00     0.020 C 
HETATM   18  C   UNL     1     -40.092 -52.707  13.468  1.00  0.00     0.003 C 
HETATM   19  C   UNL     1     -39.220 -51.461  13.317  1.00  0.00     0.020 C 
HETATM   20  C   UNL     1     -39.730 -50.576  12.178  1.00  0.00     0.141 C 
ENDBRANCH   2  15
BRANCH   1  21
HETATM   21  C   UNL     1     -41.282 -47.718  14.032  1.00  0.00     0.174 C 
BRANCH  21  22
HETATM   22  C   UNL     1     -39.801 -47.450  14.296  1.00  0.00     0.188 C 
BRANCH  22  23
HETATM   23  O   UNL     1     -39.267 -48.461  15.151  1.00  0.00    -0.390 OA
BRANCH  23  24
HETATM   24  C   UNL     1     -38.020 -48.062  15.713  1.00  0.00     0.163 C 
HETATM   25  C   UNL     1     -37.093 -47.663  14.584  1.00  0.00     0.033 C 
ENDBRANCH  23  24
ENDBRANCH  22  23
ENDBRANCH  21  22
ENDBRANCH   1  21
TORSDOF 5
ENDMDL
MODEL 6
REMARK VINA RESULT:      -5.1      1.772      2.346
REMARK  5 active torsions:
REMARK  status: ('A' for Active; 'I' for Inactive)
REMARK    1  A    between atoms: C_2  and  O_3 
REMARK    2  A    between atoms: O_3  and  C_4 
REMARK    3  A    between atoms: C_4  and  C_5 
REMARK    4  A    between atoms: C_5  and  N_6 
REMARK    5  A    between atoms: C_7  and  N_19 
ROOT
HETATM    1  N   UNL     1     -41.058 -51.144  12.686  1.00  0.00    -0.172 N 
HETATM    2  C   UNL     1     -42.440 -51.210  12.809  1.00  0.00     0.684 A 
HETATM    3  N   UNL     1     -42.993 -50.072  12.421  1.00  0.00    -0.174 N 
ATOM      4  HN  UNL     1     -43.979 -49.816  12.463  1.00  0.00     0.186 HD
HETATM    5  C   UNL     1     -41.962 -49.314  11.951  1.00  0.00     0.160 A 
HETATM    6  N   UNL     1     -42.035 -48.042  11.415  1.00  0.00    -0.287 N 
HETATM    7  C   UNL     1     -43.282 -47.330  11.252  1.00  0.00     0.163 C 
HETATM    8  C   UNL     1     -40.860 -47.415  11.007  1.00  0.00     0.330 C 
HETATM    9  O   UNL     1     -40.822 -46.286  10.519  1.00  0.00    -0.246 OA
HETATM   10  N   UNL     1     -39.683 -48.120  11.150  1.00  0.00    -0.273 N 
HETATM   11  C   UNL     1     -39.548 -49.421  11.572  1.00  0.00     0.280 C 
HETATM   12  O   UNL     1     -38.477 -50.015  11.508  1.00  0.00    -0.265 OA
HETATM   13  C   UNL     1     -40.768 -49.970  12.045  1.00  0.00     0.164 A 
HETATM   14  H   UNL     1     -38.852 -47.666  10.808  1.00  0.00     0.173 HD
ENDROOT
BRANCH   2  15
HETATM   15  N   UNL     1     -43.048 -52.304  13.344  1.00  0.00    -0.217 N 
HETATM   16  C   UNL     1     -43.351 -52.276  14.781  1.00  0.00     0.141 C 
HETATM   17  C   UNL     1     -43.432 -53.723  15.283  1.00  0.00     0.020 C 
HETATM   18  C   UNL     1     -44.444 -54.545  14.482  1.00  0.00     0.003 C 
HETATM   19  C   UNL     1     -44.184 -54.428  12.981  1.00  0.00     0.020 C 
HETATM   20  C   UNL     1     -44.102 -52.960  12.556  1.00  0.00     0.141 C 
ENDBRANCH   2  15
BRANCH   1  21
HETATM   21  C   UNL     1     -40.087 -52.102  13.188  1.00  0.00     0.174 C 
BRANCH  21  22
HETATM   22  C   UNL     1     -39.356 -51.674  14.459  1.00  0.00     0.188 C 
BRANCH  22  23
HETATM   23  O   UNL     1     -40.191 -50.820  15.241  1.00  0.00    -0.390 OA
BRANCH  23  24
HETATM   24  C   UNL     1     -39.452 -49.739  15.802  1.00  0.00     0.163 C 
HETATM   25  C   UNL     1     -38.135 -49.627  15.063  1.00  0.00     0.033 C 
ENDBRANCH  23  24
ENDBRANCH  22  23
ENDBRANCH  21  22
ENDBRANCH   1  21
TORSDOF 5
ENDMDL
MODEL 7
REMARK VINA RESULT:      -5.0      2.073      4.396
REMARK  5 active torsions:
REMARK  status: ('A' for Active; 'I' for Inactive)
REMARK    1  A    between atoms: C_2  and  O_3 
REMARK    2  A    between atoms: O_3  and  C_4 
REMARK    3  A    between atoms: C_4  and  C_5 
REMARK    4  A    between atoms: C_5  and  N_6 
REMARK    5  A    between atoms: C_7  and  N_19 
ROOT
HETATM    1  N   UNL     1     -41.165 -48.248  11.620  1.00  0.00    -0.172 N 
HETATM    2  C   UNL     1     -39.952 -47.838  12.158  1.00  0.00     0.684 A 
HETATM    3  N   UNL     1     -39.800 -46.532  12.010  1.00  0.00    -0.174 N 
ATOM      4  HN  UNL     1     -38.983 -45.972  12.253  1.00  0.00     0.186 HD
HETATM    5  C   UNL     1     -40.969 -46.093  11.465  1.00  0.00     0.160 A 
HETATM    6  N   UNL     1     -41.305 -44.793  11.139  1.00  0.00    -0.287 N 
HETATM    7  C   UNL     1     -40.422 -43.672  11.374  1.00  0.00     0.163 C 
HETATM    8  C   UNL     1     -42.549 -44.542  10.565  1.00  0.00     0.330 C 
HETATM    9  O   UNL     1     -42.939 -43.421  10.240  1.00  0.00    -0.246 OA
HETATM   10  N   UNL     1     -43.386 -45.622  10.371  1.00  0.00    -0.273 N 
HETATM   11  C   UNL     1     -43.163 -46.918  10.766  1.00  0.00     0.280 C 
HETATM   12  O   UNL     1     -44.037 -47.776  10.698  1.00  0.00    -0.265 OA
HETATM   13  C   UNL     1     -41.851 -47.117  11.269  1.00  0.00     0.164 A 
HETATM   14  H   UNL     1     -44.297 -45.412   9.996  1.00  0.00     0.173 HD
ENDROOT
BRANCH   2  15
HETATM   15  N   UNL     1     -39.070 -48.738  12.672  1.00  0.00    -0.217 N 
HETATM   16  C   UNL     1     -38.068 -49.301  11.758  1.00  0.00     0.141 C 
HETATM   17  C   UNL     1     -37.622 -50.660  12.312  1.00  0.00     0.020 C 
HETATM   18  C   UNL     1     -37.111 -50.545  13.750  1.00  0.00     0.003 C 
HETATM   19  C   UNL     1     -38.121 -49.819  14.637  1.00  0.00     0.020 C 
HETATM   20  C   UNL     1     -38.529 -48.482  14.015  1.00  0.00     0.141 C 
ENDBRANCH   2  15
BRANCH   1  21
HETATM   21  C   UNL     1     -41.611 -49.615  11.407  1.00  0.00     0.174 C 
BRANCH  21  22
HETATM   22  C   UNL     1     -42.283 -50.269  12.613  1.00  0.00     0.188 C 
BRANCH  22  23
HETATM   23  O   UNL     1     -41.776 -51.591  12.798  1.00  0.00    -0.390 OA
BRANCH  23  24
HETATM   24  C   UNL     1     -42.772 -52.574  12.534  1.00  0.00     0.163 C 
HETATM   25  C   UNL     1     -42.387 -53.849  13.254  1.00  0.00     0.033 C 
ENDBRANCH  23  24
ENDBRANCH  22  23
ENDBRANCH  21  22
ENDBRANCH   1  21
TORSDOF 5
ENDMDL
MODEL 8
REMARK VINA RESULT:      -5.0      4.308      6.096
REMARK  5 active torsions:
REMARK  status: ('A' for Active; 'I' for Inactive)
REMARK    1  A    between atoms: C_2  and  O_3 
REMARK    2  A    between atoms: O_3  and  C_4 
REMARK    3  A    between atoms: C_4  and  C_5 
REMARK    4  A    between atoms: C_5  and  N_6 
REMARK    5  A    between atoms: C_7  and  N_19 
ROOT
HETATM    1  N   UNL     1     -40.828 -53.848  14.519  1.00  0.00    -0.172 N 
HETATM    2  C   UNL     1     -41.278 -54.679  15.537  1.00  0.00     0.684 A 
HETATM    3  N   UNL     1     -42.586 -54.853  15.446  1.00  0.00    -0.174 N 
ATOM      4  HN  UNL     1     -43.190 -55.360  16.093  1.00  0.00     0.186 HD
HETATM    5  C   UNL     1     -42.956 -54.210  14.303  1.00  0.00     0.160 A 
HETATM    6  N   UNL     1     -44.226 -54.121  13.766  1.00  0.00    -0.287 N 
HETATM    7  C   UNL     1     -45.378 -54.757  14.367  1.00  0.00     0.163 C 
HETATM    8  C   UNL     1     -44.412 -53.396  12.592  1.00  0.00     0.330 C 
HETATM    9  O   UNL     1     -45.503 -53.259  12.038  1.00  0.00    -0.246 OA
HETATM   10  N   UNL     1     -43.297 -52.816  12.022  1.00  0.00    -0.273 N 
HETATM   11  C   UNL     1     -41.995 -52.952  12.439  1.00  0.00     0.280 C 
HETATM   12  O   UNL     1     -41.055 -52.535  11.772  1.00  0.00    -0.265 OA
HETATM   13  C   UNL     1     -41.888 -53.633  13.679  1.00  0.00     0.164 A 
HETATM   14  H   UNL     1     -43.447 -52.334  11.151  1.00  0.00     0.173 HD
ENDROOT
BRANCH   2  15
HETATM   15  N   UNL     1     -40.429 -55.137  16.497  1.00  0.00    -0.217 N 
HETATM   16  C   UNL     1     -40.250 -54.306  17.695  1.00  0.00     0.141 C 
HETATM   17  C   UNL     1     -38.884 -54.638  18.310  1.00  0.00     0.020 C 
HETATM   18  C   UNL     1     -38.744 -56.133  18.603  1.00  0.00     0.003 C 
HETATM   19  C   UNL     1     -39.083 -56.970  17.370  1.00  0.00     0.020 C 
HETATM   20  C   UNL     1     -40.449 -56.575  16.805  1.00  0.00     0.141 C 
ENDBRANCH   2  15
BRANCH   1  21
HETATM   21  C   UNL     1     -39.505 -53.261  14.387  1.00  0.00     0.174 C 
BRANCH  21  22
HETATM   22  C   UNL     1     -39.381 -51.827  14.898  1.00  0.00     0.188 C 
BRANCH  22  23
HETATM   23  O   UNL     1     -38.306 -51.732  15.833  1.00  0.00    -0.390 OA
BRANCH  23  24
HETATM   24  C   UNL     1     -38.078 -50.383  16.231  1.00  0.00     0.163 C 
HETATM   25  C   UNL     1     -36.609 -50.071  16.040  1.00  0.00     0.033 C 
ENDBRANCH  23  24
ENDBRANCH  22  23
ENDBRANCH  21  22
ENDBRANCH   1  21
TORSDOF 5
ENDMDL
MODEL 9
REMARK VINA RESULT:      -4.9      1.469      2.257
REMARK  5 active torsions:
REMARK  status: ('A' for Active; 'I' for Inactive)
REMARK    1  A    between atoms: C_2  and  O_3 
REMARK    2  A    between atoms: O_3  and  C_4 
REMARK    3  A    between atoms: C_4  and  C_5 
REMARK    4  A    between atoms: C_5  and  N_6 
REMARK    5  A    between atoms: C_7  and  N_19 
ROOT
HETATM    1  N   UNL     1     -41.119 -50.069  12.875  1.00  0.00    -0.172 N 
HETATM    2  C   UNL     1     -42.424 -50.529  12.749  1.00  0.00     0.684 A 
HETATM    3  N   UNL     1     -43.147 -49.674  12.043  1.00  0.00    -0.174 N 
ATOM      4  HN  UNL     1     -44.147 -49.723  11.848  1.00  0.00     0.186 HD
HETATM    5  C   UNL     1     -42.271 -48.715  11.632  1.00  0.00     0.160 A 
HETATM    6  N   UNL     1     -42.546 -47.611  10.848  1.00  0.00    -0.287 N 
HETATM    7  C   UNL     1     -43.861 -47.336  10.314  1.00  0.00     0.163 C 
HETATM    8  C   UNL     1     -41.515 -46.724  10.549  1.00  0.00     0.330 C 
HETATM    9  O   UNL     1     -41.661 -45.714   9.860  1.00  0.00    -0.246 OA
HETATM   10  N   UNL     1     -40.263 -47.016  11.048  1.00  0.00    -0.273 N 
HETATM   11  C   UNL     1     -39.895 -48.144  11.740  1.00  0.00     0.280 C 
HETATM   12  O   UNL     1     -38.722 -48.393  11.998  1.00  0.00    -0.265 OA
HETATM   13  C   UNL     1     -41.004 -48.963  12.077  1.00  0.00     0.164 A 
HETATM   14  H   UNL     1     -39.523 -46.386  10.783  1.00  0.00     0.173 HD
ENDROOT
BRANCH   2  15
HETATM   15  N   UNL     1     -42.831 -51.669  13.369  1.00  0.00    -0.217 N 
HETATM   16  C   UNL     1     -42.503 -52.947  12.721  1.00  0.00     0.141 C 
HETATM   17  C   UNL     1     -43.520 -53.996  13.188  1.00  0.00     0.020 C 
HETATM   18  C   UNL     1     -43.563 -54.103  14.714  1.00  0.00     0.003 C 
HETATM   19  C   UNL     1     -43.757 -52.730  15.356  1.00  0.00     0.020 C 
HETATM   20  C   UNL     1     -42.720 -51.734  14.834  1.00  0.00     0.141 C 
ENDBRANCH   2  15
BRANCH   1  21
HETATM   21  C   UNL     1     -40.078 -50.612  13.731  1.00  0.00     0.174 C 
BRANCH  21  22
HETATM   22  C   UNL     1     -39.035 -51.469  13.016  1.00  0.00     0.188 C 
BRANCH  22  23
HETATM   23  O   UNL     1     -39.210 -52.843  13.361  1.00  0.00    -0.390 OA
BRANCH  23  24
HETATM   24  C   UNL     1     -39.272 -53.022  14.773  1.00  0.00     0.163 C 
HETATM   25  C   UNL     1     -39.839 -54.398  15.055  1.00  0.00     0.033 C 
ENDBRANCH  23  24
ENDBRANCH  22  23
ENDBRANCH  21  22
ENDBRANCH   1  21
TORSDOF 5
ENDMDL
