MODEL 1
REMARK VINA RESULT:      -6.5      0.000      0.000
REMARK  2 active torsions:
REMARK  status: ('A' for Active; 'I' for Inactive)
REMARK    1  A    between atoms: C_5  and  N_11 
REMARK       I    between atoms: N_11  and  C_12 
REMARK       I    between atoms: C_12  and  N_14 
REMARK    2  A    between atoms: N_14  and  C_15 
ROOT
HETATM    1  N   UNL     1     -42.179 -51.057  12.005  1.00  0.00    -0.338 N 
HETATM    2  C   UNL     1     -41.939 -49.704  12.122  1.00  0.00     0.322 C 
HETATM    3  O   UNL     1     -41.706 -49.159  13.193  1.00  0.00    -0.247 OA
HETATM    4  N   UNL     1     -41.918 -49.098  10.889  1.00  0.00    -0.295 N 
HETATM    5  H   UNL     1     -42.847 -51.315  11.291  1.00  0.00     0.164 HD
HETATM    6  H   UNL     1     -41.532 -49.673  10.154  1.00  0.00     0.172 HD
ENDROOT
BRANCH   1   7
HETATM    7  C   UNL     1     -42.027 -51.936  13.161  1.00  0.00     0.091 C 
HETATM    8  C   UNL     1     -40.710 -52.706  13.074  1.00  0.00     0.066 C 
HETATM    9  C   UNL     1     -40.502 -53.648  14.276  1.00  0.00     0.153 C 
HETATM   10  C   UNL     1     -40.098 -52.874  15.546  1.00  0.00     0.048 C 
HETATM   11  C   UNL     1     -39.327 -54.598  13.950  1.00  0.00     0.048 C 
HETATM   12  N   UNL     1     -41.683 -54.500  14.509  1.00  0.00     0.101 N 
HETATM   13  C   UNL     1     -43.011 -53.854  14.514  1.00  0.00     0.153 C 
HETATM   14  H   UNL     1     -41.689 -55.243  13.809  1.00  0.00     0.317 HD
HETATM   15  C   UNL     1     -43.191 -52.923  13.297  1.00  0.00     0.066 C 
HETATM   16  C   UNL     1     -43.291 -53.116  15.837  1.00  0.00     0.048 C 
HETATM   17  C   UNL     1     -44.051 -54.993  14.420  1.00  0.00     0.048 C 
ENDBRANCH   1   7
BRANCH   4  18
HETATM   18  C   UNL     1     -41.572 -47.752  10.735  1.00  0.00     0.108 A 
HETATM   19  C   UNL     1     -42.518 -46.783  10.405  1.00  0.00     0.052 A 
HETATM   20  C   UNL     1     -42.109 -45.451  10.324  1.00  0.00     0.047 A 
HETATM   21  C   UNL     1     -40.788 -45.140  10.599  1.00  0.00     0.131 A 
HETATM   22  F   UNL     1     -40.373 -43.868  10.576  1.00  0.00    -0.205 F 
HETATM   23  C   UNL     1     -39.911 -46.166  10.897  1.00  0.00     0.132 A 
HETATM   24  N   UNL     1     -40.266 -47.475  10.935  1.00  0.00    -0.349 N 
ATOM     25  HN  UNL     1     -39.581 -48.212  11.105  1.00  0.00     0.167 HD
ENDBRANCH   4  18
TORSDOF 2
ENDMDL
MODEL 2
REMARK VINA RESULT:      -6.1      3.130      7.760
REMARK  2 active torsions:
REMARK  status: ('A' for Active; 'I' for Inactive)
REMARK    1  A    between atoms: C_5  and  N_11 
REMARK       I    between atoms: N_11  and  C_12 
REMARK       I    between atoms: C_12  and  N_14 
REMARK    2  A    between atoms: N_14  and  C_15 
ROOT
HETATM    1  N   UNL     1     -40.939 -49.303  10.641  1.00  0.00    -0.338 N 
HETATM    2  C   UNL     1     -41.486 -50.142  11.590  1.00  0.00     0.322 C 
HETATM    3  O   UNL     1     -42.372 -49.790  12.358  1.00  0.00    -0.247 OA
HETATM    4  N   UNL     1     -40.965 -51.409  11.488  1.00  0.00    -0.295 N 
HETATM    5  H   UNL     1     -39.954 -49.444  10.459  1.00  0.00     0.164 HD
HETATM    6  H   UNL     1     -40.758 -51.695  10.542  1.00  0.00     0.172 HD
ENDROOT
BRANCH   1   7
HETATM    7  C   UNL     1     -41.501 -47.974  10.418  1.00  0.00     0.091 C 
HETATM    8  C   UNL     1     -41.392 -47.131  11.688  1.00  0.00     0.066 C 
HETATM    9  C   UNL     1     -41.971 -45.714  11.501  1.00  0.00     0.153 C 
HETATM   10  C   UNL     1     -41.024 -44.813  10.686  1.00  0.00     0.048 C 
HETATM   11  C   UNL     1     -42.107 -45.059  12.894  1.00  0.00     0.048 C 
HETATM   12  N   UNL     1     -43.325 -45.754  10.917  1.00  0.00     0.101 N 
HETATM   13  C   UNL     1     -43.545 -46.619   9.742  1.00  0.00     0.153 C 
HETATM   14  H   UNL     1     -43.984 -46.028  11.648  1.00  0.00     0.317 HD
HETATM   15  C   UNL     1     -42.961 -48.030   9.960  1.00  0.00     0.066 C 
HETATM   16  C   UNL     1     -43.013 -45.982   8.444  1.00  0.00     0.048 C 
HETATM   17  C   UNL     1     -45.077 -46.742   9.571  1.00  0.00     0.048 C 
ENDBRANCH   1   7
BRANCH   4  18
HETATM   18  C   UNL     1     -41.450 -52.469  12.260  1.00  0.00     0.108 A 
HETATM   19  C   UNL     1     -40.628 -53.179  13.134  1.00  0.00     0.052 A 
HETATM   20  C   UNL     1     -41.196 -54.188  13.913  1.00  0.00     0.047 A 
HETATM   21  C   UNL     1     -42.556 -54.428  13.809  1.00  0.00     0.131 A 
HETATM   22  F   UNL     1     -43.141 -55.356  14.575  1.00  0.00    -0.205 F 
HETATM   23  C   UNL     1     -43.293 -53.691  12.900  1.00  0.00     0.132 A 
HETATM   24  N   UNL     1     -42.763 -52.739  12.093  1.00  0.00    -0.349 N 
ATOM     25  HN  UNL     1     -43.326 -52.252  11.396  1.00  0.00     0.167 HD
ENDBRANCH   4  18
TORSDOF 2
ENDMDL
MODEL 3
REMARK VINA RESULT:      -6.1      1.796      2.364
REMARK  2 active torsions:
REMARK  status: ('A' for Active; 'I' for Inactive)
REMARK    1  A    between atoms: C_5  and  N_11 
REMARK       I    between atoms: N_11  and  C_12 
REMARK       I    between atoms: C_12  and  N_14 
REMARK    2  A    between atoms: N_14  and  C_15 
ROOT
HETATM    1  N   UNL     1     -43.429 -50.596  12.459  1.00  0.00    -0.338 N 
HETATM    2  C   UNL     1     -42.918 -49.316  12.427  1.00  0.00     0.322 C 
HETATM    3  O   UNL     1     -42.829 -48.608  13.422  1.00  0.00    -0.247 OA
HETATM    4  N   UNL     1     -42.460 -48.998  11.171  1.00  0.00    -0.295 N 
HETATM    5  H   UNL     1     -43.946 -50.873  11.636  1.00  0.00     0.164 HD
HETATM    6  H   UNL     1     -42.053 -49.775  10.672  1.00  0.00     0.172 HD
ENDROOT
BRANCH   1   7
HETATM    7  C   UNL     1     -43.767 -51.224  13.733  1.00  0.00     0.091 C 
HETATM    8  C   UNL     1     -43.339 -52.691  13.733  1.00  0.00     0.066 C 
HETATM    9  C   UNL     1     -43.674 -53.399  15.061  1.00  0.00     0.153 C 
HETATM   10  C   UNL     1     -42.699 -52.997  16.184  1.00  0.00     0.048 C 
HETATM   11  C   UNL     1     -43.502 -54.921  14.857  1.00  0.00     0.048 C 
HETATM   12  N   UNL     1     -45.078 -53.181  15.454  1.00  0.00     0.101 N 
HETATM   13  C   UNL     1     -45.607 -51.804  15.392  1.00  0.00     0.153 C 
HETATM   14  H   UNL     1     -45.672 -53.780  14.877  1.00  0.00     0.317 HD
HETATM   15  C   UNL     1     -45.262 -51.124  14.051  1.00  0.00     0.066 C 
HETATM   16  C   UNL     1     -45.148 -50.953  16.592  1.00  0.00     0.048 C 
HETATM   17  C   UNL     1     -47.144 -51.921  15.503  1.00  0.00     0.048 C 
ENDBRANCH   1   7
BRANCH   4  18
HETATM   18  C   UNL     1     -41.786 -47.801  10.914  1.00  0.00     0.108 A 
HETATM   19  C   UNL     1     -42.439 -46.687  10.388  1.00  0.00     0.052 A 
HETATM   20  C   UNL     1     -41.712 -45.509  10.210  1.00  0.00     0.047 A 
HETATM   21  C   UNL     1     -40.379 -45.483  10.585  1.00  0.00     0.131 A 
HETATM   22  F   UNL     1     -39.665 -44.357  10.471  1.00  0.00    -0.205 F 
HETATM   23  C   UNL     1     -39.804 -46.640  11.078  1.00  0.00     0.132 A 
HETATM   24  N   UNL     1     -40.470 -47.814  11.216  1.00  0.00    -0.349 N 
ATOM     25  HN  UNL     1     -40.001 -48.662  11.532  1.00  0.00     0.167 HD
ENDBRANCH   4  18
TORSDOF 2
ENDMDL
MODEL 4
REMARK VINA RESULT:      -6.1      4.240      7.210
REMARK  2 active torsions:
REMARK  status: ('A' for Active; 'I' for Inactive)
REMARK    1  A    between atoms: C_5  and  N_11 
REMARK       I    between atoms: N_11  and  C_12 
REMARK       I    between atoms: C_12  and  N_14 
REMARK    2  A    between atoms: N_14  and  C_15 
ROOT
HETATM    1  N   UNL     1     -41.895 -50.372  12.594  1.00  0.00    -0.338 N 
HETATM    2  C   UNL     1     -42.542 -51.453  13.155  1.00  0.00     0.322 C 
HETATM    3  O   UNL     1     -41.979 -52.266  13.876  1.00  0.00    -0.247 OA
HETATM    4  N   UNL     1     -43.885 -51.432  12.860  1.00  0.00    -0.295 N 
HETATM    5  H   UNL     1     -42.218 -50.108  11.673  1.00  0.00     0.164 HD
HETATM    6  H   UNL     1     -44.282 -50.505  12.814  1.00  0.00     0.172 HD
ENDROOT
BRANCH   1   7
HETATM    7  C   UNL     1     -40.513 -50.070  12.956  1.00  0.00     0.091 C 
HETATM    8  C   UNL     1     -40.394 -48.624  13.439  1.00  0.00     0.066 C 
HETATM    9  C   UNL     1     -38.950 -48.257  13.836  1.00  0.00     0.153 C 
HETATM   10  C   UNL     1     -38.561 -48.863  15.198  1.00  0.00     0.048 C 
HETATM   11  C   UNL     1     -38.868 -46.723  14.000  1.00  0.00     0.048 C 
HETATM   12  N   UNL     1     -37.987 -48.623  12.781  1.00  0.00     0.101 N 
HETATM   13  C   UNL     1     -38.090 -49.971  12.188  1.00  0.00     0.153 C 
HETATM   14  H   UNL     1     -38.054 -47.934  12.029  1.00  0.00     0.317 HD
HETATM   15  C   UNL     1     -39.543 -50.307  11.795  1.00  0.00     0.066 C 
HETATM   16  C   UNL     1     -37.486 -51.053  13.103  1.00  0.00     0.048 C 
HETATM   17  C   UNL     1     -37.226 -49.951  10.906  1.00  0.00     0.048 C 
ENDBRANCH   1   7
BRANCH   4  18
HETATM   18  C   UNL     1     -44.775 -52.355  13.417  1.00  0.00     0.108 A 
HETATM   19  C   UNL     1     -45.921 -51.951  14.099  1.00  0.00     0.052 A 
HETATM   20  C   UNL     1     -46.792 -52.930  14.579  1.00  0.00     0.047 A 
HETATM   21  C   UNL     1     -46.499 -54.262  14.338  1.00  0.00     0.131 A 
HETATM   22  F   UNL     1     -47.335 -55.225  14.744  1.00  0.00    -0.205 F 
HETATM   23  C   UNL     1     -45.328 -54.575  13.672  1.00  0.00     0.132 A 
HETATM   24  N   UNL     1     -44.437 -53.650  13.237  1.00  0.00    -0.349 N 
ATOM     25  HN  UNL     1     -43.557 -53.918  12.797  1.00  0.00     0.167 HD
ENDBRANCH   4  18
TORSDOF 2
ENDMDL
MODEL 5
REMARK VINA RESULT:      -6.0      3.517      7.683
REMARK  2 active torsions:
REMARK  status: ('A' for Active; 'I' for Inactive)
REMARK    1  A    between atoms: C_5  and  N_11 
REMARK       I    between atoms: N_11  and  C_12 
REMARK       I    between atoms: C_12  and  N_14 
REMARK    2  A    between atoms: N_14  and  C_15 
ROOT
HETATM    1  N   UNL     1     -41.317 -49.744  11.958  1.00  0.00    -0.338 N 
HETATM    2  C   UNL     1     -42.132 -50.572  12.702  1.00  0.00     0.322 C 
HETATM    3  O   UNL     1     -42.621 -50.237  13.773  1.00  0.00    -0.247 OA
HETATM    4  N   UNL     1     -42.371 -51.753  12.042  1.00  0.00    -0.295 N 
HETATM    5  H   UNL     1     -40.578 -50.211  11.451  1.00  0.00     0.164 HD
HETATM    6  H   UNL     1     -42.437 -51.658  11.039  1.00  0.00     0.172 HD
ENDROOT
BRANCH   1   7
HETATM    7  C   UNL     1     -41.111 -48.356  12.359  1.00  0.00     0.091 C 
HETATM    8  C   UNL     1     -40.813 -47.487  11.138  1.00  0.00     0.066 C 
HETATM    9  C   UNL     1     -40.590 -46.008  11.511  1.00  0.00     0.153 C 
HETATM   10  C   UNL     1     -41.915 -45.295  11.837  1.00  0.00     0.048 C 
HETATM   11  C   UNL     1     -39.992 -45.283  10.284  1.00  0.00     0.048 C 
HETATM   12  N   UNL     1     -39.611 -45.866  12.605  1.00  0.00     0.101 N 
HETATM   13  C   UNL     1     -39.765 -46.736  13.788  1.00  0.00     0.153 C 
HETATM   14  H   UNL     1     -38.674 -46.008  12.221  1.00  0.00     0.317 HD
HETATM   15  C   UNL     1     -39.981 -48.209  13.383  1.00  0.00     0.066 C 
HETATM   16  C   UNL     1     -40.878 -46.240  14.730  1.00  0.00     0.048 C 
HETATM   17  C   UNL     1     -38.443 -46.633  14.582  1.00  0.00     0.048 C 
ENDBRANCH   1   7
BRANCH   4  18
HETATM   18  C   UNL     1     -43.267 -52.705  12.537  1.00  0.00     0.108 A 
HETATM   19  C   UNL     1     -42.831 -53.837  13.225  1.00  0.00     0.052 A 
HETATM   20  C   UNL     1     -43.787 -54.714  13.739  1.00  0.00     0.047 A 
HETATM   21  C   UNL     1     -45.129 -54.416  13.569  1.00  0.00     0.131 A 
HETATM   22  F   UNL     1     -46.071 -55.212  14.088  1.00  0.00    -0.205 F 
HETATM   23  C   UNL     1     -45.473 -53.283  12.854  1.00  0.00     0.132 A 
HETATM   24  N   UNL     1     -44.569 -52.437  12.300  1.00  0.00    -0.349 N 
ATOM     25  HN  UNL     1     -44.858 -51.640  11.733  1.00  0.00     0.167 HD
ENDBRANCH   4  18
TORSDOF 2
ENDMDL
MODEL 6
REMARK VINA RESULT:      -5.9      2.136      3.341
REMARK  2 active torsions:
REMARK  status: ('A' for Active; 'I' for Inactive)
REMARK    1  A    between atoms: C_5  and  N_11 
REMARK       I    between atoms: N_11  and  C_12 
REMARK       I    between atoms: C_12  and  N_14 
REMARK    2  A    between atoms: N_14  and  C_15 
ROOT
HETATM    1  N   UNL     1     -42.122 -50.193  13.758  1.00  0.00    -0.338 N 
HETATM    2  C   UNL     1     -42.008 -49.148  12.864  1.00  0.00     0.322 C 
HETATM    3  O   UNL     1     -42.718 -49.039  11.873  1.00  0.00    -0.247 OA
HETATM    4  N   UNL     1     -41.069 -48.238  13.286  1.00  0.00    -0.295 N 
HETATM    5  H   UNL     1     -41.253 -50.502  14.171  1.00  0.00     0.164 HD
HETATM    6  H   UNL     1     -41.027 -48.123  14.288  1.00  0.00     0.172 HD
ENDROOT
BRANCH   1   7
HETATM    7  C   UNL     1     -43.209 -51.159  13.629  1.00  0.00     0.091 C 
HETATM    8  C   UNL     1     -44.435 -50.688  14.410  1.00  0.00     0.066 C 
HETATM    9  C   UNL     1     -45.613 -51.677  14.302  1.00  0.00     0.153 C 
HETATM   10  C   UNL     1     -46.311 -51.587  12.931  1.00  0.00     0.048 C 
HETATM   11  C   UNL     1     -46.672 -51.287  15.358  1.00  0.00     0.048 C 
HETATM   12  N   UNL     1     -45.194 -53.057  14.611  1.00  0.00     0.101 N 
HETATM   13  C   UNL     1     -43.963 -53.565  13.973  1.00  0.00     0.153 C 
HETATM   14  H   UNL     1     -45.092 -53.145  15.624  1.00  0.00     0.317 HD
HETATM   15  C   UNL     1     -42.802 -52.557  14.103  1.00  0.00     0.066 C 
HETATM   16  C   UNL     1     -44.197 -53.973  12.506  1.00  0.00     0.048 C 
HETATM   17  C   UNL     1     -43.581 -54.857  14.730  1.00  0.00     0.048 C 
ENDBRANCH   1   7
BRANCH   4  18
HETATM   18  C   UNL     1     -40.859 -47.031  12.613  1.00  0.00     0.108 A 
HETATM   19  C   UNL     1     -41.077 -45.799  13.227  1.00  0.00     0.052 A 
HETATM   20  C   UNL     1     -40.792 -44.636  12.510  1.00  0.00     0.047 A 
HETATM   21  C   UNL     1     -40.281 -44.749  11.228  1.00  0.00     0.131 A 
HETATM   22  F   UNL     1     -39.955 -43.655  10.529  1.00  0.00    -0.205 F 
HETATM   23  C   UNL     1     -40.117 -46.011  10.686  1.00  0.00     0.132 A 
HETATM   24  N   UNL     1     -40.431 -47.158  11.338  1.00  0.00    -0.349 N 
ATOM     25  HN  UNL     1     -40.348 -48.070  10.889  1.00  0.00     0.167 HD
ENDBRANCH   4  18
TORSDOF 2
ENDMDL
MODEL 7
REMARK VINA RESULT:      -5.6      4.234      7.522
REMARK  2 active torsions:
REMARK  status: ('A' for Active; 'I' for Inactive)
REMARK    1  A    between atoms: C_5  and  N_11 
REMARK       I    between atoms: N_11  and  C_12 
REMARK       I    between atoms: C_12  and  N_14 
REMARK    2  A    between atoms: N_14  and  C_15 
ROOT
HETATM    1  N   UNL     1     -40.342 -51.937  14.577  1.00  0.00    -0.338 N 
HETATM    2  C   UNL     1     -41.716 -52.057  14.574  1.00  0.00     0.322 C 
HETATM    3  O   UNL     1     -42.466 -51.116  14.348  1.00  0.00    -0.247 OA
HETATM    4  N   UNL     1     -42.098 -53.362  14.770  1.00  0.00    -0.295 N 
HETATM    5  H   UNL     1     -39.861 -52.520  15.248  1.00  0.00     0.164 HD
HETATM    6  H   UNL     1     -41.477 -54.040  14.354  1.00  0.00     0.172 HD
ENDROOT
BRANCH   1   7
HETATM    7  C   UNL     1     -39.708 -50.686  14.168  1.00  0.00     0.091 C 
HETATM    8  C   UNL     1     -39.004 -50.861  12.823  1.00  0.00     0.066 C 
HETATM    9  C   UNL     1     -38.321 -49.564  12.347  1.00  0.00     0.153 C 
HETATM   10  C   UNL     1     -39.342 -48.545  11.808  1.00  0.00     0.048 C 
HETATM   11  C   UNL     1     -37.387 -49.914  11.166  1.00  0.00     0.048 C 
HETATM   12  N   UNL     1     -37.471 -48.980  13.401  1.00  0.00     0.101 N 
HETATM   13  C   UNL     1     -38.038 -48.860  14.759  1.00  0.00     0.153 C 
HETATM   14  H   UNL     1     -36.608 -49.523  13.459  1.00  0.00     0.317 HD
HETATM   15  C   UNL     1     -38.709 -50.174  15.209  1.00  0.00     0.066 C 
HETATM   16  C   UNL     1     -39.000 -47.663  14.881  1.00  0.00     0.048 C 
HETATM   17  C   UNL     1     -36.851 -48.565  15.703  1.00  0.00     0.048 C 
ENDBRANCH   1   7
BRANCH   4  18
HETATM   18  C   UNL     1     -43.436 -53.757  14.686  1.00  0.00     0.108 A 
HETATM   19  C   UNL     1     -43.909 -54.530  13.627  1.00  0.00     0.052 A 
HETATM   20  C   UNL     1     -45.245 -54.934  13.639  1.00  0.00     0.047 A 
HETATM   21  C   UNL     1     -46.043 -54.573  14.713  1.00  0.00     0.131 A 
HETATM   22  F   UNL     1     -47.315 -54.982  14.779  1.00  0.00    -0.205 F 
HETATM   23  C   UNL     1     -45.498 -53.786  15.711  1.00  0.00     0.132 A 
HETATM   24  N   UNL     1     -44.218 -53.336  15.703  1.00  0.00    -0.349 N 
ATOM     25  HN  UNL     1     -43.865 -52.713  16.429  1.00  0.00     0.167 HD
ENDBRANCH   4  18
TORSDOF 2
ENDMDL
MODEL 8
REMARK VINA RESULT:      -5.6      4.156      7.979
REMARK  2 active torsions:
REMARK  status: ('A' for Active; 'I' for Inactive)
REMARK    1  A    between atoms: C_5  and  N_11 
REMARK       I    between atoms: N_11  and  C_12 
REMARK       I    between atoms: C_12  and  N_14 
REMARK    2  A    between atoms: N_14  and  C_15 
ROOT
HETATM    1  N   UNL     1     -43.266 -48.962  12.250  1.00  0.00    -0.338 N 
HETATM    2  C   UNL     1     -43.578 -50.008  13.093  1.00  0.00     0.322 C 
HETATM    3  O   UNL     1     -43.000 -50.205  14.154  1.00  0.00    -0.247 OA
HETATM    4  N   UNL     1     -44.654 -50.720  12.618  1.00  0.00    -0.295 N 
HETATM    5  H   UNL     1     -43.358 -49.163  11.264  1.00  0.00     0.164 HD
HETATM    6  H   UNL     1     -45.346 -50.156  12.148  1.00  0.00     0.172 HD
ENDROOT
BRANCH   1   7
HETATM    7  C   UNL     1     -42.304 -47.944  12.662  1.00  0.00     0.091 C 
HETATM    8  C   UNL     1     -43.024 -46.771  13.328  1.00  0.00     0.066 C 
HETATM    9  C   UNL     1     -42.048 -45.668  13.784  1.00  0.00     0.153 C 
HETATM   10  C   UNL     1     -41.286 -46.072  15.060  1.00  0.00     0.048 C 
HETATM   11  C   UNL     1     -42.871 -44.411  14.144  1.00  0.00     0.048 C 
HETATM   12  N   UNL     1     -41.127 -45.275  12.700  1.00  0.00     0.101 N 
HETATM   13  C   UNL     1     -40.459 -46.349  11.938  1.00  0.00     0.153 C 
HETATM   14  H   UNL     1     -41.637 -44.682  12.042  1.00  0.00     0.317 HD
HETATM   15  C   UNL     1     -41.461 -47.433  11.490  1.00  0.00     0.066 C 
HETATM   16  C   UNL     1     -39.275 -46.958  12.712  1.00  0.00     0.048 C 
HETATM   17  C   UNL     1     -39.861 -45.682  10.678  1.00  0.00     0.048 C 
ENDBRANCH   1   7
BRANCH   4  18
HETATM   18  C   UNL     1     -45.237 -51.753  13.358  1.00  0.00     0.108 A 
HETATM   19  C   UNL     1     -46.368 -51.546  14.146  1.00  0.00     0.052 A 
HETATM   20  C   UNL     1     -46.927 -52.637  14.813  1.00  0.00     0.047 A 
HETATM   21  C   UNL     1     -46.354 -53.887  14.646  1.00  0.00     0.131 A 
HETATM   22  F   UNL     1     -46.892 -54.963  15.233  1.00  0.00    -0.205 F 
HETATM   23  C   UNL     1     -45.220 -54.000  13.863  1.00  0.00     0.132 A 
HETATM   24  N   UNL     1     -44.623 -52.951  13.243  1.00  0.00    -0.349 N 
ATOM     25  HN  UNL     1     -43.757 -53.061  12.718  1.00  0.00     0.167 HD
ENDBRANCH   4  18
TORSDOF 2
ENDMDL
MODEL 9
REMARK VINA RESULT:      -5.5      3.941      7.023
REMARK  2 active torsions:
REMARK  status: ('A' for Active; 'I' for Inactive)
REMARK    1  A    between atoms: C_5  and  N_11 
REMARK       I    between atoms: N_11  and  C_12 
REMARK       I    between atoms: C_12  and  N_14 
REMARK    2  A    between atoms: N_14  and  C_15 
ROOT
HETATM    1  N   UNL     1     -41.732 -51.163  11.526  1.00  0.00    -0.338 N 
HETATM    2  C   UNL     1     -42.431 -51.777  12.544  1.00  0.00     0.322 C 
HETATM    3  O   UNL     1     -42.115 -51.679  13.723  1.00  0.00    -0.247 OA
HETATM    4  N   UNL     1     -43.544 -52.422  12.060  1.00  0.00    -0.295 N 
HETATM    5  H   UNL     1     -41.693 -51.680  10.658  1.00  0.00     0.164 HD
HETATM    6  H   UNL     1     -43.986 -51.953  11.282  1.00  0.00     0.172 HD
ENDROOT
BRANCH   1   7
HETATM    7  C   UNL     1     -40.643 -50.239  11.830  1.00  0.00     0.091 C 
HETATM    8  C   UNL     1     -39.447 -50.997  12.405  1.00  0.00     0.066 C 
HETATM    9  C   UNL     1     -38.268 -50.063  12.741  1.00  0.00     0.153 C 
HETATM   10  C   UNL     1     -37.518 -49.612  11.473  1.00  0.00     0.048 C 
HETATM   11  C   UNL     1     -37.251 -50.853  13.594  1.00  0.00     0.048 C 
HETATM   12  N   UNL     1     -38.702 -48.913  13.556  1.00  0.00     0.101 N 
HETATM   13  C   UNL     1     -39.908 -48.177  13.128  1.00  0.00     0.153 C 
HETATM   14  H   UNL     1     -38.843 -49.232  14.516  1.00  0.00     0.317 HD
HETATM   15  C   UNL     1     -41.071 -49.138  12.805  1.00  0.00     0.066 C 
HETATM   16  C   UNL     1     -39.618 -47.225  11.952  1.00  0.00     0.048 C 
HETATM   17  C   UNL     1     -40.323 -47.286  14.320  1.00  0.00     0.048 C 
ENDBRANCH   1   7
BRANCH   4  18
HETATM   18  C   UNL     1     -44.480 -53.015  12.912  1.00  0.00     0.108 A 
HETATM   19  C   UNL     1     -45.627 -52.342  13.328  1.00  0.00     0.052 A 
HETATM   20  C   UNL     1     -46.543 -53.018  14.134  1.00  0.00     0.047 A 
HETATM   21  C   UNL     1     -46.292 -54.339  14.469  1.00  0.00     0.131 A 
HETATM   22  F   UNL     1     -47.172 -55.031  15.202  1.00  0.00    -0.205 F 
HETATM   23  C   UNL     1     -45.118 -54.923  14.032  1.00  0.00     0.132 A 
HETATM   24  N   UNL     1     -44.184 -54.278  13.290  1.00  0.00    -0.349 N 
ATOM     25  HN  UNL     1     -43.304 -54.723  13.030  1.00  0.00     0.167 HD
ENDBRANCH   4  18
TORSDOF 2
ENDMDL
