MODEL 1
REMARK VINA RESULT:      -6.4      0.000      0.000
REMARK  8 active torsions:
REMARK  status: ('A' for Active; 'I' for Inactive)
REMARK    1  A    between atoms: O_2  and  C_3 
REMARK    2  A    between atoms: C_3  and  C_4 
REMARK    3  A    between atoms: N_13  and  C_14 
REMARK    4  A    between atoms: C_14  and  C_15 
REMARK    5  A    between atoms: C_15  and  O_16 
REMARK    6  A    between atoms: C_15  and  C_17 
REMARK    7  A    between atoms: C_17  and  O_18 
REMARK    8  A    between atoms: O_18  and  C_19 
ROOT
HETATM    1  C   UNL     1     -39.396 -49.653  11.964  1.00  0.00     0.108 A 
HETATM    2  N   UNL     1     -39.442 -48.505  11.312  1.00  0.00    -0.342 N 
ATOM      3  HN  UNL     1     -38.653 -47.983  10.930  1.00  0.00     0.167 HD
HETATM    4  C   UNL     1     -40.766 -48.157  11.255  1.00  0.00     0.060 A 
HETATM    5  C   UNL     1     -41.367 -47.047  10.642  1.00  0.00     0.032 A 
HETATM    6  C   UNL     1     -42.756 -46.898  10.725  1.00  0.00     0.002 A 
HETATM    7  C   UNL     1     -43.532 -47.834  11.409  1.00  0.00     0.002 A 
HETATM    8  C   UNL     1     -42.950 -48.953  12.017  1.00  0.00     0.032 A 
HETATM    9  C   UNL     1     -41.559 -49.088  11.918  1.00  0.00     0.062 A 
HETATM   10  N   UNL     1     -40.662 -50.039  12.356  1.00  0.00    -0.330 N 
ENDROOT
BRANCH  10  11
HETATM   11  C   UNL     1     -41.013 -51.295  12.997  1.00  0.00     0.164 C 
BRANCH  11  12
HETATM   12  C   UNL     1     -41.598 -52.345  12.035  1.00  0.00     0.160 C 
BRANCH  12  13
HETATM   13  O   UNL     1     -40.581 -53.218  11.528  1.00  0.00    -0.392 OA
HETATM   14  H   UNL     1     -40.514 -53.103  10.565  1.00  0.00     0.210 HD
ENDBRANCH  12  13
BRANCH  12  15
HETATM   15  C   UNL     1     -42.654 -53.194  12.763  1.00  0.00     0.209 C 
BRANCH  15  16
HETATM   16  O   UNL     1     -43.951 -52.778  12.360  1.00  0.00    -0.348 OA
BRANCH  16  17
HETATM   17  C   UNL     1     -44.779 -52.220  13.297  1.00  0.00     0.074 A 
HETATM   18  C   UNL     1     -44.228 -52.230  14.589  1.00  0.00     0.037 A 
HETATM   19  C   UNL     1     -44.957 -51.790  15.691  1.00  0.00     0.003 A 
HETATM   20  C   UNL     1     -46.256 -51.335  15.518  1.00  0.00     0.001 A 
HETATM   21  C   UNL     1     -46.819 -51.327  14.241  1.00  0.00     0.009 A 
HETATM   22  C   UNL     1     -46.103 -51.784  13.116  1.00  0.00    -0.029 A 
HETATM   23  C   UNL     1     -46.843 -51.808  11.810  1.00  0.00     0.051 C 
ENDBRANCH  16  17
ENDBRANCH  15  16
ENDBRANCH  12  15
ENDBRANCH  11  12
ENDBRANCH  10  11
BRANCH   1  24
HETATM   24  C   UNL     1     -38.157 -50.436  12.241  1.00  0.00     0.243 C 
BRANCH  24  25
HETATM   25  O   UNL     1     -37.467 -49.772  13.300  1.00  0.00    -0.389 OA
HETATM   26  C   UNL     1     -37.572 -50.493  14.520  1.00  0.00     0.202 C 
ENDBRANCH  24  25
ENDBRANCH   1  24
TORSDOF 8
ENDMDL
MODEL 2
REMARK VINA RESULT:      -6.2      2.145      4.248
REMARK  8 active torsions:
REMARK  status: ('A' for Active; 'I' for Inactive)
REMARK    1  A    between atoms: O_2  and  C_3 
REMARK    2  A    between atoms: C_3  and  C_4 
REMARK    3  A    between atoms: N_13  and  C_14 
REMARK    4  A    between atoms: C_14  and  C_15 
REMARK    5  A    between atoms: C_15  and  O_16 
REMARK    6  A    between atoms: C_15  and  C_17 
REMARK    7  A    between atoms: C_17  and  O_18 
REMARK    8  A    between atoms: O_18  and  C_19 
ROOT
HETATM    1  C   UNL     1     -39.970 -52.126  14.034  1.00  0.00     0.108 A 
HETATM    2  N   UNL     1     -40.053 -52.920  15.086  1.00  0.00    -0.342 N 
ATOM      3  HN  UNL     1     -39.373 -53.013  15.841  1.00  0.00     0.167 HD
HETATM    4  C   UNL     1     -41.238 -53.595  14.956  1.00  0.00     0.060 A 
HETATM    5  C   UNL     1     -41.826 -54.531  15.820  1.00  0.00     0.032 A 
HETATM    6  C   UNL     1     -43.055 -55.100  15.466  1.00  0.00     0.002 A 
HETATM    7  C   UNL     1     -43.685 -54.746  14.272  1.00  0.00     0.002 A 
HETATM    8  C   UNL     1     -43.117 -53.804  13.404  1.00  0.00     0.032 A 
HETATM    9  C   UNL     1     -41.890 -53.242  13.779  1.00  0.00     0.062 A 
HETATM   10  N   UNL     1     -41.064 -52.296  13.210  1.00  0.00    -0.330 N 
ENDROOT
BRANCH  10  11
HETATM   11  C   UNL     1     -41.369 -51.519  12.021  1.00  0.00     0.164 C 
BRANCH  11  12
HETATM   12  C   UNL     1     -41.645 -50.031  12.302  1.00  0.00     0.160 C 
BRANCH  12  13
HETATM   13  O   UNL     1     -42.160 -49.363  11.142  1.00  0.00    -0.392 OA
HETATM   14  H   UNL     1     -41.528 -49.466  10.410  1.00  0.00     0.210 HD
ENDBRANCH  12  13
BRANCH  12  15
HETATM   15  C   UNL     1     -42.669 -49.892  13.441  1.00  0.00     0.209 C 
BRANCH  15  16
HETATM   16  O   UNL     1     -43.941 -50.328  12.987  1.00  0.00    -0.348 OA
BRANCH  16  17
HETATM   17  C   UNL     1     -44.826 -50.829  13.905  1.00  0.00     0.074 A 
HETATM   18  C   UNL     1     -44.340 -50.771  15.221  1.00  0.00     0.037 A 
HETATM   19  C   UNL     1     -45.057 -51.317  16.283  1.00  0.00     0.003 A 
HETATM   20  C   UNL     1     -46.275 -51.936  16.042  1.00  0.00     0.001 A 
HETATM   21  C   UNL     1     -46.768 -52.007  14.738  1.00  0.00     0.009 A 
HETATM   22  C   UNL     1     -46.048 -51.476  13.649  1.00  0.00    -0.029 A 
HETATM   23  C   UNL     1     -46.636 -51.689  12.284  1.00  0.00     0.051 C 
ENDBRANCH  16  17
ENDBRANCH  15  16
ENDBRANCH  12  15
ENDBRANCH  11  12
ENDBRANCH  10  11
BRANCH   1  24
HETATM   24  C   UNL     1     -38.856 -51.170  13.762  1.00  0.00     0.243 C 
BRANCH  24  25
HETATM   25  O   UNL     1     -38.039 -51.753  12.748  1.00  0.00    -0.389 OA
HETATM   26  C   UNL     1     -37.366 -50.758  11.989  1.00  0.00     0.202 C 
ENDBRANCH  24  25
ENDBRANCH   1  24
TORSDOF 8
ENDMDL
MODEL 3
REMARK VINA RESULT:      -6.2      3.977      5.276
REMARK  8 active torsions:
REMARK  status: ('A' for Active; 'I' for Inactive)
REMARK    1  A    between atoms: O_2  and  C_3 
REMARK    2  A    between atoms: C_3  and  C_4 
REMARK    3  A    between atoms: N_13  and  C_14 
REMARK    4  A    between atoms: C_14  and  C_15 
REMARK    5  A    between atoms: C_15  and  O_16 
REMARK    6  A    between atoms: C_15  and  C_17 
REMARK    7  A    between atoms: C_17  and  O_18 
REMARK    8  A    between atoms: O_18  and  C_19 
ROOT
HETATM    1  C   UNL     1     -40.099 -54.685  15.485  1.00  0.00     0.108 A 
HETATM    2  N   UNL     1     -39.726 -54.501  14.231  1.00  0.00    -0.342 N 
ATOM      3  HN  UNL     1     -38.920 -54.915  13.763  1.00  0.00     0.167 HD
HETATM    4  C   UNL     1     -40.642 -53.640  13.688  1.00  0.00     0.060 A 
HETATM    5  C   UNL     1     -40.731 -53.150  12.377  1.00  0.00     0.032 A 
HETATM    6  C   UNL     1     -41.764 -52.262  12.054  1.00  0.00     0.002 A 
HETATM    7  C   UNL     1     -42.690 -51.868  13.021  1.00  0.00     0.002 A 
HETATM    8  C   UNL     1     -42.623 -52.357  14.332  1.00  0.00     0.032 A 
HETATM    9  C   UNL     1     -41.585 -53.249  14.633  1.00  0.00     0.062 A 
HETATM   10  N   UNL     1     -41.222 -53.935  15.772  1.00  0.00    -0.330 N 
ENDROOT
BRANCH  10  11
HETATM   11  C   UNL     1     -41.977 -53.965  17.013  1.00  0.00     0.164 C 
BRANCH  11  12
HETATM   12  C   UNL     1     -43.189 -54.913  16.984  1.00  0.00     0.160 C 
BRANCH  12  13
HETATM   13  O   UNL     1     -42.924 -56.129  17.696  1.00  0.00    -0.392 OA
HETATM   14  H   UNL     1     -42.556 -56.785  17.079  1.00  0.00     0.210 HD
ENDBRANCH  12  13
BRANCH  12  15
HETATM   15  C   UNL     1     -44.408 -54.227  17.623  1.00  0.00     0.209 C 
BRANCH  15  16
HETATM   16  O   UNL     1     -45.555 -54.463  16.819  1.00  0.00    -0.348 OA
BRANCH  16  17
HETATM   17  C   UNL     1     -45.824 -53.595  15.794  1.00  0.00     0.074 A 
HETATM   18  C   UNL     1     -46.233 -52.329  16.242  1.00  0.00     0.037 A 
HETATM   19  C   UNL     1     -46.639 -51.340  15.349  1.00  0.00     0.003 A 
HETATM   20  C   UNL     1     -46.646 -51.606  13.987  1.00  0.00     0.001 A 
HETATM   21  C   UNL     1     -46.248 -52.863  13.528  1.00  0.00     0.009 A 
HETATM   22  C   UNL     1     -45.851 -53.881  14.418  1.00  0.00    -0.029 A 
HETATM   23  C   UNL     1     -45.528 -55.216  13.812  1.00  0.00     0.051 C 
ENDBRANCH  16  17
ENDBRANCH  15  16
ENDBRANCH  12  15
ENDBRANCH  11  12
ENDBRANCH  10  11
BRANCH   1  24
HETATM   24  C   UNL     1     -39.414 -55.578  16.465  1.00  0.00     0.243 C 
BRANCH  24  25
HETATM   25  O   UNL     1     -40.111 -56.823  16.459  1.00  0.00    -0.389 OA
HETATM   26  C   UNL     1     -39.694 -57.655  17.533  1.00  0.00     0.202 C 
ENDBRANCH  24  25
ENDBRANCH   1  24
TORSDOF 8
ENDMDL
MODEL 4
REMARK VINA RESULT:      -6.1      2.611      4.782
REMARK  8 active torsions:
REMARK  status: ('A' for Active; 'I' for Inactive)
REMARK    1  A    between atoms: O_2  and  C_3 
REMARK    2  A    between atoms: C_3  and  C_4 
REMARK    3  A    between atoms: N_13  and  C_14 
REMARK    4  A    between atoms: C_14  and  C_15 
REMARK    5  A    between atoms: C_15  and  O_16 
REMARK    6  A    between atoms: C_15  and  C_17 
REMARK    7  A    between atoms: C_17  and  O_18 
REMARK    8  A    between atoms: O_18  and  C_19 
ROOT
HETATM    1  C   UNL     1     -40.583 -53.659  14.074  1.00  0.00     0.108 A 
HETATM    2  N   UNL     1     -41.235 -54.322  15.012  1.00  0.00    -0.342 N 
ATOM      3  HN  UNL     1     -40.863 -54.649  15.903  1.00  0.00     0.167 HD
HETATM    4  C   UNL     1     -42.512 -54.480  14.543  1.00  0.00     0.060 A 
HETATM    5  C   UNL     1     -43.618 -55.080  15.164  1.00  0.00     0.032 A 
HETATM    6  C   UNL     1     -44.835 -55.131  14.476  1.00  0.00     0.002 A 
HETATM    7  C   UNL     1     -44.949 -54.596  13.192  1.00  0.00     0.002 A 
HETATM    8  C   UNL     1     -43.859 -53.983  12.563  1.00  0.00     0.032 A 
HETATM    9  C   UNL     1     -42.651 -53.937  13.270  1.00  0.00     0.062 A 
HETATM   10  N   UNL     1     -41.406 -53.412  12.993  1.00  0.00    -0.330 N 
ENDROOT
BRANCH  10  11
HETATM   11  C   UNL     1     -41.069 -52.617  11.825  1.00  0.00     0.164 C 
BRANCH  11  12
HETATM   12  C   UNL     1     -41.010 -51.102  12.096  1.00  0.00     0.160 C 
BRANCH  12  13
HETATM   13  O   UNL     1     -40.450 -50.391  10.985  1.00  0.00    -0.392 OA
HETATM   14  H   UNL     1     -41.143 -50.246  10.318  1.00  0.00     0.210 HD
ENDBRANCH  12  13
BRANCH  12  15
HETATM   15  C   UNL     1     -42.424 -50.560  12.362  1.00  0.00     0.209 C 
BRANCH  15  16
HETATM   16  O   UNL     1     -42.627 -50.443  13.763  1.00  0.00    -0.348 OA
BRANCH  16  17
HETATM   17  C   UNL     1     -43.798 -50.914  14.295  1.00  0.00     0.074 A 
HETATM   18  C   UNL     1     -44.868 -50.868  13.387  1.00  0.00     0.037 A 
HETATM   19  C   UNL     1     -46.160 -51.218  13.773  1.00  0.00     0.003 A 
HETATM   20  C   UNL     1     -46.403 -51.616  15.079  1.00  0.00     0.001 A 
HETATM   21  C   UNL     1     -45.350 -51.660  15.994  1.00  0.00     0.009 A 
HETATM   22  C   UNL     1     -44.039 -51.294  15.627  1.00  0.00    -0.029 A 
HETATM   23  C   UNL     1     -43.008 -51.298  16.718  1.00  0.00     0.051 C 
ENDBRANCH  16  17
ENDBRANCH  15  16
ENDBRANCH  12  15
ENDBRANCH  11  12
ENDBRANCH  10  11
BRANCH   1  24
HETATM   24  C   UNL     1     -39.156 -53.228  14.156  1.00  0.00     0.243 C 
BRANCH  24  25
HETATM   25  O   UNL     1     -38.984 -52.582  15.417  1.00  0.00    -0.389 OA
HETATM   26  C   UNL     1     -39.436 -51.236  15.375  1.00  0.00     0.202 C 
ENDBRANCH  24  25
ENDBRANCH   1  24
TORSDOF 8
ENDMDL
MODEL 5
REMARK VINA RESULT:      -5.9      2.064      3.706
REMARK  8 active torsions:
REMARK  status: ('A' for Active; 'I' for Inactive)
REMARK    1  A    between atoms: O_2  and  C_3 
REMARK    2  A    between atoms: C_3  and  C_4 
REMARK    3  A    between atoms: N_13  and  C_14 
REMARK    4  A    between atoms: C_14  and  C_15 
REMARK    5  A    between atoms: C_15  and  O_16 
REMARK    6  A    between atoms: C_15  and  C_17 
REMARK    7  A    between atoms: C_17  and  O_18 
REMARK    8  A    between atoms: O_18  and  C_19 
ROOT
HETATM    1  C   UNL     1     -41.516 -49.219  13.507  1.00  0.00     0.108 A 
HETATM    2  N   UNL     1     -42.204 -48.405  14.286  1.00  0.00    -0.342 N 
ATOM      3  HN  UNL     1     -42.266 -47.390  14.211  1.00  0.00     0.167 HD
HETATM    4  C   UNL     1     -42.818 -49.202  15.216  1.00  0.00     0.060 A 
HETATM    5  C   UNL     1     -43.695 -48.845  16.251  1.00  0.00     0.032 A 
HETATM    6  C   UNL     1     -44.194 -49.847  17.091  1.00  0.00     0.002 A 
HETATM    7  C   UNL     1     -43.824 -51.179  16.905  1.00  0.00     0.002 A 
HETATM    8  C   UNL     1     -42.959 -51.555  15.870  1.00  0.00     0.032 A 
HETATM    9  C   UNL     1     -42.475 -50.538  15.037  1.00  0.00     0.062 A 
HETATM   10  N   UNL     1     -41.648 -50.525  13.934  1.00  0.00    -0.330 N 
ENDROOT
BRANCH  10  11
HETATM   11  C   UNL     1     -41.123 -51.703  13.261  1.00  0.00     0.164 C 
BRANCH  11  12
HETATM   12  C   UNL     1     -42.010 -52.211  12.110  1.00  0.00     0.160 C 
BRANCH  12  13
HETATM   13  O   UNL     1     -41.223 -52.713  11.023  1.00  0.00    -0.392 OA
HETATM   14  H   UNL     1     -40.287 -52.499  11.182  1.00  0.00     0.210 HD
ENDBRANCH  12  13
BRANCH  12  15
HETATM   15  C   UNL     1     -42.927 -53.339  12.613  1.00  0.00     0.209 C 
BRANCH  15  16
HETATM   16  O   UNL     1     -44.256 -53.094  12.177  1.00  0.00    -0.348 OA
BRANCH  16  17
HETATM   17  C   UNL     1     -45.235 -52.936  13.122  1.00  0.00     0.074 A 
HETATM   18  C   UNL     1     -45.561 -51.590  13.352  1.00  0.00     0.037 A 
HETATM   19  C   UNL     1     -46.468 -51.224  14.343  1.00  0.00     0.003 A 
HETATM   20  C   UNL     1     -47.062 -52.203  15.126  1.00  0.00     0.001 A 
HETATM   21  C   UNL     1     -46.742 -53.545  14.913  1.00  0.00     0.009 A 
HETATM   22  C   UNL     1     -45.814 -53.933  13.926  1.00  0.00    -0.029 A 
HETATM   23  C   UNL     1     -45.486 -55.396  13.849  1.00  0.00     0.051 C 
ENDBRANCH  16  17
ENDBRANCH  15  16
ENDBRANCH  12  15
ENDBRANCH  11  12
ENDBRANCH  10  11
BRANCH   1  24
HETATM   24  C   UNL     1     -40.707 -48.801  12.325  1.00  0.00     0.243 C 
BRANCH  24  25
HETATM   25  O   UNL     1     -41.578 -48.809  11.194  1.00  0.00    -0.389 OA
HETATM   26  C   UNL     1     -41.685 -47.517  10.614  1.00  0.00     0.202 C 
ENDBRANCH  24  25
ENDBRANCH   1  24
TORSDOF 8
ENDMDL
MODEL 6
REMARK VINA RESULT:      -5.9      3.947      6.523
REMARK  8 active torsions:
REMARK  status: ('A' for Active; 'I' for Inactive)
REMARK    1  A    between atoms: O_2  and  C_3 
REMARK    2  A    between atoms: C_3  and  C_4 
REMARK    3  A    between atoms: N_13  and  C_14 
REMARK    4  A    between atoms: C_14  and  C_15 
REMARK    5  A    between atoms: C_15  and  O_16 
REMARK    6  A    between atoms: C_15  and  C_17 
REMARK    7  A    between atoms: C_17  and  O_18 
REMARK    8  A    between atoms: O_18  and  C_19 
ROOT
HETATM    1  C   UNL     1     -46.112 -51.637  16.480  1.00  0.00     0.108 A 
HETATM    2  N   UNL     1     -45.187 -50.744  16.781  1.00  0.00    -0.342 N 
ATOM      3  HN  UNL     1     -45.033 -50.300  17.686  1.00  0.00     0.167 HD
HETATM    4  C   UNL     1     -44.476 -50.535  15.629  1.00  0.00     0.060 A 
HETATM    5  C   UNL     1     -43.362 -49.710  15.410  1.00  0.00     0.032 A 
HETATM    6  C   UNL     1     -42.804 -49.652  14.128  1.00  0.00     0.002 A 
HETATM    7  C   UNL     1     -43.347 -50.400  13.082  1.00  0.00     0.002 A 
HETATM    8  C   UNL     1     -44.452 -51.237  13.286  1.00  0.00     0.032 A 
HETATM    9  C   UNL     1     -44.992 -51.285  14.577  1.00  0.00     0.062 A 
HETATM   10  N   UNL     1     -46.032 -51.987  15.147  1.00  0.00    -0.330 N 
ENDROOT
BRANCH  10  11
HETATM   11  C   UNL     1     -46.814 -53.018  14.485  1.00  0.00     0.164 C 
BRANCH  11  12
HETATM   12  C   UNL     1     -46.362 -54.453  14.813  1.00  0.00     0.160 C 
BRANCH  12  13
HETATM   13  O   UNL     1     -47.455 -55.377  14.747  1.00  0.00    -0.392 OA
HETATM   14  H   UNL     1     -48.223 -54.934  14.347  1.00  0.00     0.210 HD
ENDBRANCH  12  13
BRANCH  12  15
HETATM   15  C   UNL     1     -45.278 -54.903  13.819  1.00  0.00     0.209 C 
BRANCH  15  16
HETATM   16  O   UNL     1     -44.120 -55.304  14.535  1.00  0.00    -0.348 OA
BRANCH  16  17
HETATM   17  C   UNL     1     -43.086 -54.414  14.657  1.00  0.00     0.074 A 
HETATM   18  C   UNL     1     -42.348 -54.267  13.471  1.00  0.00     0.037 A 
HETATM   19  C   UNL     1     -41.203 -53.475  13.424  1.00  0.00     0.003 A 
HETATM   20  C   UNL     1     -40.774 -52.820  14.568  1.00  0.00     0.001 A 
HETATM   21  C   UNL     1     -41.493 -52.963  15.756  1.00  0.00     0.009 A 
HETATM   22  C   UNL     1     -42.645 -53.773  15.827  1.00  0.00    -0.029 A 
HETATM   23  C   UNL     1     -43.283 -53.918  17.178  1.00  0.00     0.051 C 
ENDBRANCH  16  17
ENDBRANCH  15  16
ENDBRANCH  12  15
ENDBRANCH  11  12
ENDBRANCH  10  11
BRANCH   1  24
HETATM   24  C   UNL     1     -47.108 -52.202  17.437  1.00  0.00     0.243 C 
BRANCH  24  25
HETATM   25  O   UNL     1     -48.298 -51.423  17.314  1.00  0.00    -0.389 OA
HETATM   26  C   UNL     1     -48.307 -50.341  18.234  1.00  0.00     0.202 C 
ENDBRANCH  24  25
ENDBRANCH   1  24
TORSDOF 8
ENDMDL
MODEL 7
REMARK VINA RESULT:      -5.9      2.518      4.607
REMARK  8 active torsions:
REMARK  status: ('A' for Active; 'I' for Inactive)
REMARK    1  A    between atoms: O_2  and  C_3 
REMARK    2  A    between atoms: C_3  and  C_4 
REMARK    3  A    between atoms: N_13  and  C_14 
REMARK    4  A    between atoms: C_14  and  C_15 
REMARK    5  A    between atoms: C_15  and  O_16 
REMARK    6  A    between atoms: C_15  and  C_17 
REMARK    7  A    between atoms: C_17  and  O_18 
REMARK    8  A    between atoms: O_18  and  C_19 
ROOT
HETATM    1  C   UNL     1     -42.543 -50.317  13.540  1.00  0.00     0.108 A 
HETATM    2  N   UNL     1     -43.519 -50.572  12.688  1.00  0.00    -0.342 N 
ATOM      3  HN  UNL     1     -43.466 -50.555  11.670  1.00  0.00     0.167 HD
HETATM    4  C   UNL     1     -44.618 -50.866  13.452  1.00  0.00     0.060 A 
HETATM    5  C   UNL     1     -45.906 -51.245  13.045  1.00  0.00     0.032 A 
HETATM    6  C   UNL     1     -46.880 -51.487  14.020  1.00  0.00     0.002 A 
HETATM    7  C   UNL     1     -46.577 -51.352  15.376  1.00  0.00     0.002 A 
HETATM    8  C   UNL     1     -45.294 -50.986  15.799  1.00  0.00     0.032 A 
HETATM    9  C   UNL     1     -44.332 -50.753  14.808  1.00  0.00     0.062 A 
HETATM   10  N   UNL     1     -42.998 -50.409  14.840  1.00  0.00    -0.330 N 
ENDROOT
BRANCH  10  11
HETATM   11  C   UNL     1     -42.185 -50.299  16.041  1.00  0.00     0.164 C 
BRANCH  11  12
HETATM   12  C   UNL     1     -41.225 -51.483  16.254  1.00  0.00     0.160 C 
BRANCH  12  13
HETATM   13  O   UNL     1     -40.096 -51.108  17.054  1.00  0.00    -0.392 OA
HETATM   14  H   UNL     1     -40.026 -51.715  17.810  1.00  0.00     0.210 HD
ENDBRANCH  12  13
BRANCH  12  15
HETATM   15  C   UNL     1     -41.961 -52.637  16.956  1.00  0.00     0.209 C 
BRANCH  15  16
HETATM   16  O   UNL     1     -41.872 -53.807  16.156  1.00  0.00    -0.348 OA
BRANCH  16  17
HETATM   17  C   UNL     1     -42.813 -54.004  15.181  1.00  0.00     0.074 A 
HETATM   18  C   UNL     1     -44.075 -54.341  15.698  1.00  0.00     0.037 A 
HETATM   19  C   UNL     1     -45.138 -54.669  14.860  1.00  0.00     0.003 A 
HETATM   20  C   UNL     1     -44.953 -54.671  13.485  1.00  0.00     0.001 A 
HETATM   21  C   UNL     1     -43.702 -54.345  12.957  1.00  0.00     0.009 A 
HETATM   22  C   UNL     1     -42.611 -54.027  13.790  1.00  0.00    -0.029 A 
HETATM   23  C   UNL     1     -41.295 -53.779  13.111  1.00  0.00     0.051 C 
ENDBRANCH  16  17
ENDBRANCH  15  16
ENDBRANCH  12  15
ENDBRANCH  11  12
ENDBRANCH  10  11
BRANCH   1  24
HETATM   24  C   UNL     1     -41.139 -49.977  13.165  1.00  0.00     0.243 C 
BRANCH  24  25
HETATM   25  O   UNL     1     -40.926 -50.469  11.842  1.00  0.00    -0.389 OA
HETATM   26  C   UNL     1     -39.880 -49.762  11.189  1.00  0.00     0.202 C 
ENDBRANCH  24  25
ENDBRANCH   1  24
TORSDOF 8
ENDMDL
MODEL 8
REMARK VINA RESULT:      -5.9      2.685      3.705
REMARK  8 active torsions:
REMARK  status: ('A' for Active; 'I' for Inactive)
REMARK    1  A    between atoms: O_2  and  C_3 
REMARK    2  A    between atoms: C_3  and  C_4 
REMARK    3  A    between atoms: N_13  and  C_14 
REMARK    4  A    between atoms: C_14  and  C_15 
REMARK    5  A    between atoms: C_15  and  O_16 
REMARK    6  A    between atoms: C_15  and  C_17 
REMARK    7  A    between atoms: C_17  and  O_18 
REMARK    8  A    between atoms: O_18  and  C_19 
ROOT
HETATM    1  C   UNL     1     -39.490 -53.045  14.516  1.00  0.00     0.108 A 
HETATM    2  N   UNL     1     -38.556 -52.263  15.027  1.00  0.00    -0.342 N 
ATOM      3  HN  UNL     1     -38.033 -52.415  15.890  1.00  0.00     0.167 HD
HETATM    4  C   UNL     1     -38.433 -51.207  14.163  1.00  0.00     0.060 A 
HETATM    5  C   UNL     1     -37.557 -50.113  14.217  1.00  0.00     0.032 A 
HETATM    6  C   UNL     1     -37.624 -49.142  13.211  1.00  0.00     0.002 A 
HETATM    7  C   UNL     1     -38.548 -49.258  12.172  1.00  0.00     0.002 A 
HETATM    8  C   UNL     1     -39.422 -50.349  12.097  1.00  0.00     0.032 A 
HETATM    9  C   UNL     1     -39.336 -51.313  13.110  1.00  0.00     0.062 A 
HETATM   10  N   UNL     1     -39.995 -52.499  13.353  1.00  0.00    -0.330 N 
ENDROOT
BRANCH  10  11
HETATM   11  C   UNL     1     -40.956 -53.126  12.461  1.00  0.00     0.164 C 
BRANCH  11  12
HETATM   12  C   UNL     1     -42.291 -52.369  12.348  1.00  0.00     0.160 C 
BRANCH  12  13
HETATM   13  O   UNL     1     -43.301 -53.173  11.726  1.00  0.00    -0.392 OA
HETATM   14  H   UNL     1     -43.557 -52.765  10.881  1.00  0.00     0.210 HD
ENDBRANCH  12  13
BRANCH  12  15
HETATM   15  C   UNL     1     -42.783 -51.960  13.747  1.00  0.00     0.209 C 
BRANCH  15  16
HETATM   16  O   UNL     1     -43.747 -50.925  13.623  1.00  0.00    -0.348 OA
BRANCH  16  17
HETATM   17  C   UNL     1     -44.863 -50.973  14.415  1.00  0.00     0.074 A 
HETATM   18  C   UNL     1     -44.596 -50.651  15.756  1.00  0.00     0.037 A 
HETATM   19  C   UNL     1     -45.587 -50.734  16.732  1.00  0.00     0.003 A 
HETATM   20  C   UNL     1     -46.863 -51.149  16.381  1.00  0.00     0.001 A 
HETATM   21  C   UNL     1     -47.141 -51.479  15.054  1.00  0.00     0.009 A 
HETATM   22  C   UNL     1     -46.147 -51.417  14.056  1.00  0.00    -0.029 A 
HETATM   23  C   UNL     1     -46.542 -51.880  12.683  1.00  0.00     0.051 C 
ENDBRANCH  16  17
ENDBRANCH  15  16
ENDBRANCH  12  15
ENDBRANCH  11  12
ENDBRANCH  10  11
BRANCH   1  24
HETATM   24  C   UNL     1     -39.943 -54.341  15.100  1.00  0.00     0.243 C 
BRANCH  24  25
HETATM   25  O   UNL     1     -38.910 -55.296  14.860  1.00  0.00    -0.389 OA
HETATM   26  C   UNL     1     -38.323 -55.741  16.075  1.00  0.00     0.202 C 
ENDBRANCH  24  25
ENDBRANCH   1  24
TORSDOF 8
ENDMDL
MODEL 9
REMARK VINA RESULT:      -5.8      3.910      5.440
REMARK  8 active torsions:
REMARK  status: ('A' for Active; 'I' for Inactive)
REMARK    1  A    between atoms: O_2  and  C_3 
REMARK    2  A    between atoms: C_3  and  C_4 
REMARK    3  A    between atoms: N_13  and  C_14 
REMARK    4  A    between atoms: C_14  and  C_15 
REMARK    5  A    between atoms: C_15  and  O_16 
REMARK    6  A    between atoms: C_15  and  C_17 
REMARK    7  A    between atoms: C_17  and  O_18 
REMARK    8  A    between atoms: O_18  and  C_19 
ROOT
HETATM    1  C   UNL     1     -43.265 -51.098  16.286  1.00  0.00     0.108 A 
HETATM    2  N   UNL     1     -43.160 -50.515  15.106  1.00  0.00    -0.342 N 
ATOM      3  HN  UNL     1     -43.378 -49.544  14.880  1.00  0.00     0.167 HD
HETATM    4  C   UNL     1     -42.700 -51.478  14.249  1.00  0.00     0.060 A 
HETATM    5  C   UNL     1     -42.381 -51.375  12.886  1.00  0.00     0.032 A 
HETATM    6  C   UNL     1     -41.931 -52.514  12.209  1.00  0.00     0.002 A 
HETATM    7  C   UNL     1     -41.804 -53.734  12.875  1.00  0.00     0.002 A 
HETATM    8  C   UNL     1     -42.107 -53.851  14.237  1.00  0.00     0.032 A 
HETATM    9  C   UNL     1     -42.551 -52.699  14.899  1.00  0.00     0.062 A 
HETATM   10  N   UNL     1     -42.910 -52.430  16.202  1.00  0.00    -0.330 N 
ENDROOT
BRANCH  10  11
HETATM   11  C   UNL     1     -42.799 -53.358  17.315  1.00  0.00     0.164 C 
BRANCH  11  12
HETATM   12  C   UNL     1     -43.803 -54.524  17.258  1.00  0.00     0.160 C 
BRANCH  12  13
HETATM   13  O   UNL     1     -43.452 -55.564  18.179  1.00  0.00    -0.392 OA
HETATM   14  H   UNL     1     -43.022 -56.288  17.693  1.00  0.00     0.210 HD
ENDBRANCH  12  13
BRANCH  12  15
HETATM   15  C   UNL     1     -45.214 -54.020  17.602  1.00  0.00     0.209 C 
BRANCH  15  16
HETATM   16  O   UNL     1     -46.102 -54.348  16.544  1.00  0.00    -0.348 OA
BRANCH  16  17
HETATM   17  C   UNL     1     -46.121 -53.545  15.435  1.00  0.00     0.074 A 
HETATM   18  C   UNL     1     -46.619 -52.259  15.699  1.00  0.00     0.037 A 
HETATM   19  C   UNL     1     -46.802 -51.329  14.679  1.00  0.00     0.003 A 
HETATM   20  C   UNL     1     -46.493 -51.674  13.371  1.00  0.00     0.001 A 
HETATM   21  C   UNL     1     -46.004 -52.952  13.092  1.00  0.00     0.009 A 
HETATM   22  C   UNL     1     -45.828 -53.912  14.110  1.00  0.00    -0.029 A 
HETATM   23  C   UNL     1     -45.379 -55.277  13.676  1.00  0.00     0.051 C 
ENDBRANCH  16  17
ENDBRANCH  15  16
ENDBRANCH  12  15
ENDBRANCH  11  12
ENDBRANCH  10  11
BRANCH   1  24
HETATM   24  C   UNL     1     -43.701 -50.425  17.545  1.00  0.00     0.243 C 
BRANCH  24  25
HETATM   25  O   UNL     1     -44.905 -49.717  17.249  1.00  0.00    -0.389 OA
HETATM   26  C   UNL     1     -45.775 -49.683  18.371  1.00  0.00     0.202 C 
ENDBRANCH  24  25
ENDBRANCH   1  24
TORSDOF 8
ENDMDL
