MODEL 1
REMARK VINA RESULT:      -5.8      0.000      0.000
REMARK  5 active torsions:
REMARK  status: ('A' for Active; 'I' for Inactive)
REMARK    1  A    between atoms: N_7  and  C_8 
REMARK    2  A    between atoms: C_8  and  C_9 
REMARK       I    between atoms: C_9  and  N_11 
REMARK    3  A    between atoms: N_11  and  C_12 
REMARK    4  A    between atoms: C_12  and  C_18 
REMARK    5  A    between atoms: C_18  and  O_20 
ROOT
HETATM    1  C   UNL     1     -42.799 -52.466  12.872  1.00  0.00     0.237 C 
HETATM    2  O   UNL     1     -41.947 -52.761  13.704  1.00  0.00    -0.272 OA
HETATM    3  N   UNL     1     -42.749 -51.288  12.128  1.00  0.00    -0.341 N 
HETATM    4  H   UNL     1     -43.646 -50.954  11.777  1.00  0.00     0.163 HD
ENDROOT
BRANCH   3   5
HETATM    5  C   UNL     1     -41.671 -50.271  12.363  1.00  0.00     0.118 C 
HETATM    6  C   UNL     1     -41.415 -49.950  13.852  1.00  0.00     0.042 C 
HETATM    7  C   UNL     1     -42.570 -49.193  14.506  1.00  0.00     0.003 C 
HETATM    8  C   UNL     1     -42.904 -47.912  13.749  1.00  0.00     0.000 C 
HETATM    9  C   UNL     1     -43.176 -48.188  12.275  1.00  0.00     0.003 C 
HETATM   10  C   UNL     1     -42.027 -48.955  11.622  1.00  0.00     0.042 C 
BRANCH   5  11
HETATM   11  C   UNL     1     -40.359 -50.764  11.684  1.00  0.00     0.169 C 
HETATM   12  O   UNL     1     -39.483 -51.418  12.230  1.00  0.00    -0.648 OA
BRANCH  11  13
HETATM   13  O   UNL     1     -40.187 -50.236  10.441  1.00  0.00    -0.775 OA
HETATM   14  H   UNL     1     -41.037 -50.271   9.958  1.00  0.00     0.167 HD
ENDBRANCH  11  13
ENDBRANCH   5  11
ENDBRANCH   3   5
BRANCH   1  15
HETATM   15  C   UNL     1     -43.956 -53.414  12.542  1.00  0.00     0.235 C 
BRANCH  15  16
HETATM   16  N   UNL     1     -44.978 -53.456  13.565  1.00  0.00    -0.303 N 
HETATM   17  C   UNL     1     -46.057 -52.585  13.669  1.00  0.00     0.018 A 
HETATM   18  C   UNL     1     -46.373 -51.560  12.632  1.00  0.00     0.069 C 
HETATM   19  C   UNL     1     -46.781 -52.780  14.783  1.00  0.00     0.080 A 
HETATM   20  S   UNL     1     -46.154 -54.075  15.755  1.00  0.00    -0.039 SA
HETATM   21  C   UNL     1     -44.871 -54.386  14.583  1.00  0.00     0.290 A 
HETATM   22  O   UNL     1     -44.044 -55.281  14.673  1.00  0.00    -0.259 OA
ENDBRANCH  15  16
ENDBRANCH   1  15
TORSDOF 5
ENDMDL
MODEL 2
REMARK VINA RESULT:      -5.8      2.372      5.762
REMARK  5 active torsions:
REMARK  status: ('A' for Active; 'I' for Inactive)
REMARK    1  A    between atoms: N_7  and  C_8 
REMARK    2  A    between atoms: C_8  and  C_9 
REMARK       I    between atoms: C_9  and  N_11 
REMARK    3  A    between atoms: N_11  and  C_12 
REMARK    4  A    between atoms: C_12  and  C_18 
REMARK    5  A    between atoms: C_18  and  O_20 
ROOT
HETATM    1  C   UNL     1     -43.082 -52.481  13.971  1.00  0.00     0.237 C 
HETATM    2  O   UNL     1     -43.321 -52.876  12.834  1.00  0.00    -0.272 OA
HETATM    3  N   UNL     1     -43.948 -52.700  15.041  1.00  0.00    -0.341 N 
HETATM    4  H   UNL     1     -43.870 -52.034  15.810  1.00  0.00     0.163 HD
ENDROOT
BRANCH   3   5
HETATM    5  C   UNL     1     -45.271 -53.377  14.839  1.00  0.00     0.118 C 
HETATM    6  C   UNL     1     -46.258 -52.589  13.950  1.00  0.00     0.042 C 
HETATM    7  C   UNL     1     -46.771 -51.312  14.614  1.00  0.00     0.003 C 
HETATM    8  C   UNL     1     -47.409 -51.600  15.968  1.00  0.00     0.000 C 
HETATM    9  C   UNL     1     -46.461 -52.367  16.882  1.00  0.00     0.003 C 
HETATM   10  C   UNL     1     -45.938 -53.638  16.215  1.00  0.00     0.042 C 
BRANCH   5  11
HETATM   11  C   UNL     1     -45.023 -54.796  14.245  1.00  0.00     0.169 C 
HETATM   12  O   UNL     1     -44.323 -55.662  14.749  1.00  0.00    -0.648 OA
BRANCH  11  13
HETATM   13  O   UNL     1     -45.528 -54.928  12.987  1.00  0.00    -0.775 OA
HETATM   14  H   UNL     1     -46.208 -55.631  12.988  1.00  0.00     0.167 HD
ENDBRANCH  11  13
ENDBRANCH   5  11
ENDBRANCH   3   5
BRANCH   1  15
HETATM   15  C   UNL     1     -41.769 -51.770  14.310  1.00  0.00     0.235 C 
BRANCH  15  16
HETATM   16  N   UNL     1     -41.381 -50.777  13.332  1.00  0.00    -0.303 N 
HETATM   17  C   UNL     1     -42.001 -49.549  13.133  1.00  0.00     0.018 A 
HETATM   18  C   UNL     1     -43.086 -49.036  14.021  1.00  0.00     0.069 C 
HETATM   19  C   UNL     1     -41.508 -48.878  12.079  1.00  0.00     0.080 A 
HETATM   20  S   UNL     1     -40.232 -49.748  11.286  1.00  0.00    -0.039 SA
HETATM   21  C   UNL     1     -40.350 -51.065  12.455  1.00  0.00     0.290 A 
HETATM   22  O   UNL     1     -39.629 -52.052  12.473  1.00  0.00    -0.259 OA
ENDBRANCH  15  16
ENDBRANCH   1  15
TORSDOF 5
ENDMDL
MODEL 3
REMARK VINA RESULT:      -5.7      2.647      5.487
REMARK  5 active torsions:
REMARK  status: ('A' for Active; 'I' for Inactive)
REMARK    1  A    between atoms: N_7  and  C_8 
REMARK    2  A    between atoms: C_8  and  C_9 
REMARK       I    between atoms: C_9  and  N_11 
REMARK    3  A    between atoms: N_11  and  C_12 
REMARK    4  A    between atoms: C_12  and  C_18 
REMARK    5  A    between atoms: C_18  and  O_20 
ROOT
HETATM    1  C   UNL     1     -43.583 -52.751  12.779  1.00  0.00     0.237 C 
HETATM    2  O   UNL     1     -44.212 -53.436  11.979  1.00  0.00    -0.272 OA
HETATM    3  N   UNL     1     -43.935 -52.652  14.124  1.00  0.00    -0.341 N 
HETATM    4  H   UNL     1     -43.624 -51.803  14.597  1.00  0.00     0.163 HD
ENDROOT
BRANCH   3   5
HETATM    5  C   UNL     1     -45.164 -53.331  14.654  1.00  0.00     0.118 C 
HETATM    6  C   UNL     1     -46.486 -52.821  14.038  1.00  0.00     0.042 C 
HETATM    7  C   UNL     1     -46.831 -51.394  14.462  1.00  0.00     0.003 C 
HETATM    8  C   UNL     1     -46.877 -51.254  15.979  1.00  0.00     0.000 C 
HETATM    9  C   UNL     1     -45.584 -51.735  16.626  1.00  0.00     0.003 C 
HETATM   10  C   UNL     1     -45.232 -53.158  16.194  1.00  0.00     0.042 C 
BRANCH   5  11
HETATM   11  C   UNL     1     -45.023 -54.866  14.434  1.00  0.00     0.169 C 
HETATM   12  O   UNL     1     -44.130 -55.566  14.887  1.00  0.00    -0.648 OA
BRANCH  11  13
HETATM   13  O   UNL     1     -45.910 -55.344  13.519  1.00  0.00    -0.775 OA
HETATM   14  H   UNL     1     -45.518 -55.274  12.626  1.00  0.00     0.167 HD
ENDBRANCH  11  13
ENDBRANCH   5  11
ENDBRANCH   3   5
BRANCH   1  15
HETATM   15  C   UNL     1     -42.313 -52.002  12.365  1.00  0.00     0.235 C 
BRANCH  15  16
HETATM   16  N   UNL     1     -41.211 -52.181  13.285  1.00  0.00    -0.303 N 
HETATM   17  C   UNL     1     -40.694 -51.206  14.131  1.00  0.00     0.018 A 
HETATM   18  C   UNL     1     -41.319 -49.861  14.293  1.00  0.00     0.069 C 
HETATM   19  C   UNL     1     -39.596 -51.613  14.788  1.00  0.00     0.080 A 
HETATM   20  S   UNL     1     -39.159 -53.245  14.390  1.00  0.00    -0.039 SA
HETATM   21  C   UNL     1     -40.545 -53.393  13.307  1.00  0.00     0.290 A 
HETATM   22  O   UNL     1     -40.850 -54.407  12.696  1.00  0.00    -0.259 OA
ENDBRANCH  15  16
ENDBRANCH   1  15
TORSDOF 5
ENDMDL
MODEL 4
REMARK VINA RESULT:      -5.7      1.666      1.916
REMARK  5 active torsions:
REMARK  status: ('A' for Active; 'I' for Inactive)
REMARK    1  A    between atoms: N_7  and  C_8 
REMARK    2  A    between atoms: C_8  and  C_9 
REMARK       I    between atoms: C_9  and  N_11 
REMARK    3  A    between atoms: N_11  and  C_12 
REMARK    4  A    between atoms: C_12  and  C_18 
REMARK    5  A    between atoms: C_18  and  O_20 
ROOT
HETATM    1  C   UNL     1     -43.400 -51.028  13.461  1.00  0.00     0.237 C 
HETATM    2  O   UNL     1     -42.809 -51.328  14.493  1.00  0.00    -0.272 OA
HETATM    3  N   UNL     1     -42.736 -50.612  12.308  1.00  0.00    -0.341 N 
HETATM    4  H   UNL     1     -43.285 -50.035  11.671  1.00  0.00     0.163 HD
ENDROOT
BRANCH   3   5
HETATM    5  C   UNL     1     -41.246 -50.439  12.293  1.00  0.00     0.118 C 
HETATM    6  C   UNL     1     -40.683 -49.685  13.519  1.00  0.00     0.042 C 
HETATM    7  C   UNL     1     -41.070 -48.208  13.540  1.00  0.00     0.003 C 
HETATM    8  C   UNL     1     -40.651 -47.498  12.257  1.00  0.00     0.000 C 
HETATM    9  C   UNL     1     -41.198 -48.204  11.023  1.00  0.00     0.003 C 
HETATM   10  C   UNL     1     -40.822 -49.685  11.006  1.00  0.00     0.042 C 
BRANCH   5  11
HETATM   11  C   UNL     1     -40.579 -51.841  12.168  1.00  0.00     0.169 C 
HETATM   12  O   UNL     1     -39.581 -52.206  12.772  1.00  0.00    -0.648 OA
BRANCH  11  13
HETATM   13  O   UNL     1     -41.119 -52.585  11.164  1.00  0.00    -0.775 OA
HETATM   14  H   UNL     1     -41.407 -53.447  11.525  1.00  0.00     0.167 HD
ENDBRANCH  11  13
ENDBRANCH   5  11
ENDBRANCH   3   5
BRANCH   1  15
HETATM   15  C   UNL     1     -44.922 -51.154  13.346  1.00  0.00     0.235 C 
BRANCH  15  16
HETATM   16  N   UNL     1     -45.427 -52.448  13.748  1.00  0.00    -0.303 N 
HETATM   17  C   UNL     1     -46.286 -52.688  14.813  1.00  0.00     0.018 A 
HETATM   18  C   UNL     1     -46.916 -51.593  15.608  1.00  0.00     0.069 C 
HETATM   19  C   UNL     1     -46.497 -53.996  15.032  1.00  0.00     0.080 A 
HETATM   20  S   UNL     1     -45.636 -54.997  13.904  1.00  0.00    -0.039 SA
HETATM   21  C   UNL     1     -44.986 -53.577  13.080  1.00  0.00     0.290 A 
HETATM   22  O   UNL     1     -44.276 -53.609  12.086  1.00  0.00    -0.259 OA
ENDBRANCH  15  16
ENDBRANCH   1  15
TORSDOF 5
ENDMDL
MODEL 5
REMARK VINA RESULT:      -5.6      2.648      3.936
REMARK  5 active torsions:
REMARK  status: ('A' for Active; 'I' for Inactive)
REMARK    1  A    between atoms: N_7  and  C_8 
REMARK    2  A    between atoms: C_8  and  C_9 
REMARK       I    between atoms: C_9  and  N_11 
REMARK    3  A    between atoms: N_11  and  C_12 
REMARK    4  A    between atoms: C_12  and  C_18 
REMARK    5  A    between atoms: C_18  and  O_20 
ROOT
HETATM    1  C   UNL     1     -43.079 -51.705  13.351  1.00  0.00     0.237 C 
HETATM    2  O   UNL     1     -43.260 -52.378  12.341  1.00  0.00    -0.272 OA
HETATM    3  N   UNL     1     -41.994 -51.905  14.203  1.00  0.00    -0.341 N 
HETATM    4  H   UNL     1     -42.130 -51.595  15.165  1.00  0.00     0.163 HD
ENDROOT
BRANCH   3   5
HETATM    5  C   UNL     1     -41.017 -53.018  13.964  1.00  0.00     0.118 C 
HETATM    6  C   UNL     1     -41.666 -54.413  13.828  1.00  0.00     0.042 C 
HETATM    7  C   UNL     1     -42.256 -54.926  15.141  1.00  0.00     0.003 C 
HETATM    8  C   UNL     1     -41.217 -54.943  16.257  1.00  0.00     0.000 C 
HETATM    9  C   UNL     1     -40.561 -53.579  16.431  1.00  0.00     0.003 C 
HETATM   10  C   UNL     1     -39.980 -53.059  15.117  1.00  0.00     0.042 C 
BRANCH   5  11
HETATM   11  C   UNL     1     -40.180 -52.686  12.692  1.00  0.00     0.169 C 
HETATM   12  O   UNL     1     -39.383 -51.766  12.590  1.00  0.00    -0.648 OA
BRANCH  11  13
HETATM   13  O   UNL     1     -40.558 -53.427  11.614  1.00  0.00    -0.775 OA
HETATM   14  H   UNL     1     -39.759 -53.761  11.160  1.00  0.00     0.167 HD
ENDBRANCH  11  13
ENDBRANCH   5  11
ENDBRANCH   3   5
BRANCH   1  15
HETATM   15  C   UNL     1     -44.006 -50.542  13.715  1.00  0.00     0.235 C 
BRANCH  15  16
HETATM   16  N   UNL     1     -45.051 -50.906  14.648  1.00  0.00    -0.303 N 
HETATM   17  C   UNL     1     -46.317 -51.365  14.308  1.00  0.00     0.018 A 
HETATM   18  C   UNL     1     -46.717 -51.675  12.903  1.00  0.00     0.069 C 
HETATM   19  C   UNL     1     -47.123 -51.513  15.371  1.00  0.00     0.080 A 
HETATM   20  S   UNL     1     -46.330 -51.096  16.859  1.00  0.00    -0.039 SA
HETATM   21  C   UNL     1     -44.830 -50.734  16.002  1.00  0.00     0.290 A 
HETATM   22  O   UNL     1     -43.784 -50.397  16.536  1.00  0.00    -0.259 OA
ENDBRANCH  15  16
ENDBRANCH   1  15
TORSDOF 5
ENDMDL
MODEL 6
REMARK VINA RESULT:      -5.4      3.547      6.162
REMARK  5 active torsions:
REMARK  status: ('A' for Active; 'I' for Inactive)
REMARK    1  A    between atoms: N_7  and  C_8 
REMARK    2  A    between atoms: C_8  and  C_9 
REMARK       I    between atoms: C_9  and  N_11 
REMARK    3  A    between atoms: N_11  and  C_12 
REMARK    4  A    between atoms: C_12  and  C_18 
REMARK    5  A    between atoms: C_18  and  O_20 
ROOT
HETATM    1  C   UNL     1     -39.720 -51.727  14.139  1.00  0.00     0.237 C 
HETATM    2  O   UNL     1     -39.113 -52.080  13.133  1.00  0.00    -0.272 OA
HETATM    3  N   UNL     1     -40.477 -52.609  14.909  1.00  0.00    -0.341 N 
HETATM    4  H   UNL     1     -41.224 -52.182  15.457  1.00  0.00     0.163 HD
ENDROOT
BRANCH   3   5
HETATM    5  C   UNL     1     -40.648 -54.043  14.500  1.00  0.00     0.118 C 
HETATM    6  C   UNL     1     -41.314 -54.233  13.118  1.00  0.00     0.042 C 
HETATM    7  C   UNL     1     -42.788 -53.829  13.106  1.00  0.00     0.003 C 
HETATM    8  C   UNL     1     -43.583 -54.574  14.173  1.00  0.00     0.000 C 
HETATM    9  C   UNL     1     -42.965 -54.401  15.555  1.00  0.00     0.003 C 
HETATM   10  C   UNL     1     -41.488 -54.792  15.566  1.00  0.00     0.042 C 
BRANCH   5  11
HETATM   11  C   UNL     1     -39.257 -54.742  14.529  1.00  0.00     0.169 C 
HETATM   12  O   UNL     1     -38.575 -54.920  15.527  1.00  0.00    -0.648 OA
BRANCH  11  13
HETATM   13  O   UNL     1     -38.772 -54.988  13.280  1.00  0.00    -0.775 OA
HETATM   14  H   UNL     1     -38.252 -55.815  13.296  1.00  0.00     0.167 HD
ENDBRANCH  11  13
ENDBRANCH   5  11
ENDBRANCH   3   5
BRANCH   1  15
HETATM   15  C   UNL     1     -39.635 -50.290  14.661  1.00  0.00     0.235 C 
BRANCH  15  16
HETATM   16  N   UNL     1     -40.056 -49.299  13.695  1.00  0.00    -0.303 N 
HETATM   17  C   UNL     1     -41.370 -49.014  13.345  1.00  0.00     0.018 A 
HETATM   18  C   UNL     1     -42.543 -49.618  14.043  1.00  0.00     0.069 C 
HETATM   19  C   UNL     1     -41.464 -48.133  12.336  1.00  0.00     0.080 A 
HETATM   20  S   UNL     1     -39.907 -47.605  11.779  1.00  0.00    -0.039 SA
HETATM   21  C   UNL     1     -39.093 -48.600  12.989  1.00  0.00     0.290 A 
HETATM   22  O   UNL     1     -37.884 -48.643  13.161  1.00  0.00    -0.259 OA
ENDBRANCH  15  16
ENDBRANCH   1  15
TORSDOF 5
ENDMDL
MODEL 7
REMARK VINA RESULT:      -5.4      2.596      3.459
REMARK  5 active torsions:
REMARK  status: ('A' for Active; 'I' for Inactive)
REMARK    1  A    between atoms: N_7  and  C_8 
REMARK    2  A    between atoms: C_8  and  C_9 
REMARK       I    between atoms: C_9  and  N_11 
REMARK    3  A    between atoms: N_11  and  C_12 
REMARK    4  A    between atoms: C_12  and  C_18 
REMARK    5  A    between atoms: C_18  and  O_20 
ROOT
HETATM    1  C   UNL     1     -40.419 -51.947  12.598  1.00  0.00     0.237 C 
HETATM    2  O   UNL     1     -39.670 -52.834  12.996  1.00  0.00    -0.272 OA
HETATM    3  N   UNL     1     -40.010 -50.621  12.464  1.00  0.00    -0.341 N 
HETATM    4  H   UNL     1     -40.755 -49.926  12.511  1.00  0.00     0.163 HD
ENDROOT
BRANCH   3   5
HETATM    5  C   UNL     1     -38.633 -50.191  12.875  1.00  0.00     0.118 C 
HETATM    6  C   UNL     1     -38.246 -50.592  14.316  1.00  0.00     0.042 C 
HETATM    7  C   UNL     1     -39.035 -49.828  15.379  1.00  0.00     0.003 C 
HETATM    8  C   UNL     1     -38.898 -48.320  15.206  1.00  0.00     0.000 C 
HETATM    9  C   UNL     1     -39.282 -47.881  13.798  1.00  0.00     0.003 C 
HETATM   10  C   UNL     1     -38.503 -48.652  12.733  1.00  0.00     0.042 C 
BRANCH   5  11
HETATM   11  C   UNL     1     -37.603 -50.770  11.860  1.00  0.00     0.169 C 
HETATM   12  O   UNL     1     -36.759 -51.617  12.113  1.00  0.00    -0.648 OA
BRANCH  11  13
HETATM   13  O   UNL     1     -37.608 -50.100  10.675  1.00  0.00    -0.775 OA
HETATM   14  H   UNL     1     -36.689 -50.010  10.354  1.00  0.00     0.167 HD
ENDBRANCH  11  13
ENDBRANCH   5  11
ENDBRANCH   3   5
BRANCH   1  15
HETATM   15  C   UNL     1     -41.852 -52.251  12.153  1.00  0.00     0.235 C 
BRANCH  15  16
HETATM   16  N   UNL     1     -42.832 -52.082  13.205  1.00  0.00    -0.303 N 
HETATM   17  C   UNL     1     -43.279 -53.078  14.064  1.00  0.00     0.018 A 
HETATM   18  C   UNL     1     -42.686 -54.448  14.094  1.00  0.00     0.069 C 
HETATM   19  C   UNL     1     -44.277 -52.671  14.864  1.00  0.00     0.080 A 
HETATM   20  S   UNL     1     -44.701 -51.009  14.590  1.00  0.00    -0.039 SA
HETATM   21  C   UNL     1     -43.448 -50.853  13.356  1.00  0.00     0.290 A 
HETATM   22  O   UNL     1     -43.182 -49.822  12.756  1.00  0.00    -0.259 OA
ENDBRANCH  15  16
ENDBRANCH   1  15
TORSDOF 5
ENDMDL
MODEL 8
REMARK VINA RESULT:      -5.4      3.166      6.015
REMARK  5 active torsions:
REMARK  status: ('A' for Active; 'I' for Inactive)
REMARK    1  A    between atoms: N_7  and  C_8 
REMARK    2  A    between atoms: C_8  and  C_9 
REMARK       I    between atoms: C_9  and  N_11 
REMARK    3  A    between atoms: N_11  and  C_12 
REMARK    4  A    between atoms: C_12  and  C_18 
REMARK    5  A    between atoms: C_18  and  O_20 
ROOT
HETATM    1  C   UNL     1     -42.075 -50.850  13.366  1.00  0.00     0.237 C 
HETATM    2  O   UNL     1     -41.935 -50.797  12.149  1.00  0.00    -0.272 OA
HETATM    3  N   UNL     1     -42.167 -52.055  14.061  1.00  0.00    -0.341 N 
HETATM    4  H   UNL     1     -42.654 -52.009  14.956  1.00  0.00     0.163 HD
ENDROOT
BRANCH   3   5
HETATM    5  C   UNL     1     -42.170 -53.368  13.335  1.00  0.00     0.118 C 
HETATM    6  C   UNL     1     -43.263 -53.490  12.250  1.00  0.00     0.042 C 
HETATM    7  C   UNL     1     -44.675 -53.563  12.830  1.00  0.00     0.003 C 
HETATM    8  C   UNL     1     -44.812 -54.701  13.835  1.00  0.00     0.000 C 
HETATM    9  C   UNL     1     -43.758 -54.610  14.932  1.00  0.00     0.003 C 
HETATM   10  C   UNL     1     -42.346 -54.526  14.353  1.00  0.00     0.042 C 
BRANCH   5  11
HETATM   11  C   UNL     1     -40.762 -53.601  12.712  1.00  0.00     0.169 C 
HETATM   12  O   UNL     1     -39.732 -53.792  13.342  1.00  0.00    -0.648 OA
BRANCH  11  13
HETATM   13  O   UNL     1     -40.747 -53.389  11.367  1.00  0.00    -0.775 OA
HETATM   14  H   UNL     1     -40.717 -54.252  10.908  1.00  0.00     0.167 HD
ENDBRANCH  11  13
ENDBRANCH   5  11
ENDBRANCH   3   5
BRANCH   1  15
HETATM   15  C   UNL     1     -42.094 -49.582  14.225  1.00  0.00     0.235 C 
BRANCH  15  16
HETATM   16  N   UNL     1     -41.287 -48.509  13.688  1.00  0.00    -0.303 N 
HETATM   17  C   UNL     1     -39.918 -48.354  13.872  1.00  0.00     0.018 A 
HETATM   18  C   UNL     1     -39.071 -49.378  14.551  1.00  0.00     0.069 C 
HETATM   19  C   UNL     1     -39.449 -47.204  13.361  1.00  0.00     0.080 A 
HETATM   20  S   UNL     1     -40.698 -46.260  12.612  1.00  0.00    -0.039 SA
HETATM   21  C   UNL     1     -41.906 -47.494  12.980  1.00  0.00     0.290 A 
HETATM   22  O   UNL     1     -43.081 -47.443  12.650  1.00  0.00    -0.259 OA
ENDBRANCH  15  16
ENDBRANCH   1  15
TORSDOF 5
ENDMDL
MODEL 9
REMARK VINA RESULT:      -5.3      2.536      5.757
REMARK  5 active torsions:
REMARK  status: ('A' for Active; 'I' for Inactive)
REMARK    1  A    between atoms: N_7  and  C_8 
REMARK    2  A    between atoms: C_8  and  C_9 
REMARK       I    between atoms: C_9  and  N_11 
REMARK    3  A    between atoms: N_11  and  C_12 
REMARK    4  A    between atoms: C_12  and  C_18 
REMARK    5  A    between atoms: C_18  and  O_20 
ROOT
HETATM    1  C   UNL     1     -43.191 -52.203  13.675  1.00  0.00     0.237 C 
HETATM    2  O   UNL     1     -43.525 -52.608  12.566  1.00  0.00    -0.272 OA
HETATM    3  N   UNL     1     -43.915 -52.492  14.831  1.00  0.00    -0.341 N 
HETATM    4  H   UNL     1     -43.803 -51.828  15.596  1.00  0.00     0.163 HD
ENDROOT
BRANCH   3   5
HETATM    5  C   UNL     1     -45.200 -53.265  14.765  1.00  0.00     0.118 C 
HETATM    6  C   UNL     1     -46.307 -52.586  13.929  1.00  0.00     0.042 C 
HETATM    7  C   UNL     1     -46.854 -51.318  14.582  1.00  0.00     0.003 C 
HETATM    8  C   UNL     1     -47.361 -51.586  15.995  1.00  0.00     0.000 C 
HETATM    9  C   UNL     1     -46.292 -52.245  16.857  1.00  0.00     0.003 C 
HETATM   10  C   UNL     1     -45.736 -53.508  16.201  1.00  0.00     0.042 C 
BRANCH   5  11
HETATM   11  C   UNL     1     -44.900 -54.689  14.210  1.00  0.00     0.169 C 
HETATM   12  O   UNL     1     -44.144 -55.503  14.719  1.00  0.00    -0.648 OA
BRANCH  11  13
HETATM   13  O   UNL     1     -45.435 -54.888  12.973  1.00  0.00    -0.775 OA
HETATM   14  H   UNL     1     -45.250 -55.805  12.688  1.00  0.00     0.167 HD
ENDBRANCH  11  13
ENDBRANCH   5  11
ENDBRANCH   3   5
BRANCH   1  15
HETATM   15  C   UNL     1     -41.905 -51.397  13.879  1.00  0.00     0.235 C 
BRANCH  15  16
HETATM   16  N   UNL     1     -42.019 -50.014  13.472  1.00  0.00    -0.303 N 
HETATM   17  C   UNL     1     -41.361 -49.428  12.398  1.00  0.00     0.018 A 
HETATM   18  C   UNL     1     -40.540 -50.209  11.427  1.00  0.00     0.069 C 
HETATM   19  C   UNL     1     -41.559 -48.102  12.323  1.00  0.00     0.080 A 
HETATM   20  S   UNL     1     -42.592 -47.520  13.591  1.00  0.00    -0.039 SA
HETATM   21  C   UNL     1     -42.789 -49.152  14.233  1.00  0.00     0.290 A 
HETATM   22  O   UNL     1     -43.497 -49.449  15.184  1.00  0.00    -0.259 OA
ENDBRANCH  15  16
ENDBRANCH   1  15
TORSDOF 5
ENDMDL
