MODEL 1
REMARK VINA RESULT:      -5.9      0.000      0.000
REMARK  5 active torsions:
REMARK  status: ('A' for Active; 'I' for Inactive)
REMARK    1  A    between atoms: O_2  and  C_3 
REMARK    2  A    between atoms: C_6  and  N_7 
REMARK       I    between atoms: N_7  and  C_8 
REMARK       I    between atoms: C_8  and  N_10 
REMARK    3  A    between atoms: N_10  and  C_11 
REMARK    4  A    between atoms: C_11  and  C_12 
REMARK    5  A    between atoms: C_12  and  N_14 
ROOT
HETATM    1  N   UNL     1     -41.387 -49.020  10.469  1.00  0.00    -0.308 N 
HETATM    2  C   UNL     1     -41.181 -49.713  11.640  1.00  0.00     0.320 C 
HETATM    3  O   UNL     1     -41.326 -49.263  12.771  1.00  0.00    -0.247 OA
HETATM    4  N   UNL     1     -40.756 -51.009  11.424  1.00  0.00    -0.341 N 
HETATM    5  H   UNL     1     -40.904 -49.381   9.659  1.00  0.00     0.170 HD
HETATM    6  H   UNL     1     -41.152 -51.455  10.608  1.00  0.00     0.164 HD
ENDROOT
BRANCH   1   7
HETATM    7  C   UNL     1     -41.855 -47.684  10.412  1.00  0.00     0.051 A 
HETATM    8  C   UNL     1     -41.058 -46.580  10.707  1.00  0.00     0.035 A 
HETATM    9  C   UNL     1     -41.565 -45.292  10.555  1.00  0.00     0.058 A 
HETATM   10  C   UNL     1     -42.871 -45.145  10.128  1.00  0.00     0.141 A 
HETATM   11  N   UNL     1     -43.700 -46.183   9.884  1.00  0.00    -0.345 N 
HETATM   12  C   UNL     1     -43.173 -47.424  10.036  1.00  0.00     0.119 A 
ATOM     13  HN  UNL     1     -44.670 -46.041   9.601  1.00  0.00     0.167 HD
BRANCH  10  14
HETATM   14  O   UNL     1     -43.304 -43.846   9.945  1.00  0.00    -0.341 OA
HETATM   15  C   UNL     1     -42.971 -42.989  11.029  1.00  0.00     0.211 C 
ENDBRANCH  10  14
ENDBRANCH   1   7
BRANCH   4  16
HETATM   16  C   UNL     1     -40.581 -51.832  12.616  1.00  0.00     0.159 C 
BRANCH  16  17
HETATM   17  C   UNL     1     -41.584 -53.006  12.787  1.00  0.00     0.236 C 
HETATM   18  C   UNL     1     -40.779 -54.319  12.824  1.00  0.00     0.044 C 
BRANCH  17  19
HETATM   19  N   UNL     1     -42.413 -52.860  14.020  1.00  0.00     0.098 N 
HETATM   20  C   UNL     1     -43.230 -54.056  14.345  1.00  0.00     0.299 C 
HETATM   21  C   UNL     1     -44.422 -54.262  13.395  1.00  0.00     0.198 C 
HETATM   22  O   UNL     1     -45.281 -53.116  13.374  1.00  0.00    -0.388 OA
HETATM   23  C   UNL     1     -44.552 -51.927  13.041  1.00  0.00     0.198 C 
HETATM   24  C   UNL     1     -43.363 -51.716  13.992  1.00  0.00     0.299 C 
ENDBRANCH  17  19
ENDBRANCH  16  17
ENDBRANCH   4  16
TORSDOF 5
ENDMDL
MODEL 2
REMARK VINA RESULT:      -5.8      3.510      7.303
REMARK  5 active torsions:
REMARK  status: ('A' for Active; 'I' for Inactive)
REMARK    1  A    between atoms: O_2  and  C_3 
REMARK    2  A    between atoms: C_6  and  N_7 
REMARK       I    between atoms: N_7  and  C_8 
REMARK       I    between atoms: C_8  and  N_10 
REMARK    3  A    between atoms: N_10  and  C_11 
REMARK    4  A    between atoms: C_11  and  C_12 
REMARK    5  A    between atoms: C_12  and  N_14 
ROOT
HETATM    1  N   UNL     1     -42.289 -52.574  11.786  1.00  0.00    -0.308 N 
HETATM    2  C   UNL     1     -41.770 -51.332  12.072  1.00  0.00     0.320 C 
HETATM    3  O   UNL     1     -42.097 -50.620  13.015  1.00  0.00    -0.247 OA
HETATM    4  N   UNL     1     -40.822 -50.927  11.152  1.00  0.00    -0.341 N 
HETATM    5  H   UNL     1     -42.197 -52.874  10.827  1.00  0.00     0.170 HD
HETATM    6  H   UNL     1     -40.245 -51.670  10.782  1.00  0.00     0.164 HD
ENDROOT
BRANCH   1   7
HETATM    7  C   UNL     1     -43.251 -53.232  12.591  1.00  0.00     0.051 A 
HETATM    8  C   UNL     1     -42.917 -54.112  13.619  1.00  0.00     0.035 A 
HETATM    9  C   UNL     1     -43.915 -54.664  14.418  1.00  0.00     0.058 A 
HETATM   10  C   UNL     1     -45.230 -54.331  14.152  1.00  0.00     0.141 A 
HETATM   11  N   UNL     1     -45.608 -53.529  13.134  1.00  0.00    -0.345 N 
HETATM   12  C   UNL     1     -44.611 -53.003  12.379  1.00  0.00     0.119 A 
ATOM     13  HN  UNL     1     -46.590 -53.328  12.943  1.00  0.00     0.167 HD
BRANCH  10  14
HETATM   14  O   UNL     1     -46.173 -54.866  15.008  1.00  0.00    -0.341 OA
HETATM   15  C   UNL     1     -46.271 -54.162  16.240  1.00  0.00     0.211 C 
ENDBRANCH  10  14
ENDBRANCH   1   7
BRANCH   4  16
HETATM   16  C   UNL     1     -40.173 -49.648  11.423  1.00  0.00     0.159 C 
BRANCH  16  17
HETATM   17  C   UNL     1     -38.899 -49.705  12.309  1.00  0.00     0.236 C 
HETATM   18  C   UNL     1     -37.681 -49.887  11.383  1.00  0.00     0.044 C 
BRANCH  17  19
HETATM   19  N   UNL     1     -38.746 -48.480  13.149  1.00  0.00     0.098 N 
HETATM   20  C   UNL     1     -37.497 -48.449  13.951  1.00  0.00     0.299 C 
HETATM   21  C   UNL     1     -37.502 -49.433  15.133  1.00  0.00     0.198 C 
HETATM   22  O   UNL     1     -38.612 -49.196  16.008  1.00  0.00    -0.388 OA
HETATM   23  C   UNL     1     -39.854 -49.238  15.294  1.00  0.00     0.198 C 
HETATM   24  C   UNL     1     -39.853 -48.252  14.114  1.00  0.00     0.299 C 
ENDBRANCH  17  19
ENDBRANCH  16  17
ENDBRANCH   4  16
TORSDOF 5
ENDMDL
MODEL 3
REMARK VINA RESULT:      -5.8      2.126      2.940
REMARK  5 active torsions:
REMARK  status: ('A' for Active; 'I' for Inactive)
REMARK    1  A    between atoms: O_2  and  C_3 
REMARK    2  A    between atoms: C_6  and  N_7 
REMARK       I    between atoms: N_7  and  C_8 
REMARK       I    between atoms: C_8  and  N_10 
REMARK    3  A    between atoms: N_10  and  C_11 
REMARK    4  A    between atoms: C_11  and  C_12 
REMARK    5  A    between atoms: C_12  and  N_14 
ROOT
HETATM    1  N   UNL     1     -42.304 -48.954  11.310  1.00  0.00    -0.308 N 
HETATM    2  C   UNL     1     -42.948 -49.191  12.503  1.00  0.00     0.320 C 
HETATM    3  O   UNL     1     -42.988 -48.424  13.459  1.00  0.00    -0.247 OA
HETATM    4  N   UNL     1     -43.553 -50.432  12.544  1.00  0.00    -0.341 N 
HETATM    5  H   UNL     1     -42.056 -49.775  10.778  1.00  0.00     0.170 HD
HETATM    6  H   UNL     1     -43.938 -50.746  11.662  1.00  0.00     0.164 HD
ENDROOT
BRANCH   1   7
HETATM    7  C   UNL     1     -41.634 -47.745  11.000  1.00  0.00     0.051 A 
HETATM    8  C   UNL     1     -40.365 -47.428  11.482  1.00  0.00     0.035 A 
HETATM    9  C   UNL     1     -39.736 -46.254  11.073  1.00  0.00     0.058 A 
HETATM   10  C   UNL     1     -40.408 -45.417  10.203  1.00  0.00     0.141 A 
HETATM   11  N   UNL     1     -41.659 -45.652   9.753  1.00  0.00    -0.345 N 
HETATM   12  C   UNL     1     -42.240 -46.807  10.165  1.00  0.00     0.119 A 
ATOM     13  HN  UNL     1     -42.141 -44.997   9.136  1.00  0.00     0.167 HD
BRANCH  10  14
HETATM   14  O   UNL     1     -39.716 -44.295   9.790  1.00  0.00    -0.341 OA
HETATM   15  C   UNL     1     -38.645 -44.593   8.905  1.00  0.00     0.211 C 
ENDBRANCH  10  14
ENDBRANCH   1   7
BRANCH   4  16
HETATM   16  C   UNL     1     -44.316 -50.733  13.750  1.00  0.00     0.159 C 
BRANCH  16  17
HETATM   17  C   UNL     1     -45.046 -52.104  13.771  1.00  0.00     0.236 C 
HETATM   18  C   UNL     1     -46.390 -51.941  13.036  1.00  0.00     0.044 C 
BRANCH  17  19
HETATM   19  N   UNL     1     -44.227 -53.184  13.143  1.00  0.00     0.098 N 
HETATM   20  C   UNL     1     -45.001 -54.401  12.791  1.00  0.00     0.299 C 
HETATM   21  C   UNL     1     -45.424 -55.234  14.012  1.00  0.00     0.198 C 
HETATM   22  O   UNL     1     -44.291 -55.625  14.799  1.00  0.00    -0.388 OA
HETATM   23  C   UNL     1     -43.515 -54.486  15.192  1.00  0.00     0.198 C 
HETATM   24  C   UNL     1     -43.087 -53.654  13.972  1.00  0.00     0.299 C 
ENDBRANCH  17  19
ENDBRANCH  16  17
ENDBRANCH   4  16
TORSDOF 5
ENDMDL
MODEL 4
REMARK VINA RESULT:      -5.5      1.875      2.249
REMARK  5 active torsions:
REMARK  status: ('A' for Active; 'I' for Inactive)
REMARK    1  A    between atoms: O_2  and  C_3 
REMARK    2  A    between atoms: C_6  and  N_7 
REMARK       I    between atoms: N_7  and  C_8 
REMARK       I    between atoms: C_8  and  N_10 
REMARK    3  A    between atoms: N_10  and  C_11 
REMARK    4  A    between atoms: C_11  and  C_12 
REMARK    5  A    between atoms: C_12  and  N_14 
ROOT
HETATM    1  N   UNL     1     -41.191 -49.898  11.103  1.00  0.00    -0.308 N 
HETATM    2  C   UNL     1     -41.998 -50.515  12.032  1.00  0.00     0.320 C 
HETATM    3  O   UNL     1     -42.654 -49.947  12.898  1.00  0.00    -0.247 OA
HETATM    4  N   UNL     1     -41.986 -51.891  11.918  1.00  0.00    -0.341 N 
HETATM    5  H   UNL     1     -40.463 -50.475  10.707  1.00  0.00     0.170 HD
HETATM    6  H   UNL     1     -41.908 -52.238  10.971  1.00  0.00     0.164 HD
ENDROOT
BRANCH   1   7
HETATM    7  C   UNL     1     -41.052 -48.493  10.985  1.00  0.00     0.051 A 
HETATM    8  C   UNL     1     -40.044 -47.768  11.617  1.00  0.00     0.035 A 
HETATM    9  C   UNL     1     -39.923 -46.398  11.393  1.00  0.00     0.058 A 
HETATM   10  C   UNL     1     -40.834 -45.787  10.552  1.00  0.00     0.141 A 
HETATM   11  N   UNL     1     -41.861 -46.435   9.961  1.00  0.00    -0.345 N 
HETATM   12  C   UNL     1     -41.945 -47.769  10.195  1.00  0.00     0.119 A 
ATOM     13  HN  UNL     1     -42.536 -45.949   9.371  1.00  0.00     0.167 HD
BRANCH  10  14
HETATM   14  O   UNL     1     -40.635 -44.439  10.325  1.00  0.00    -0.341 OA
HETATM   15  C   UNL     1     -40.964 -43.630  11.447  1.00  0.00     0.211 C 
ENDBRANCH  10  14
ENDBRANCH   1   7
BRANCH   4  16
HETATM   16  C   UNL     1     -42.870 -52.617  12.824  1.00  0.00     0.159 C 
BRANCH  16  17
HETATM   17  C   UNL     1     -42.220 -53.777  13.626  1.00  0.00     0.236 C 
HETATM   18  C   UNL     1     -40.896 -54.154  12.932  1.00  0.00     0.044 C 
BRANCH  17  19
HETATM   19  N   UNL     1     -41.982 -53.407  15.053  1.00  0.00     0.098 N 
HETATM   20  C   UNL     1     -41.389 -54.497  15.869  1.00  0.00     0.299 C 
HETATM   21  C   UNL     1     -42.375 -55.636  16.179  1.00  0.00     0.198 C 
HETATM   22  O   UNL     1     -43.546 -55.151  16.847  1.00  0.00    -0.388 OA
HETATM   23  C   UNL     1     -44.179 -54.109  16.094  1.00  0.00     0.198 C 
HETATM   24  C   UNL     1     -43.197 -52.966  15.786  1.00  0.00     0.299 C 
ENDBRANCH  17  19
ENDBRANCH  16  17
ENDBRANCH   4  16
TORSDOF 5
ENDMDL
MODEL 5
REMARK VINA RESULT:      -5.3      1.724      2.113
REMARK  5 active torsions:
REMARK  status: ('A' for Active; 'I' for Inactive)
REMARK    1  A    between atoms: O_2  and  C_3 
REMARK    2  A    between atoms: C_6  and  N_7 
REMARK       I    between atoms: N_7  and  C_8 
REMARK       I    between atoms: C_8  and  N_10 
REMARK    3  A    between atoms: N_10  and  C_11 
REMARK    4  A    between atoms: C_11  and  C_12 
REMARK    5  A    between atoms: C_12  and  N_14 
ROOT
HETATM    1  N   UNL     1     -41.954 -49.339  11.091  1.00  0.00    -0.308 N 
HETATM    2  C   UNL     1     -42.099 -50.073  12.246  1.00  0.00     0.320 C 
HETATM    3  O   UNL     1     -42.113 -49.618  13.385  1.00  0.00    -0.247 OA
HETATM    4  N   UNL     1     -42.208 -51.429  12.006  1.00  0.00    -0.341 N 
HETATM    5  H   UNL     1     -41.611 -49.850  10.291  1.00  0.00     0.170 HD
HETATM    6  H   UNL     1     -42.705 -51.671  11.158  1.00  0.00     0.164 HD
ENDROOT
BRANCH   1   7
HETATM    7  C   UNL     1     -41.854 -47.926  11.060  1.00  0.00     0.051 A 
HETATM    8  C   UNL     1     -40.639 -47.244  11.056  1.00  0.00     0.035 A 
HETATM    9  C   UNL     1     -40.617 -45.856  10.946  1.00  0.00     0.058 A 
HETATM   10  C   UNL     1     -41.822 -45.184  10.861  1.00  0.00     0.141 A 
HETATM   11  N   UNL     1     -43.025 -45.794  10.916  1.00  0.00    -0.345 N 
HETATM   12  C   UNL     1     -43.010 -47.148  11.017  1.00  0.00     0.119 A 
ATOM     13  HN  UNL     1     -43.898 -45.267  10.884  1.00  0.00     0.167 HD
BRANCH  10  14
HETATM   14  O   UNL     1     -41.739 -43.815  10.701  1.00  0.00    -0.341 OA
HETATM   15  C   UNL     1     -40.478 -43.283  11.084  1.00  0.00     0.211 C 
ENDBRANCH  10  14
ENDBRANCH   1   7
BRANCH   4  16
HETATM   16  C   UNL     1     -42.434 -52.270  13.176  1.00  0.00     0.159 C 
BRANCH  16  17
HETATM   17  C   UNL     1     -43.909 -52.671  13.453  1.00  0.00     0.236 C 
HETATM   18  C   UNL     1     -44.221 -53.939  12.636  1.00  0.00     0.044 C 
BRANCH  17  19
HETATM   19  N   UNL     1     -44.163 -52.903  14.906  1.00  0.00     0.098 N 
HETATM   20  C   UNL     1     -45.596 -53.090  15.247  1.00  0.00     0.299 C 
HETATM   21  C   UNL     1     -46.421 -51.795  15.163  1.00  0.00     0.198 C 
HETATM   22  O   UNL     1     -45.880 -50.772  16.009  1.00  0.00    -0.388 OA
HETATM   23  C   UNL     1     -44.500 -50.527  15.710  1.00  0.00     0.198 C 
HETATM   24  C   UNL     1     -43.672 -51.820  15.798  1.00  0.00     0.299 C 
ENDBRANCH  17  19
ENDBRANCH  16  17
ENDBRANCH   4  16
TORSDOF 5
ENDMDL
MODEL 6
REMARK VINA RESULT:      -5.3      2.404      8.048
REMARK  5 active torsions:
REMARK  status: ('A' for Active; 'I' for Inactive)
REMARK    1  A    between atoms: O_2  and  C_3 
REMARK    2  A    between atoms: C_6  and  N_7 
REMARK       I    between atoms: N_7  and  C_8 
REMARK       I    between atoms: C_8  and  N_10 
REMARK    3  A    between atoms: N_10  and  C_11 
REMARK    4  A    between atoms: C_11  and  C_12 
REMARK    5  A    between atoms: C_12  and  N_14 
ROOT
HETATM    1  N   UNL     1     -40.730 -50.735  11.333  1.00  0.00    -0.308 N 
HETATM    2  C   UNL     1     -41.668 -49.778  11.647  1.00  0.00     0.320 C 
HETATM    3  O   UNL     1     -42.283 -49.700  12.705  1.00  0.00    -0.247 OA
HETATM    4  N   UNL     1     -41.885 -48.887  10.615  1.00  0.00    -0.341 N 
HETATM    5  H   UNL     1     -40.578 -50.890  10.347  1.00  0.00     0.170 HD
HETATM    6  H   UNL     1     -41.065 -48.665  10.066  1.00  0.00     0.164 HD
ENDROOT
BRANCH   1   7
HETATM    7  C   UNL     1     -40.301 -51.745  12.229  1.00  0.00     0.051 A 
HETATM    8  C   UNL     1     -39.361 -51.528  13.235  1.00  0.00     0.035 A 
HETATM    9  C   UNL     1     -39.044 -52.549  14.128  1.00  0.00     0.058 A 
HETATM   10  C   UNL     1     -39.667 -53.773  13.975  1.00  0.00     0.141 A 
HETATM   11  N   UNL     1     -40.541 -54.050  12.983  1.00  0.00    -0.345 N 
HETATM   12  C   UNL     1     -40.832 -53.031  12.135  1.00  0.00     0.119 A 
ATOM     13  HN  UNL     1     -40.960 -54.974  12.878  1.00  0.00     0.167 HD
BRANCH  10  14
HETATM   14  O   UNL     1     -39.354 -54.732  14.919  1.00  0.00    -0.341 OA
HETATM   15  C   UNL     1     -40.396 -54.948  15.861  1.00  0.00     0.211 C 
ENDBRANCH  10  14
ENDBRANCH   1   7
BRANCH   4  16
HETATM   16  C   UNL     1     -42.817 -47.800  10.893  1.00  0.00     0.159 C 
BRANCH  16  17
HETATM   17  C   UNL     1     -42.374 -46.386  10.425  1.00  0.00     0.236 C 
HETATM   18  C   UNL     1     -43.406 -45.878   9.400  1.00  0.00     0.044 C 
BRANCH  17  19
HETATM   19  N   UNL     1     -42.250 -45.432  11.567  1.00  0.00     0.098 N 
HETATM   20  C   UNL     1     -41.675 -44.114  11.194  1.00  0.00     0.299 C 
HETATM   21  C   UNL     1     -40.170 -44.166  10.886  1.00  0.00     0.198 C 
HETATM   22  O   UNL     1     -39.425 -44.692  11.992  1.00  0.00    -0.388 OA
HETATM   23  C   UNL     1     -39.919 -45.978  12.385  1.00  0.00     0.198 C 
HETATM   24  C   UNL     1     -41.423 -45.929  12.698  1.00  0.00     0.299 C 
ENDBRANCH  17  19
ENDBRANCH  16  17
ENDBRANCH   4  16
TORSDOF 5
ENDMDL
MODEL 7
REMARK VINA RESULT:      -5.3      1.935      8.064
REMARK  5 active torsions:
REMARK  status: ('A' for Active; 'I' for Inactive)
REMARK    1  A    between atoms: O_2  and  C_3 
REMARK    2  A    between atoms: C_6  and  N_7 
REMARK       I    between atoms: N_7  and  C_8 
REMARK       I    between atoms: C_8  and  N_10 
REMARK    3  A    between atoms: N_10  and  C_11 
REMARK    4  A    between atoms: C_11  and  C_12 
REMARK    5  A    between atoms: C_12  and  N_14 
ROOT
HETATM    1  N   UNL     1     -41.811 -51.731  11.647  1.00  0.00    -0.308 N 
HETATM    2  C   UNL     1     -41.362 -50.491  12.041  1.00  0.00     0.320 C 
HETATM    3  O   UNL     1     -41.251 -50.105  13.199  1.00  0.00    -0.247 OA
HETATM    4  N   UNL     1     -41.055 -49.672  10.971  1.00  0.00    -0.341 N 
HETATM    5  H   UNL     1     -42.179 -51.784  10.709  1.00  0.00     0.170 HD
HETATM    6  H   UNL     1     -40.661 -50.149  10.171  1.00  0.00     0.164 HD
ENDROOT
BRANCH   1   7
HETATM    7  C   UNL     1     -42.160 -52.767  12.548  1.00  0.00     0.051 A 
HETATM    8  C   UNL     1     -41.220 -53.522  13.249  1.00  0.00     0.035 A 
HETATM    9  C   UNL     1     -41.639 -54.473  14.176  1.00  0.00     0.058 A 
HETATM   10  C   UNL     1     -42.996 -54.657  14.362  1.00  0.00     0.141 A 
HETATM   11  N   UNL     1     -43.944 -53.992  13.668  1.00  0.00    -0.345 N 
HETATM   12  C   UNL     1     -43.502 -53.068  12.778  1.00  0.00     0.119 A 
ATOM     13  HN  UNL     1     -44.938 -54.175  13.805  1.00  0.00     0.167 HD
BRANCH  10  14
HETATM   14  O   UNL     1     -43.353 -55.576  15.330  1.00  0.00    -0.341 OA
HETATM   15  C   UNL     1     -42.411 -55.664  16.391  1.00  0.00     0.211 C 
ENDBRANCH  10  14
ENDBRANCH   1   7
BRANCH   4  16
HETATM   16  C   UNL     1     -40.506 -48.362  11.305  1.00  0.00     0.159 C 
BRANCH  16  17
HETATM   17  C   UNL     1     -41.316 -47.136  10.801  1.00  0.00     0.236 C 
HETATM   18  C   UNL     1     -42.485 -47.657   9.943  1.00  0.00     0.044 C 
BRANCH  17  19
HETATM   19  N   UNL     1     -41.821 -46.297  11.928  1.00  0.00     0.098 N 
HETATM   20  C   UNL     1     -42.271 -44.942  11.519  1.00  0.00     0.299 C 
HETATM   21  C   UNL     1     -41.115 -43.999  11.144  1.00  0.00     0.198 C 
HETATM   22  O   UNL     1     -40.179 -43.863  12.220  1.00  0.00    -0.388 OA
HETATM   23  C   UNL     1     -39.688 -45.141  12.646  1.00  0.00     0.198 C 
HETATM   24  C   UNL     1     -40.841 -46.084  13.025  1.00  0.00     0.299 C 
ENDBRANCH  17  19
ENDBRANCH  16  17
ENDBRANCH   4  16
TORSDOF 5
ENDMDL
MODEL 8
REMARK VINA RESULT:      -5.1      2.279      3.126
REMARK  5 active torsions:
REMARK  status: ('A' for Active; 'I' for Inactive)
REMARK    1  A    between atoms: O_2  and  C_3 
REMARK    2  A    between atoms: C_6  and  N_7 
REMARK       I    between atoms: N_7  and  C_8 
REMARK       I    between atoms: C_8  and  N_10 
REMARK    3  A    between atoms: N_10  and  C_11 
REMARK    4  A    between atoms: C_11  and  C_12 
REMARK    5  A    between atoms: C_12  and  N_14 
ROOT
HETATM    1  N   UNL     1     -40.642 -46.828  10.450  1.00  0.00    -0.308 N 
HETATM    2  C   UNL     1     -40.926 -47.898  11.267  1.00  0.00     0.320 C 
HETATM    3  O   UNL     1     -41.533 -47.843  12.331  1.00  0.00    -0.247 OA
HETATM    4  N   UNL     1     -40.426 -49.088  10.778  1.00  0.00    -0.341 N 
HETATM    5  H   UNL     1     -39.861 -46.953   9.822  1.00  0.00     0.170 HD
HETATM    6  H   UNL     1     -40.440 -49.173   9.770  1.00  0.00     0.164 HD
ENDROOT
BRANCH   1   7
HETATM    7  C   UNL     1     -41.070 -45.502  10.706  1.00  0.00     0.051 A 
HETATM    8  C   UNL     1     -40.195 -44.457  10.997  1.00  0.00     0.035 A 
HETATM    9  C   UNL     1     -40.682 -43.162  11.162  1.00  0.00     0.058 A 
HETATM   10  C   UNL     1     -42.043 -42.953  11.049  1.00  0.00     0.141 A 
HETATM   11  N   UNL     1     -42.937 -43.940  10.825  1.00  0.00    -0.345 N 
HETATM   12  C   UNL     1     -42.428 -45.187  10.662  1.00  0.00     0.119 A 
ATOM     13  HN  UNL     1     -43.940 -43.757  10.780  1.00  0.00     0.167 HD
BRANCH  10  14
HETATM   14  O   UNL     1     -42.464 -41.643  11.171  1.00  0.00    -0.341 OA
HETATM   15  C   UNL     1     -43.827 -41.527  11.557  1.00  0.00     0.211 C 
ENDBRANCH  10  14
ENDBRANCH   1   7
BRANCH   4  16
HETATM   16  C   UNL     1     -40.743 -50.283  11.553  1.00  0.00     0.159 C 
BRANCH  16  17
HETATM   17  C   UNL     1     -39.543 -50.984  12.247  1.00  0.00     0.236 C 
HETATM   18  C   UNL     1     -38.260 -50.221  11.866  1.00  0.00     0.044 C 
BRANCH  17  19
HETATM   19  N   UNL     1     -39.707 -51.035  13.731  1.00  0.00     0.098 N 
HETATM   20  C   UNL     1     -38.758 -51.952  14.412  1.00  0.00     0.299 C 
HETATM   21  C   UNL     1     -39.071 -53.440  14.181  1.00  0.00     0.198 C 
HETATM   22  O   UNL     1     -40.402 -53.768  14.599  1.00  0.00    -0.388 OA
HETATM   23  C   UNL     1     -41.369 -52.929  13.955  1.00  0.00     0.198 C 
HETATM   24  C   UNL     1     -41.062 -51.441  14.188  1.00  0.00     0.299 C 
ENDBRANCH  17  19
ENDBRANCH  16  17
ENDBRANCH   4  16
TORSDOF 5
ENDMDL
MODEL 9
REMARK VINA RESULT:      -5.1      2.031      8.407
REMARK  5 active torsions:
REMARK  status: ('A' for Active; 'I' for Inactive)
REMARK    1  A    between atoms: O_2  and  C_3 
REMARK    2  A    between atoms: C_6  and  N_7 
REMARK       I    between atoms: N_7  and  C_8 
REMARK       I    between atoms: C_8  and  N_10 
REMARK    3  A    between atoms: N_10  and  C_11 
REMARK    4  A    between atoms: C_11  and  C_12 
REMARK    5  A    between atoms: C_12  and  N_14 
ROOT
HETATM    1  N   UNL     1     -42.509 -51.794  12.490  1.00  0.00    -0.308 N 
HETATM    2  C   UNL     1     -42.817 -50.482  12.770  1.00  0.00     0.320 C 
HETATM    3  O   UNL     1     -43.364 -50.078  13.790  1.00  0.00    -0.247 OA
HETATM    4  N   UNL     1     -42.463 -49.622  11.748  1.00  0.00    -0.341 N 
HETATM    5  H   UNL     1     -42.400 -52.016  11.511  1.00  0.00     0.170 HD
HETATM    6  H   UNL     1     -41.617 -49.874  11.255  1.00  0.00     0.164 HD
ENDROOT
BRANCH   1   7
HETATM    7  C   UNL     1     -42.738 -52.868  13.385  1.00  0.00     0.051 A 
HETATM    8  C   UNL     1     -43.795 -53.767  13.247  1.00  0.00     0.035 A 
HETATM    9  C   UNL     1     -43.913 -54.844  14.122  1.00  0.00     0.058 A 
HETATM   10  C   UNL     1     -42.974 -54.982  15.127  1.00  0.00     0.141 A 
HETATM   11  N   UNL     1     -41.967 -54.108  15.335  1.00  0.00    -0.345 N 
HETATM   12  C   UNL     1     -41.877 -53.073  14.462  1.00  0.00     0.119 A 
ATOM     13  HN  UNL     1     -41.309 -54.219  16.107  1.00  0.00     0.167 HD
BRANCH  10  14
HETATM   14  O   UNL     1     -43.110 -56.097  15.931  1.00  0.00    -0.341 OA
HETATM   15  C   UNL     1     -41.908 -56.453  16.599  1.00  0.00     0.211 C 
ENDBRANCH  10  14
ENDBRANCH   1   7
BRANCH   4  16
HETATM   16  C   UNL     1     -42.694 -48.203  11.997  1.00  0.00     0.159 C 
BRANCH  16  17
HETATM   17  C   UNL     1     -41.431 -47.298  11.999  1.00  0.00     0.236 C 
HETATM   18  C   UNL     1     -40.239 -48.143  12.488  1.00  0.00     0.044 C 
BRANCH  17  19
HETATM   19  N   UNL     1     -41.153 -46.721  10.650  1.00  0.00     0.098 N 
HETATM   20  C   UNL     1     -39.960 -45.839  10.605  1.00  0.00     0.299 C 
HETATM   21  C   UNL     1     -40.172 -44.483  11.299  1.00  0.00     0.198 C 
HETATM   22  O   UNL     1     -41.285 -43.775  10.739  1.00  0.00    -0.388 OA
HETATM   23  C   UNL     1     -42.478 -44.569  10.777  1.00  0.00     0.198 C 
HETATM   24  C   UNL     1     -42.270 -45.923  10.079  1.00  0.00     0.299 C 
ENDBRANCH  17  19
ENDBRANCH  16  17
ENDBRANCH   4  16
TORSDOF 5
ENDMDL
