MODEL 1
REMARK VINA RESULT:      -6.5      0.000      0.000
REMARK  4 active torsions:
REMARK  status: ('A' for Active; 'I' for Inactive)
REMARK    1  A    between atoms: C_2  and  C_3 
REMARK    2  A    between atoms: C_2  and  N_15 
REMARK    3  A    between atoms: C_3  and  N_4 
REMARK       I    between atoms: N_4  and  C_5 
REMARK       I    between atoms: C_5  and  N_7 
REMARK    4  A    between atoms: N_7  and  C_8 
ROOT
HETATM    1  N   UNL     1     -43.032 -50.366  12.235  1.00  0.00    -0.341 N 
HETATM    2  C   UNL     1     -42.616 -49.056  12.183  1.00  0.00     0.321 C 
HETATM    3  O   UNL     1     -42.824 -48.245  13.076  1.00  0.00    -0.247 OA
HETATM    4  N   UNL     1     -42.038 -48.784  10.966  1.00  0.00    -0.293 N 
HETATM    5  H   UNL     1     -42.374 -51.044  11.866  1.00  0.00     0.164 HD
HETATM    6  H   UNL     1     -42.381 -49.327  10.189  1.00  0.00     0.172 HD
ENDROOT
BRANCH   1   7
HETATM    7  C   UNL     1     -43.803 -50.832  13.368  1.00  0.00     0.149 C 
BRANCH   7   8
HETATM    8  C   UNL     1     -44.046 -52.358  13.327  1.00  0.00     0.093 C 
HETATM    9  C   UNL     1     -43.019 -52.981  12.373  1.00  0.00     0.033 C 
BRANCH   8  10
HETATM   10  N   UNL     1     -45.468 -52.783  13.229  1.00  0.00    -0.403 N 
HETATM   11  C   UNL     1     -46.412 -51.649  13.308  1.00  0.00     0.117 C 
HETATM   12  C   UNL     1     -46.808 -51.231  14.730  1.00  0.00     0.019 C 
HETATM   13  C   UNL     1     -47.228 -52.405  15.603  1.00  0.00     0.004 C 
HETATM   14  C   UNL     1     -46.303 -53.609  15.462  1.00  0.00     0.024 C 
HETATM   15  C   UNL     1     -46.022 -53.927  13.987  1.00  0.00     0.075 C 
HETATM   16  C   UNL     1     -45.337 -55.287  13.848  1.00  0.00     0.032 C 
ENDBRANCH   8  10
ENDBRANCH   7   8
ENDBRANCH   1   7
BRANCH   4  17
HETATM   17  C   UNL     1     -41.636 -47.515  10.617  1.00  0.00     0.132 A 
HETATM   18  C   UNL     1     -40.495 -46.804  11.048  1.00  0.00     0.084 A 
HETATM   19  C   UNL     1     -40.611 -45.579  10.441  1.00  0.00     0.076 A 
HETATM   20  C   UNL     1     -39.809 -44.343  10.452  1.00  0.00     0.079 C 
HETATM   21  O   UNL     1     -41.737 -45.563   9.680  1.00  0.00    -0.241 OA
HETATM   22  N   UNL     1     -42.354 -46.798   9.747  1.00  0.00    -0.245 N 
ATOM     23  HN  UNL     1     -43.184 -47.100   9.238  1.00  0.00     0.196 HD
ENDBRANCH   4  17
TORSDOF 4
ENDMDL
MODEL 2
REMARK VINA RESULT:      -6.5      3.007      3.527
REMARK  4 active torsions:
REMARK  status: ('A' for Active; 'I' for Inactive)
REMARK    1  A    between atoms: C_2  and  C_3 
REMARK    2  A    between atoms: C_2  and  N_15 
REMARK    3  A    between atoms: C_3  and  N_4 
REMARK       I    between atoms: N_4  and  C_5 
REMARK       I    between atoms: C_5  and  N_7 
REMARK    4  A    between atoms: N_7  and  C_8 
ROOT
HETATM    1  N   UNL     1     -43.220 -52.721  11.986  1.00  0.00    -0.341 N 
HETATM    2  C   UNL     1     -41.938 -52.323  12.285  1.00  0.00     0.321 C 
HETATM    3  O   UNL     1     -41.198 -52.939  13.040  1.00  0.00    -0.247 OA
HETATM    4  N   UNL     1     -41.664 -51.110  11.701  1.00  0.00    -0.293 N 
HETATM    5  H   UNL     1     -43.500 -52.592  11.020  1.00  0.00     0.164 HD
HETATM    6  H   UNL     1     -42.457 -50.500  11.567  1.00  0.00     0.172 HD
ENDROOT
BRANCH   1   7
HETATM    7  C   UNL     1     -43.774 -53.899  12.620  1.00  0.00     0.149 C 
BRANCH   7   8
HETATM    8  C   UNL     1     -44.503 -53.568  13.942  1.00  0.00     0.093 C 
HETATM    9  C   UNL     1     -45.672 -54.549  14.105  1.00  0.00     0.033 C 
BRANCH   8  10
HETATM   10  N   UNL     1     -44.737 -52.122  14.205  1.00  0.00    -0.403 N 
HETATM   11  C   UNL     1     -44.226 -51.690  15.523  1.00  0.00     0.117 C 
HETATM   12  C   UNL     1     -45.196 -51.890  16.694  1.00  0.00     0.019 C 
HETATM   13  C   UNL     1     -46.596 -51.364  16.407  1.00  0.00     0.004 C 
HETATM   14  C   UNL     1     -47.095 -51.737  15.015  1.00  0.00     0.024 C 
HETATM   15  C   UNL     1     -46.031 -51.453  13.946  1.00  0.00     0.075 C 
HETATM   16  C   UNL     1     -46.632 -51.559  12.544  1.00  0.00     0.032 C 
ENDBRANCH   8  10
ENDBRANCH   7   8
ENDBRANCH   1   7
BRANCH   4  17
HETATM   17  C   UNL     1     -40.486 -50.437  11.933  1.00  0.00     0.132 A 
HETATM   18  C   UNL     1     -40.015 -49.877  13.140  1.00  0.00     0.084 A 
HETATM   19  C   UNL     1     -38.828 -49.283  12.796  1.00  0.00     0.076 A 
HETATM   20  C   UNL     1     -37.815 -48.503  13.529  1.00  0.00     0.079 C 
HETATM   21  O   UNL     1     -38.592 -49.489  11.473  1.00  0.00    -0.241 OA
HETATM   22  N   UNL     1     -39.607 -50.261  10.941  1.00  0.00    -0.245 N 
ATOM     23  HN  UNL     1     -39.672 -50.621   9.990  1.00  0.00     0.196 HD
ENDBRANCH   4  17
TORSDOF 4
ENDMDL
MODEL 3
REMARK VINA RESULT:      -6.5      2.740      3.685
REMARK  4 active torsions:
REMARK  status: ('A' for Active; 'I' for Inactive)
REMARK    1  A    between atoms: C_2  and  C_3 
REMARK    2  A    between atoms: C_2  and  N_15 
REMARK    3  A    between atoms: C_3  and  N_4 
REMARK       I    between atoms: N_4  and  C_5 
REMARK       I    between atoms: C_5  and  N_7 
REMARK    4  A    between atoms: N_7  and  C_8 
ROOT
HETATM    1  N   UNL     1     -40.434 -50.690  11.364  1.00  0.00    -0.341 N 
HETATM    2  C   UNL     1     -40.833 -49.373  11.380  1.00  0.00     0.321 C 
HETATM    3  O   UNL     1     -40.766 -48.659  12.372  1.00  0.00    -0.247 OA
HETATM    4  N   UNL     1     -41.395 -49.027  10.175  1.00  0.00    -0.293 N 
HETATM    5  H   UNL     1     -39.956 -50.987  10.520  1.00  0.00     0.164 HD
HETATM    6  H   UNL     1     -41.847 -49.775   9.672  1.00  0.00     0.172 HD
ENDROOT
BRANCH   1   7
HETATM    7  C   UNL     1     -39.952 -51.311  12.579  1.00  0.00     0.149 C 
BRANCH   7   8
HETATM    8  C   UNL     1     -41.090 -51.967  13.395  1.00  0.00     0.093 C 
HETATM    9  C   UNL     1     -41.001 -51.458  14.839  1.00  0.00     0.033 C 
BRANCH   8  10
HETATM   10  N   UNL     1     -41.298 -53.422  13.157  1.00  0.00    -0.403 N 
HETATM   11  C   UNL     1     -42.713 -53.762  12.899  1.00  0.00     0.117 C 
HETATM   12  C   UNL     1     -43.560 -54.015  14.152  1.00  0.00     0.019 C 
HETATM   13  C   UNL     1     -42.898 -54.967  15.139  1.00  0.00     0.004 C 
HETATM   14  C   UNL     1     -41.416 -54.670  15.346  1.00  0.00     0.024 C 
HETATM   15  C   UNL     1     -40.695 -54.472  14.006  1.00  0.00     0.075 C 
HETATM   16  C   UNL     1     -39.179 -54.459  14.205  1.00  0.00     0.032 C 
ENDBRANCH   8  10
ENDBRANCH   7   8
ENDBRANCH   1   7
BRANCH   4  17
HETATM   17  C   UNL     1     -41.973 -47.795   9.966  1.00  0.00     0.132 A 
HETATM   18  C   UNL     1     -43.312 -47.498   9.631  1.00  0.00     0.084 A 
HETATM   19  C   UNL     1     -43.328 -46.134   9.487  1.00  0.00     0.076 A 
HETATM   20  C   UNL     1     -44.363 -45.148   9.128  1.00  0.00     0.079 C 
HETATM   21  O   UNL     1     -42.086 -45.643   9.737  1.00  0.00    -0.241 OA
HETATM   22  N   UNL     1     -41.245 -46.681  10.091  1.00  0.00    -0.245 N 
ATOM     23  HN  UNL     1     -40.272 -46.612  10.386  1.00  0.00     0.196 HD
ENDBRANCH   4  17
TORSDOF 4
ENDMDL
MODEL 4
REMARK VINA RESULT:      -6.2      4.368      8.020
REMARK  4 active torsions:
REMARK  status: ('A' for Active; 'I' for Inactive)
REMARK    1  A    between atoms: C_2  and  C_3 
REMARK    2  A    between atoms: C_2  and  N_15 
REMARK    3  A    between atoms: C_3  and  N_4 
REMARK       I    between atoms: N_4  and  C_5 
REMARK       I    between atoms: C_5  and  N_7 
REMARK    4  A    between atoms: N_7  and  C_8 
ROOT
HETATM    1  N   UNL     1     -41.194 -47.757  10.213  1.00  0.00    -0.341 N 
HETATM    2  C   UNL     1     -41.424 -48.857  11.006  1.00  0.00     0.321 C 
HETATM    3  O   UNL     1     -42.360 -48.942  11.789  1.00  0.00    -0.247 OA
HETATM    4  N   UNL     1     -40.410 -49.774  10.861  1.00  0.00    -0.293 N 
HETATM    5  H   UNL     1     -40.878 -47.961   9.271  1.00  0.00     0.164 HD
HETATM    6  H   UNL     1     -39.506 -49.392  10.625  1.00  0.00     0.172 HD
ENDROOT
BRANCH   1   7
HETATM    7  C   UNL     1     -42.057 -46.600  10.320  1.00  0.00     0.149 C 
BRANCH   7   8
HETATM    8  C   UNL     1     -41.273 -45.310  10.651  1.00  0.00     0.093 C 
HETATM    9  C   UNL     1     -39.803 -45.531  10.270  1.00  0.00     0.033 C 
BRANCH   8  10
HETATM   10  N   UNL     1     -41.588 -44.680  11.962  1.00  0.00    -0.403 N 
HETATM   11  C   UNL     1     -41.935 -43.249  11.841  1.00  0.00     0.117 C 
HETATM   12  C   UNL     1     -40.741 -42.287  11.855  1.00  0.00     0.019 C 
HETATM   13  C   UNL     1     -39.766 -42.561  12.992  1.00  0.00     0.004 C 
HETATM   14  C   UNL     1     -39.469 -44.045  13.174  1.00  0.00     0.024 C 
HETATM   15  C   UNL     1     -40.759 -44.876  13.171  1.00  0.00     0.075 C 
HETATM   16  C   UNL     1     -40.480 -46.307  13.634  1.00  0.00     0.032 C 
ENDBRANCH   8  10
ENDBRANCH   7   8
ENDBRANCH   1   7
BRANCH   4  17
HETATM   17  C   UNL     1     -40.343 -50.916  11.625  1.00  0.00     0.132 A 
HETATM   18  C   UNL     1     -39.635 -51.129  12.828  1.00  0.00     0.084 A 
HETATM   19  C   UNL     1     -39.867 -52.448  13.127  1.00  0.00     0.076 A 
HETATM   20  C   UNL     1     -39.434 -53.351  14.207  1.00  0.00     0.079 C 
HETATM   21  O   UNL     1     -40.677 -52.985  12.177  1.00  0.00    -0.241 OA
HETATM   22  N   UNL     1     -41.021 -52.009  11.261  1.00  0.00    -0.245 N 
ATOM     23  HN  UNL     1     -41.660 -52.102  10.472  1.00  0.00     0.196 HD
ENDBRANCH   4  17
TORSDOF 4
ENDMDL
MODEL 5
REMARK VINA RESULT:      -6.2      4.006      7.838
REMARK  4 active torsions:
REMARK  status: ('A' for Active; 'I' for Inactive)
REMARK    1  A    between atoms: C_2  and  C_3 
REMARK    2  A    between atoms: C_2  and  N_15 
REMARK    3  A    between atoms: C_3  and  N_4 
REMARK       I    between atoms: N_4  and  C_5 
REMARK       I    between atoms: C_5  and  N_7 
REMARK    4  A    between atoms: N_7  and  C_8 
ROOT
HETATM    1  N   UNL     1     -40.132 -51.036  11.503  1.00  0.00    -0.341 N 
HETATM    2  C   UNL     1     -41.413 -51.309  11.921  1.00  0.00     0.321 C 
HETATM    3  O   UNL     1     -42.200 -50.449  12.295  1.00  0.00    -0.247 OA
HETATM    4  N   UNL     1     -41.631 -52.666  11.949  1.00  0.00    -0.293 N 
HETATM    5  H   UNL     1     -39.811 -51.580  10.708  1.00  0.00     0.164 HD
HETATM    6  H   UNL     1     -40.817 -53.235  12.126  1.00  0.00     0.172 HD
ENDROOT
BRANCH   1   7
HETATM    7  C   UNL     1     -39.636 -49.677  11.541  1.00  0.00     0.149 C 
BRANCH   7   8
HETATM    8  C   UNL     1     -38.431 -49.517  12.496  1.00  0.00     0.093 C 
HETATM    9  C   UNL     1     -37.409 -50.612  12.166  1.00  0.00     0.033 C 
BRANCH   8  10
HETATM   10  N   UNL     1     -38.768 -49.255  13.922  1.00  0.00    -0.403 N 
HETATM   11  C   UNL     1     -38.395 -47.893  14.357  1.00  0.00     0.117 C 
HETATM   12  C   UNL     1     -36.949 -47.739  14.843  1.00  0.00     0.019 C 
HETATM   13  C   UNL     1     -36.538 -48.808  15.846  1.00  0.00     0.004 C 
HETATM   14  C   UNL     1     -36.993 -50.206  15.442  1.00  0.00     0.024 C 
HETATM   15  C   UNL     1     -38.466 -50.210  15.011  1.00  0.00     0.075 C 
HETATM   16  C   UNL     1     -38.987 -51.642  14.883  1.00  0.00     0.032 C 
ENDBRANCH   8  10
ENDBRANCH   7   8
ENDBRANCH   1   7
BRANCH   4  17
HETATM   17  C   UNL     1     -42.798 -53.208  12.435  1.00  0.00     0.132 A 
HETATM   18  C   UNL     1     -42.986 -54.008  13.584  1.00  0.00     0.084 A 
HETATM   19  C   UNL     1     -44.322 -54.318  13.565  1.00  0.00     0.076 A 
HETATM   20  C   UNL     1     -45.205 -55.123  14.427  1.00  0.00     0.079 C 
HETATM   21  O   UNL     1     -44.902 -53.727  12.488  1.00  0.00    -0.241 OA
HETATM   22  N   UNL     1     -43.957 -52.985  11.807  1.00  0.00    -0.245 N 
ATOM     23  HN  UNL     1     -44.110 -52.390  10.993  1.00  0.00     0.196 HD
ENDBRANCH   4  17
TORSDOF 4
ENDMDL
MODEL 6
REMARK VINA RESULT:      -6.2      2.033      2.851
REMARK  4 active torsions:
REMARK  status: ('A' for Active; 'I' for Inactive)
REMARK    1  A    between atoms: C_2  and  C_3 
REMARK    2  A    between atoms: C_2  and  N_15 
REMARK    3  A    between atoms: C_3  and  N_4 
REMARK       I    between atoms: N_4  and  C_5 
REMARK       I    between atoms: C_5  and  N_7 
REMARK    4  A    between atoms: N_7  and  C_8 
ROOT
HETATM    1  N   UNL     1     -41.616 -49.856  11.260  1.00  0.00    -0.341 N 
HETATM    2  C   UNL     1     -40.889 -48.694  11.379  1.00  0.00     0.321 C 
HETATM    3  O   UNL     1     -39.882 -48.594  12.068  1.00  0.00    -0.247 OA
HETATM    4  N   UNL     1     -41.508 -47.670  10.705  1.00  0.00    -0.293 N 
HETATM    5  H   UNL     1     -41.970 -50.052  10.330  1.00  0.00     0.164 HD
HETATM    6  H   UNL     1     -42.512 -47.735  10.638  1.00  0.00     0.172 HD
ENDROOT
BRANCH   1   7
HETATM    7  C   UNL     1     -41.228 -51.028  12.016  1.00  0.00     0.149 C 
BRANCH   7   8
HETATM    8  C   UNL     1     -42.415 -51.649  12.787  1.00  0.00     0.093 C 
HETATM    9  C   UNL     1     -42.344 -51.173  14.244  1.00  0.00     0.033 C 
BRANCH   8  10
HETATM   10  N   UNL     1     -42.681 -53.088  12.514  1.00  0.00    -0.403 N 
HETATM   11  C   UNL     1     -44.121 -53.389  12.384  1.00  0.00     0.117 C 
HETATM   12  C   UNL     1     -44.846 -53.678  13.705  1.00  0.00     0.019 C 
HETATM   13  C   UNL     1     -44.113 -54.684  14.582  1.00  0.00     0.004 C 
HETATM   14  C   UNL     1     -42.612 -54.425  14.651  1.00  0.00     0.024 C 
HETATM   15  C   UNL     1     -42.022 -54.185  13.255  1.00  0.00     0.075 C 
HETATM   16  C   UNL     1     -40.494 -54.211  13.302  1.00  0.00     0.032 C 
ENDBRANCH   8  10
ENDBRANCH   7   8
ENDBRANCH   1   7
BRANCH   4  17
HETATM   17  C   UNL     1     -41.042 -46.376  10.755  1.00  0.00     0.132 A 
HETATM   18  C   UNL     1     -41.653 -45.243  11.337  1.00  0.00     0.084 A 
HETATM   19  C   UNL     1     -40.793 -44.213  11.051  1.00  0.00     0.076 A 
HETATM   20  C   UNL     1     -40.795 -42.764  11.322  1.00  0.00     0.079 C 
HETATM   21  O   UNL     1     -39.727 -44.698  10.361  1.00  0.00    -0.241 OA
HETATM   22  N   UNL     1     -39.856 -46.067  10.221  1.00  0.00    -0.245 N 
ATOM     23  HN  UNL     1     -39.186 -46.708   9.798  1.00  0.00     0.196 HD
ENDBRANCH   4  17
TORSDOF 4
ENDMDL
MODEL 7
REMARK VINA RESULT:      -6.1      3.572      8.152
REMARK  4 active torsions:
REMARK  status: ('A' for Active; 'I' for Inactive)
REMARK    1  A    between atoms: C_2  and  C_3 
REMARK    2  A    between atoms: C_2  and  N_15 
REMARK    3  A    between atoms: C_3  and  N_4 
REMARK       I    between atoms: N_4  and  C_5 
REMARK       I    between atoms: C_5  and  N_7 
REMARK    4  A    between atoms: N_7  and  C_8 
ROOT
HETATM    1  N   UNL     1     -42.412 -48.619  10.976  1.00  0.00    -0.341 N 
HETATM    2  C   UNL     1     -41.531 -49.579  11.415  1.00  0.00     0.321 C 
HETATM    3  O   UNL     1     -40.316 -49.487  11.295  1.00  0.00    -0.247 OA
HETATM    4  N   UNL     1     -42.211 -50.670  11.901  1.00  0.00    -0.293 N 
HETATM    5  H   UNL     1     -43.202 -48.444  11.588  1.00  0.00     0.164 HD
HETATM    6  H   UNL     1     -43.115 -50.841  11.486  1.00  0.00     0.172 HD
ENDROOT
BRANCH   1   7
HETATM    7  C   UNL     1     -41.916 -47.447  10.286  1.00  0.00     0.149 C 
BRANCH   7   8
HETATM    8  C   UNL     1     -41.916 -46.191  11.187  1.00  0.00     0.093 C 
HETATM    9  C   UNL     1     -42.736 -45.098  10.489  1.00  0.00     0.033 C 
BRANCH   8  10
HETATM   10  N   UNL     1     -40.605 -45.829  11.792  1.00  0.00    -0.403 N 
HETATM   11  C   UNL     1     -40.664 -45.721  13.264  1.00  0.00     0.117 C 
HETATM   12  C   UNL     1     -41.099 -44.351  13.798  1.00  0.00     0.019 C 
HETATM   13  C   UNL     1     -40.350 -43.192  13.154  1.00  0.00     0.004 C 
HETATM   14  C   UNL     1     -40.214 -43.342  11.642  1.00  0.00     0.024 C 
HETATM   15  C   UNL     1     -39.742 -44.752  11.262  1.00  0.00     0.075 C 
HETATM   16  C   UNL     1     -39.339 -44.806   9.788  1.00  0.00     0.032 C 
ENDBRANCH   8  10
ENDBRANCH   7   8
ENDBRANCH   1   7
BRANCH   4  17
HETATM   17  C   UNL     1     -41.563 -51.815  12.302  1.00  0.00     0.132 A 
HETATM   18  C   UNL     1     -41.327 -52.279  13.614  1.00  0.00     0.084 A 
HETATM   19  C   UNL     1     -40.597 -53.427  13.440  1.00  0.00     0.076 A 
HETATM   20  C   UNL     1     -39.991 -54.411  14.354  1.00  0.00     0.079 C 
HETATM   21  O   UNL     1     -40.423 -53.649  12.110  1.00  0.00    -0.241 OA
HETATM   22  N   UNL     1     -41.076 -52.666  11.392  1.00  0.00    -0.245 N 
ATOM     23  HN  UNL     1     -41.168 -52.601  10.379  1.00  0.00     0.196 HD
ENDBRANCH   4  17
TORSDOF 4
ENDMDL
MODEL 8
REMARK VINA RESULT:      -6.0      4.514      6.075
REMARK  4 active torsions:
REMARK  status: ('A' for Active; 'I' for Inactive)
REMARK    1  A    between atoms: C_2  and  C_3 
REMARK    2  A    between atoms: C_2  and  N_15 
REMARK    3  A    between atoms: C_3  and  N_4 
REMARK       I    between atoms: N_4  and  C_5 
REMARK       I    between atoms: C_5  and  N_7 
REMARK    4  A    between atoms: N_7  and  C_8 
ROOT
HETATM    1  N   UNL     1     -39.887 -47.333  11.341  1.00  0.00    -0.341 N 
HETATM    2  C   UNL     1     -41.144 -46.820  11.119  1.00  0.00     0.321 C 
HETATM    3  O   UNL     1     -41.722 -46.084  11.908  1.00  0.00    -0.247 OA
HETATM    4  N   UNL     1     -41.673 -47.330   9.958  1.00  0.00    -0.293 N 
HETATM    5  H   UNL     1     -39.284 -47.368  10.526  1.00  0.00     0.164 HD
HETATM    6  H   UNL     1     -41.357 -48.253   9.702  1.00  0.00     0.172 HD
ENDROOT
BRANCH   1   7
HETATM    7  C   UNL     1     -39.203 -47.049  12.584  1.00  0.00     0.149 C 
BRANCH   7   8
HETATM    8  C   UNL     1     -39.076 -48.300  13.484  1.00  0.00     0.093 C 
HETATM    9  C   UNL     1     -37.749 -48.208  14.249  1.00  0.00     0.033 C 
BRANCH   8  10
HETATM   10  N   UNL     1     -39.450 -49.593  12.849  1.00  0.00    -0.403 N 
HETATM   11  C   UNL     1     -40.449 -50.348  13.634  1.00  0.00     0.117 C 
HETATM   12  C   UNL     1     -39.868 -51.246  14.733  1.00  0.00     0.019 C 
HETATM   13  C   UNL     1     -38.722 -52.122  14.245  1.00  0.00     0.004 C 
HETATM   14  C   UNL     1     -37.732 -51.366  13.365  1.00  0.00     0.024 C 
HETATM   15  C   UNL     1     -38.457 -50.538  12.295  1.00  0.00     0.075 C 
HETATM   16  C   UNL     1     -37.466 -50.018  11.252  1.00  0.00     0.032 C 
ENDBRANCH   8  10
ENDBRANCH   7   8
ENDBRANCH   1   7
BRANCH   4  17
HETATM   17  C   UNL     1     -42.963 -47.060   9.563  1.00  0.00     0.132 A 
HETATM   18  C   UNL     1     -44.161 -47.672   9.992  1.00  0.00     0.084 A 
HETATM   19  C   UNL     1     -45.137 -47.067   9.243  1.00  0.00     0.076 A 
HETATM   20  C   UNL     1     -46.599 -47.216   9.141  1.00  0.00     0.079 C 
HETATM   21  O   UNL     1     -44.565 -46.139   8.430  1.00  0.00    -0.241 OA
HETATM   22  N   UNL     1     -43.205 -46.096   8.669  1.00  0.00    -0.245 N 
ATOM     23  HN  UNL     1     -42.526 -45.460   8.251  1.00  0.00     0.196 HD
ENDBRANCH   4  17
TORSDOF 4
ENDMDL
MODEL 9
REMARK VINA RESULT:      -6.0      3.938      5.618
REMARK  4 active torsions:
REMARK  status: ('A' for Active; 'I' for Inactive)
REMARK    1  A    between atoms: C_2  and  C_3 
REMARK    2  A    between atoms: C_2  and  N_15 
REMARK    3  A    between atoms: C_3  and  N_4 
REMARK       I    between atoms: N_4  and  C_5 
REMARK       I    between atoms: C_5  and  N_7 
REMARK    4  A    between atoms: N_7  and  C_8 
ROOT
HETATM    1  N   UNL     1     -39.916 -48.413  11.224  1.00  0.00    -0.341 N 
HETATM    2  C   UNL     1     -40.982 -47.586  10.955  1.00  0.00     0.321 C 
HETATM    3  O   UNL     1     -41.238 -46.581  11.605  1.00  0.00    -0.247 OA
HETATM    4  N   UNL     1     -41.747 -48.105   9.939  1.00  0.00    -0.293 N 
HETATM    5  H   UNL     1     -39.431 -48.774  10.409  1.00  0.00     0.164 HD
HETATM    6  H   UNL     1     -41.744 -49.111   9.859  1.00  0.00     0.172 HD
ENDROOT
BRANCH   1   7
HETATM    7  C   UNL     1     -39.060 -48.138  12.359  1.00  0.00     0.149 C 
BRANCH   7   8
HETATM    8  C   UNL     1     -38.127 -49.324  12.693  1.00  0.00     0.093 C 
HETATM    9  C   UNL     1     -37.595 -49.902  11.375  1.00  0.00     0.033 C 
BRANCH   8  10
HETATM   10  N   UNL     1     -38.620 -50.260  13.740  1.00  0.00    -0.403 N 
HETATM   11  C   UNL     1     -39.225 -51.483  13.174  1.00  0.00     0.117 C 
HETATM   12  C   UNL     1     -40.712 -51.367  12.814  1.00  0.00     0.019 C 
HETATM   13  C   UNL     1     -41.551 -50.758  13.929  1.00  0.00     0.004 C 
HETATM   14  C   UNL     1     -40.891 -49.543  14.572  1.00  0.00     0.024 C 
HETATM   15  C   UNL     1     -39.418 -49.819  14.904  1.00  0.00     0.075 C 
HETATM   16  C   UNL     1     -38.849 -48.714  15.795  1.00  0.00     0.032 C 
ENDBRANCH   8  10
ENDBRANCH   7   8
ENDBRANCH   1   7
BRANCH   4  17
HETATM   17  C   UNL     1     -42.934 -47.527   9.550  1.00  0.00     0.132 A 
HETATM   18  C   UNL     1     -44.248 -47.869   9.936  1.00  0.00     0.084 A 
HETATM   19  C   UNL     1     -45.044 -47.018   9.213  1.00  0.00     0.076 A 
HETATM   20  C   UNL     1     -46.500 -46.822   9.092  1.00  0.00     0.079 C 
HETATM   21  O   UNL     1     -44.259 -46.204   8.458  1.00  0.00    -0.241 OA
HETATM   22  N   UNL     1     -42.931 -46.487   8.709  1.00  0.00    -0.245 N 
ATOM     23  HN  UNL     1     -42.116 -46.004   8.332  1.00  0.00     0.196 HD
ENDBRANCH   4  17
TORSDOF 4
ENDMDL
