MODEL 1
REMARK VINA RESULT:      -5.3      0.000      0.000
REMARK  3 active torsions:
REMARK  status: ('A' for Active; 'I' for Inactive)
REMARK    1  A    between atoms: O_1  and  C_2 
REMARK    2  A    between atoms: C_2  and  C_4 
REMARK    3  A    between atoms: C_6  and  C_10 
ROOT
HETATM    1  C   UNL     1     -44.866 -55.022  13.979  1.00  0.00     0.255 C 
HETATM    2  C   UNL     1     -43.454 -54.638  14.353  1.00  0.00     0.105 C 
HETATM    3  C   UNL     1     -43.127 -53.765  13.191  1.00  0.00     0.046 C 
HETATM    4  N   UNL     1     -44.011 -53.763  12.244  1.00  0.00    -0.269 N 
ATOM      5  HN  UNL     1     -43.974 -53.209  11.389  1.00  0.00     0.194 HD
HETATM    6  O   UNL     1     -45.033 -54.665  12.606  1.00  0.00    -0.264 OA
ENDROOT
BRANCH   3   7
HETATM    7  C   UNL     1     -41.867 -52.996  13.119  1.00  0.00     0.004 A 
HETATM    8  C   UNL     1     -41.010 -52.948  14.222  1.00  0.00     0.016 A 
HETATM    9  C   UNL     1     -39.841 -52.193  14.154  1.00  0.00     0.018 A 
HETATM   10  C   UNL     1     -39.567 -51.509  12.980  1.00  0.00     0.087 A 
HETATM   11  N   UNL     1     -40.372 -51.533  11.896  1.00  0.00    -0.374 N 
HETATM   12  C   UNL     1     -41.503 -52.276  11.989  1.00  0.00     0.101 A 
ATOM     13  HN  UNL     1     -40.140 -51.017  11.047  1.00  0.00     0.164 HD
ENDBRANCH   3   7
BRANCH   1  14
HETATM   14  C   UNL     1     -45.903 -54.308  14.833  1.00  0.00     0.172 C 
HETATM   15  O   UNL     1     -45.988 -54.433  16.048  1.00  0.00    -0.648 OA
BRANCH  14  16
HETATM   16  O   UNL     1     -46.736 -53.513  14.122  1.00  0.00    -0.774 OA
HETATM   17  H   UNL     1     -47.593 -53.399  14.595  1.00  0.00     0.167 HD
ENDBRANCH  14  16
ENDBRANCH   1  14
TORSDOF 3
ENDMDL
MODEL 2
REMARK VINA RESULT:      -5.2      4.111      5.717
REMARK  3 active torsions:
REMARK  status: ('A' for Active; 'I' for Inactive)
REMARK    1  A    between atoms: O_1  and  C_2 
REMARK    2  A    between atoms: C_2  and  C_4 
REMARK    3  A    between atoms: C_6  and  C_10 
ROOT
HETATM    1  C   UNL     1     -40.303 -51.791  13.084  1.00  0.00     0.255 C 
HETATM    2  C   UNL     1     -41.003 -50.456  13.009  1.00  0.00     0.105 C 
HETATM    3  C   UNL     1     -40.182 -49.815  11.944  1.00  0.00     0.046 C 
HETATM    4  N   UNL     1     -39.129 -50.481  11.590  1.00  0.00    -0.269 N 
ATOM      5  HN  UNL     1     -38.467 -50.216  10.861  1.00  0.00     0.194 HD
HETATM    6  O   UNL     1     -39.061 -51.638  12.393  1.00  0.00    -0.264 OA
ENDROOT
BRANCH   3   7
HETATM    7  C   UNL     1     -40.533 -48.497  11.372  1.00  0.00     0.004 A 
HETATM    8  C   UNL     1     -39.792 -47.364  11.714  1.00  0.00     0.016 A 
HETATM    9  C   UNL     1     -40.152 -46.122  11.195  1.00  0.00     0.018 A 
HETATM   10  C   UNL     1     -41.245 -46.056  10.346  1.00  0.00     0.087 A 
HETATM   11  N   UNL     1     -41.985 -47.130   9.994  1.00  0.00    -0.374 N 
HETATM   12  C   UNL     1     -41.612 -48.327  10.514  1.00  0.00     0.101 A 
ATOM     13  HN  UNL     1     -42.784 -47.046   9.367  1.00  0.00     0.164 HD
ENDBRANCH   3   7
BRANCH   1  14
HETATM   14  C   UNL     1     -41.118 -52.908  12.449  1.00  0.00     0.172 C 
HETATM   15  O   UNL     1     -42.150 -53.356  12.931  1.00  0.00    -0.648 OA
BRANCH  14  16
HETATM   16  O   UNL     1     -40.595 -53.367  11.288  1.00  0.00    -0.774 OA
HETATM   17  H   UNL     1     -41.310 -53.544  10.633  1.00  0.00     0.167 HD
ENDBRANCH  14  16
ENDBRANCH   1  14
TORSDOF 3
ENDMDL
MODEL 3
REMARK VINA RESULT:      -5.1      2.120      2.471
REMARK  3 active torsions:
REMARK  status: ('A' for Active; 'I' for Inactive)
REMARK    1  A    between atoms: O_1  and  C_2 
REMARK    2  A    between atoms: C_2  and  C_4 
REMARK    3  A    between atoms: C_6  and  C_10 
ROOT
HETATM    1  C   UNL     1     -45.638 -53.230  13.471  1.00  0.00     0.255 C 
HETATM    2  C   UNL     1     -44.557 -53.672  14.427  1.00  0.00     0.105 C 
HETATM    3  C   UNL     1     -43.449 -53.883  13.455  1.00  0.00     0.046 C 
HETATM    4  N   UNL     1     -43.792 -53.798  12.208  1.00  0.00    -0.269 N 
ATOM      5  HN  UNL     1     -43.168 -53.884  11.406  1.00  0.00     0.194 HD
HETATM    6  O   UNL     1     -45.181 -53.565  12.159  1.00  0.00    -0.264 OA
ENDROOT
BRANCH   3   7
HETATM    7  C   UNL     1     -42.074 -54.205  13.892  1.00  0.00     0.004 A 
HETATM    8  C   UNL     1     -41.819 -54.525  15.228  1.00  0.00     0.016 A 
HETATM    9  C   UNL     1     -40.514 -54.795  15.635  1.00  0.00     0.018 A 
HETATM   10  C   UNL     1     -39.504 -54.736  14.689  1.00  0.00     0.087 A 
HETATM   11  N   UNL     1     -39.714 -54.429  13.390  1.00  0.00    -0.374 N 
HETATM   12  C   UNL     1     -40.993 -54.172  13.020  1.00  0.00     0.101 A 
ATOM     13  HN  UNL     1     -38.946 -54.394  12.719  1.00  0.00     0.164 HD
ENDBRANCH   3   7
BRANCH   1  14
HETATM   14  C   UNL     1     -45.914 -51.736  13.560  1.00  0.00     0.172 C 
HETATM   15  O   UNL     1     -46.698 -51.236  14.356  1.00  0.00    -0.648 OA
BRANCH  14  16
HETATM   16  O   UNL     1     -45.206 -51.000  12.672  1.00  0.00    -0.774 OA
HETATM   17  H   UNL     1     -44.928 -50.145  13.075  1.00  0.00     0.167 HD
ENDBRANCH  14  16
ENDBRANCH   1  14
TORSDOF 3
ENDMDL
MODEL 4
REMARK VINA RESULT:      -5.1      3.535      5.202
REMARK  3 active torsions:
REMARK  status: ('A' for Active; 'I' for Inactive)
REMARK    1  A    between atoms: O_1  and  C_2 
REMARK    2  A    between atoms: C_2  and  C_4 
REMARK    3  A    between atoms: C_6  and  C_10 
ROOT
HETATM    1  C   UNL     1     -39.265 -54.084  15.015  1.00  0.00     0.255 C 
HETATM    2  C   UNL     1     -40.690 -53.625  15.210  1.00  0.00     0.105 C 
HETATM    3  C   UNL     1     -41.234 -53.952  13.862  1.00  0.00     0.046 C 
HETATM    4  N   UNL     1     -40.348 -54.322  12.991  1.00  0.00    -0.269 N 
ATOM      5  HN  UNL     1     -40.534 -54.610  12.030  1.00  0.00     0.194 HD
HETATM    6  O   UNL     1     -39.083 -54.253  13.608  1.00  0.00    -0.264 OA
ENDROOT
BRANCH   3   7
HETATM    7  C   UNL     1     -42.671 -53.820  13.543  1.00  0.00     0.004 A 
HETATM    8  C   UNL     1     -43.610 -54.628  14.189  1.00  0.00     0.016 A 
HETATM    9  C   UNL     1     -44.959 -54.518  13.856  1.00  0.00     0.018 A 
HETATM   10  C   UNL     1     -45.324 -53.600  12.886  1.00  0.00     0.087 A 
HETATM   11  N   UNL     1     -44.444 -52.803  12.241  1.00  0.00    -0.374 N 
HETATM   12  C   UNL     1     -43.138 -52.931  12.584  1.00  0.00     0.101 A 
ATOM     13  HN  UNL     1     -44.748 -52.138  11.530  1.00  0.00     0.164 HD
ENDBRANCH   3   7
BRANCH   1  14
HETATM   14  C   UNL     1     -38.974 -55.390  15.740  1.00  0.00     0.172 C 
HETATM   15  O   UNL     1     -39.723 -55.890  16.568  1.00  0.00    -0.648 OA
BRANCH  14  16
HETATM   16  O   UNL     1     -37.799 -55.958  15.381  1.00  0.00    -0.774 OA
HETATM   17  H   UNL     1     -37.507 -55.622  14.502  1.00  0.00     0.167 HD
ENDBRANCH  14  16
ENDBRANCH   1  14
TORSDOF 3
ENDMDL
MODEL 5
REMARK VINA RESULT:      -5.1      3.098      5.320
REMARK  3 active torsions:
REMARK  status: ('A' for Active; 'I' for Inactive)
REMARK    1  A    between atoms: O_1  and  C_2 
REMARK    2  A    between atoms: C_2  and  C_4 
REMARK    3  A    between atoms: C_6  and  C_10 
ROOT
HETATM    1  C   UNL     1     -40.807 -51.894  12.873  1.00  0.00     0.255 C 
HETATM    2  C   UNL     1     -42.011 -51.624  13.743  1.00  0.00     0.105 C 
HETATM    3  C   UNL     1     -43.060 -52.278  12.911  1.00  0.00     0.046 C 
HETATM    4  N   UNL     1     -42.663 -52.671  11.742  1.00  0.00    -0.269 N 
ATOM      5  HN  UNL     1     -43.228 -53.162  11.049  1.00  0.00     0.194 HD
HETATM    6  O   UNL     1     -41.311 -52.300  11.599  1.00  0.00    -0.264 OA
ENDROOT
BRANCH   3   7
HETATM    7  C   UNL     1     -44.454 -52.424  13.381  1.00  0.00     0.004 A 
HETATM    8  C   UNL     1     -45.166 -51.307  13.825  1.00  0.00     0.016 A 
HETATM    9  C   UNL     1     -46.468 -51.462  14.297  1.00  0.00     0.018 A 
HETATM   10  C   UNL     1     -47.016 -52.734  14.307  1.00  0.00     0.087 A 
HETATM   11  N   UNL     1     -46.357 -53.837  13.886  1.00  0.00    -0.374 N 
HETATM   12  C   UNL     1     -45.092 -53.657  13.432  1.00  0.00     0.101 A 
ATOM     13  HN  UNL     1     -46.791 -54.759  13.909  1.00  0.00     0.164 HD
ENDBRANCH   3   7
BRANCH   1  14
HETATM   14  C   UNL     1     -39.911 -52.980  13.449  1.00  0.00     0.172 C 
HETATM   15  O   UNL     1     -39.155 -52.808  14.396  1.00  0.00    -0.648 OA
BRANCH  14  16
HETATM   16  O   UNL     1     -40.024 -54.170  12.813  1.00  0.00    -0.774 OA
HETATM   17  H   UNL     1     -39.245 -54.741  13.008  1.00  0.00     0.167 HD
ENDBRANCH  14  16
ENDBRANCH   1  14
TORSDOF 3
ENDMDL
MODEL 6
REMARK VINA RESULT:      -5.0      5.851      7.236
REMARK  3 active torsions:
REMARK  status: ('A' for Active; 'I' for Inactive)
REMARK    1  A    between atoms: O_1  and  C_2 
REMARK    2  A    between atoms: C_2  and  C_4 
REMARK    3  A    between atoms: C_6  and  C_10 
ROOT
HETATM    1  C   UNL     1     -43.311 -46.716  10.352  1.00  0.00     0.255 C 
HETATM    2  C   UNL     1     -42.531 -47.316  11.496  1.00  0.00     0.105 C 
HETATM    3  C   UNL     1     -41.646 -48.236  10.727  1.00  0.00     0.046 C 
HETATM    4  N   UNL     1     -41.931 -48.340   9.467  1.00  0.00    -0.269 N 
ATOM      5  HN  UNL     1     -41.422 -48.896   8.780  1.00  0.00     0.194 HD
HETATM    6  O   UNL     1     -43.070 -47.548   9.216  1.00  0.00    -0.264 OA
ENDROOT
BRANCH   3   7
HETATM    7  C   UNL     1     -40.556 -48.997  11.373  1.00  0.00     0.004 A 
HETATM    8  C   UNL     1     -39.422 -48.333  11.847  1.00  0.00     0.016 A 
HETATM    9  C   UNL     1     -38.385 -49.064  12.423  1.00  0.00     0.018 A 
HETATM   10  C   UNL     1     -38.519 -50.441  12.507  1.00  0.00     0.087 A 
HETATM   11  N   UNL     1     -39.601 -51.116  12.059  1.00  0.00    -0.374 N 
HETATM   12  C   UNL     1     -40.595 -50.379  11.503  1.00  0.00     0.101 A 
ATOM     13  HN  UNL     1     -39.666 -52.130  12.137  1.00  0.00     0.164 HD
ENDBRANCH   3   7
BRANCH   1  14
HETATM   14  C   UNL     1     -42.888 -45.286  10.051  1.00  0.00     0.172 C 
HETATM   15  O   UNL     1     -41.779 -44.837  10.305  1.00  0.00    -0.648 OA
BRANCH  14  16
HETATM   16  O   UNL     1     -43.860 -44.545   9.468  1.00  0.00    -0.774 OA
HETATM   17  H   UNL     1     -43.818 -43.612   9.784  1.00  0.00     0.167 HD
ENDBRANCH  14  16
ENDBRANCH   1  14
TORSDOF 3
ENDMDL
MODEL 7
REMARK VINA RESULT:      -4.8      3.434      5.183
REMARK  3 active torsions:
REMARK  status: ('A' for Active; 'I' for Inactive)
REMARK    1  A    between atoms: O_1  and  C_2 
REMARK    2  A    between atoms: C_2  and  C_4 
REMARK    3  A    between atoms: C_6  and  C_10 
ROOT
HETATM    1  C   UNL     1     -40.691 -54.025  14.791  1.00  0.00     0.255 C 
HETATM    2  C   UNL     1     -42.024 -54.209  14.108  1.00  0.00     0.105 C 
HETATM    3  C   UNL     1     -42.654 -52.905  14.457  1.00  0.00     0.046 C 
HETATM    4  N   UNL     1     -41.985 -52.184  15.300  1.00  0.00    -0.269 N 
ATOM      5  HN  UNL     1     -42.243 -51.254  15.632  1.00  0.00     0.194 HD
HETATM    6  O   UNL     1     -40.838 -52.912  15.675  1.00  0.00    -0.264 OA
ENDROOT
BRANCH   3   7
HETATM    7  C   UNL     1     -43.964 -52.496  13.907  1.00  0.00     0.004 A 
HETATM    8  C   UNL     1     -44.847 -51.743  14.685  1.00  0.00     0.016 A 
HETATM    9  C   UNL     1     -46.093 -51.392  14.169  1.00  0.00     0.018 A 
HETATM   10  C   UNL     1     -46.414 -51.806  12.886  1.00  0.00     0.087 A 
HETATM   11  N   UNL     1     -45.586 -52.535  12.107  1.00  0.00    -0.374 N 
HETATM   12  C   UNL     1     -44.380 -52.864  12.634  1.00  0.00     0.101 A 
ATOM     13  HN  UNL     1     -45.855 -52.825  11.167  1.00  0.00     0.164 HD
ENDBRANCH   3   7
BRANCH   1  14
HETATM   14  C   UNL     1     -39.566 -53.760  13.802  1.00  0.00     0.172 C 
HETATM   15  O   UNL     1     -39.276 -52.648  13.383  1.00  0.00    -0.648 OA
BRANCH  14  16
HETATM   16  O   UNL     1     -38.904 -54.879  13.421  1.00  0.00    -0.774 OA
HETATM   17  H   UNL     1     -38.011 -54.650  13.074  1.00  0.00     0.167 HD
ENDBRANCH  14  16
ENDBRANCH   1  14
TORSDOF 3
ENDMDL
MODEL 8
REMARK VINA RESULT:      -4.8      7.271      8.748
REMARK  3 active torsions:
REMARK  status: ('A' for Active; 'I' for Inactive)
REMARK    1  A    between atoms: O_1  and  C_2 
REMARK    2  A    between atoms: C_2  and  C_4 
REMARK    3  A    between atoms: C_6  and  C_10 
ROOT
HETATM    1  C   UNL     1     -42.204 -44.311  11.396  1.00  0.00     0.255 C 
HETATM    2  C   UNL     1     -41.695 -45.490  12.189  1.00  0.00     0.105 C 
HETATM    3  C   UNL     1     -41.338 -46.400  11.065  1.00  0.00     0.046 C 
HETATM    4  N   UNL     1     -41.710 -45.991   9.893  1.00  0.00    -0.269 N 
ATOM      5  HN  UNL     1     -41.530 -46.463   9.007  1.00  0.00     0.194 HD
HETATM    6  O   UNL     1     -42.409 -44.778  10.062  1.00  0.00    -0.264 OA
ENDROOT
BRANCH   3   7
HETATM    7  C   UNL     1     -40.647 -47.687  11.288  1.00  0.00     0.004 A 
HETATM    8  C   UNL     1     -39.543 -47.753  12.142  1.00  0.00     0.016 A 
HETATM    9  C   UNL     1     -38.879 -48.966  12.318  1.00  0.00     0.018 A 
HETATM   10  C   UNL     1     -39.344 -50.076  11.632  1.00  0.00     0.087 A 
HETATM   11  N   UNL     1     -40.407 -50.049  10.798  1.00  0.00    -0.374 N 
HETATM   12  C   UNL     1     -41.035 -48.856  10.645  1.00  0.00     0.101 A 
ATOM     13  HN  UNL     1     -40.722 -50.885  10.308  1.00  0.00     0.164 HD
ENDBRANCH   3   7
BRANCH   1  14
HETATM   14  C   UNL     1     -41.224 -43.148  11.397  1.00  0.00     0.172 C 
HETATM   15  O   UNL     1     -41.131 -42.337  12.309  1.00  0.00    -0.648 OA
BRANCH  14  16
HETATM   16  O   UNL     1     -40.454 -43.087  10.285  1.00  0.00    -0.774 OA
HETATM   17  H   UNL     1     -41.013 -42.945   9.486  1.00  0.00     0.167 HD
ENDBRANCH  14  16
ENDBRANCH   1  14
TORSDOF 3
ENDMDL
MODEL 9
REMARK VINA RESULT:      -4.7      3.632      5.576
REMARK  3 active torsions:
REMARK  status: ('A' for Active; 'I' for Inactive)
REMARK    1  A    between atoms: O_1  and  C_2 
REMARK    2  A    between atoms: C_2  and  C_4 
REMARK    3  A    between atoms: C_6  and  C_10 
ROOT
HETATM    1  C   UNL     1     -44.981 -52.703  12.395  1.00  0.00     0.255 C 
HETATM    2  C   UNL     1     -45.214 -51.518  13.300  1.00  0.00     0.105 C 
HETATM    3  C   UNL     1     -46.026 -52.181  14.359  1.00  0.00     0.046 C 
HETATM    4  N   UNL     1     -46.382 -53.398  14.092  1.00  0.00    -0.269 N 
ATOM      5  HN  UNL     1     -46.914 -54.017  14.705  1.00  0.00     0.194 HD
HETATM    6  O   UNL     1     -45.905 -53.714  12.804  1.00  0.00    -0.264 OA
ENDROOT
BRANCH   3   7
HETATM    7  C   UNL     1     -46.423 -51.478  15.597  1.00  0.00     0.004 A 
HETATM    8  C   UNL     1     -45.488 -50.717  16.303  1.00  0.00     0.016 A 
HETATM    9  C   UNL     1     -45.866 -50.086  17.487  1.00  0.00     0.018 A 
HETATM   10  C   UNL     1     -47.171 -50.237  17.925  1.00  0.00     0.087 A 
HETATM   11  N   UNL     1     -48.101 -50.965  17.269  1.00  0.00    -0.374 N 
HETATM   12  C   UNL     1     -47.707 -51.569  16.120  1.00  0.00     0.101 A 
ATOM     13  HN  UNL     1     -49.054 -51.057  17.621  1.00  0.00     0.164 HD
ENDBRANCH   3   7
BRANCH   1  14
HETATM   14  C   UNL     1     -43.557 -53.231  12.488  1.00  0.00     0.172 C 
HETATM   15  O   UNL     1     -43.199 -54.087  13.286  1.00  0.00    -0.648 OA
BRANCH  14  16
HETATM   16  O   UNL     1     -42.709 -52.663  11.599  1.00  0.00    -0.774 OA
HETATM   17  H   UNL     1     -42.078 -52.061  12.059  1.00  0.00     0.167 HD
ENDBRANCH  14  16
ENDBRANCH   1  14
TORSDOF 3
ENDMDL
