MODEL 1
REMARK VINA RESULT:      -7.2      0.000      0.000
REMARK  2 active torsions:
REMARK  status: ('A' for Active; 'I' for Inactive)
REMARK    1  A    between atoms: C_8  and  N_9 
REMARK       I    between atoms: N_9  and  C_10 
REMARK       I    between atoms: C_10  and  N_12 
REMARK    2  A    between atoms: N_12  and  C_13 
ROOT
HETATM    1  N   UNL     1     -43.066 -48.496  10.638  1.00  0.00    -0.305 N 
HETATM    2  C   UNL     1     -42.611 -48.612  11.935  1.00  0.00     0.321 C 
HETATM    3  O   UNL     1     -42.370 -47.676  12.685  1.00  0.00    -0.247 OA
HETATM    4  N   UNL     1     -42.445 -49.909  12.370  1.00  0.00    -0.338 N 
HETATM    5  H   UNL     1     -42.995 -49.306  10.040  1.00  0.00     0.171 HD
HETATM    6  H   UNL     1     -42.729 -50.671  11.769  1.00  0.00     0.164 HD
ENDROOT
BRANCH   1   7
HETATM    7  C   UNL     1     -43.415 -47.285  10.029  1.00  0.00     0.092 A 
HETATM    8  C   UNL     1     -44.678 -46.934   9.457  1.00  0.00     0.058 A 
HETATM    9  C   UNL     1     -45.924 -47.718   9.309  1.00  0.00     0.072 C 
HETATM   10  N   UNL     1     -44.669 -45.684   8.967  1.00  0.00    -0.263 N 
HETATM   11  O   UNL     1     -43.411 -45.198   9.210  1.00  0.00    -0.240 OA
ATOM     12  HN  UNL     1     -45.439 -45.196   8.509  1.00  0.00     0.194 HD
HETATM   13  C   UNL     1     -42.664 -46.134   9.854  1.00  0.00     0.101 A 
HETATM   14  C   UNL     1     -41.311 -45.664  10.221  1.00  0.00     0.081 C 
ENDBRANCH   1   7
BRANCH   4  15
HETATM   15  C   UNL     1     -42.263 -50.157  13.808  1.00  0.00     0.091 C 
HETATM   16  C   UNL     1     -41.540 -51.464  14.117  1.00  0.00     0.051 C 
HETATM   17  C   UNL     1     -42.447 -52.684  14.084  1.00  0.00     0.171 C 
HETATM   18  O   UNL     1     -43.684 -52.498  14.771  1.00  0.00    -0.380 OA
HETATM   19  C   UNL     1     -44.447 -51.347  14.383  1.00  0.00     0.062 C 
HETATM   20  C   UNL     1     -45.007 -51.487  12.952  1.00  0.00     0.038 C 
HETATM   21  C   UNL     1     -45.703 -51.305  15.291  1.00  0.00     0.038 C 
HETATM   22  C   UNL     1     -43.584 -50.096  14.590  1.00  0.00     0.063 C 
HETATM   23  C   UNL     1     -46.412 -52.043  13.113  1.00  0.00     0.003 C 
HETATM   24  C   UNL     1     -46.915 -51.357  14.365  1.00  0.00     0.003 C 
ENDBRANCH   4  15
TORSDOF 2
ENDMDL
MODEL 2
REMARK VINA RESULT:      -7.1      3.073      7.286
REMARK  2 active torsions:
REMARK  status: ('A' for Active; 'I' for Inactive)
REMARK    1  A    between atoms: C_8  and  N_9 
REMARK       I    between atoms: N_9  and  C_10 
REMARK       I    between atoms: C_10  and  N_12 
REMARK    2  A    between atoms: N_12  and  C_13 
ROOT
HETATM    1  N   UNL     1     -40.693 -50.151  11.305  1.00  0.00    -0.305 N 
HETATM    2  C   UNL     1     -41.847 -49.484  11.656  1.00  0.00     0.321 C 
HETATM    3  O   UNL     1     -42.413 -49.573  12.738  1.00  0.00    -0.247 OA
HETATM    4  N   UNL     1     -42.352 -48.657  10.677  1.00  0.00    -0.338 N 
HETATM    5  H   UNL     1     -40.456 -50.198  10.325  1.00  0.00     0.171 HD
HETATM    6  H   UNL     1     -41.828 -48.528   9.822  1.00  0.00     0.164 HD
ENDROOT
BRANCH   1   7
HETATM    7  C   UNL     1     -39.946 -50.951  12.178  1.00  0.00     0.092 A 
HETATM    8  C   UNL     1     -38.689 -50.636  12.783  1.00  0.00     0.058 A 
HETATM    9  C   UNL     1     -37.823 -49.444  12.647  1.00  0.00     0.072 C 
HETATM   10  N   UNL     1     -38.259 -51.629  13.578  1.00  0.00    -0.263 N 
HETATM   11  O   UNL     1     -39.221 -52.603  13.509  1.00  0.00    -0.240 OA
ATOM     12  HN  UNL     1     -37.396 -51.653  14.121  1.00  0.00     0.194 HD
HETATM   13  C   UNL     1     -40.234 -52.205  12.694  1.00  0.00     0.101 A 
HETATM   14  C   UNL     1     -41.352 -53.170  12.621  1.00  0.00     0.081 C 
ENDBRANCH   1   7
BRANCH   4  15
HETATM   15  C   UNL     1     -43.386 -47.677  11.040  1.00  0.00     0.091 C 
HETATM   16  C   UNL     1     -44.207 -47.185   9.852  1.00  0.00     0.051 C 
HETATM   17  C   UNL     1     -43.526 -46.081   9.058  1.00  0.00     0.171 C 
HETATM   18  O   UNL     1     -42.962 -45.053   9.871  1.00  0.00    -0.380 OA
HETATM   19  C   UNL     1     -42.068 -45.494  10.903  1.00  0.00     0.062 C 
HETATM   20  C   UNL     1     -40.757 -46.063  10.322  1.00  0.00     0.038 C 
HETATM   21  C   UNL     1     -41.630 -44.237  11.696  1.00  0.00     0.038 C 
HETATM   22  C   UNL     1     -42.819 -46.475  11.812  1.00  0.00     0.063 C 
HETATM   23  C   UNL     1     -39.772 -44.906  10.322  1.00  0.00     0.003 C 
HETATM   24  C   UNL     1     -40.109 -44.164  11.597  1.00  0.00     0.003 C 
ENDBRANCH   4  15
TORSDOF 2
ENDMDL
MODEL 3
REMARK VINA RESULT:      -6.6      1.968      2.155
REMARK  2 active torsions:
REMARK  status: ('A' for Active; 'I' for Inactive)
REMARK    1  A    between atoms: C_8  and  N_9 
REMARK       I    between atoms: N_9  and  C_10 
REMARK       I    between atoms: C_10  and  N_12 
REMARK    2  A    between atoms: N_12  and  C_13 
ROOT
HETATM    1  N   UNL     1     -43.054 -48.653  10.805  1.00  0.00    -0.305 N 
HETATM    2  C   UNL     1     -42.031 -49.242  11.517  1.00  0.00     0.321 C 
HETATM    3  O   UNL     1     -40.896 -48.797  11.623  1.00  0.00    -0.247 OA
HETATM    4  N   UNL     1     -42.375 -50.416  12.151  1.00  0.00    -0.338 N 
HETATM    5  H   UNL     1     -43.859 -49.219  10.583  1.00  0.00     0.171 HD
HETATM    6  H   UNL     1     -43.338 -50.727  12.125  1.00  0.00     0.164 HD
ENDROOT
BRANCH   1   7
HETATM    7  C   UNL     1     -42.965 -47.403  10.181  1.00  0.00     0.092 A 
HETATM    8  C   UNL     1     -43.192 -47.103   8.801  1.00  0.00     0.058 A 
HETATM    9  C   UNL     1     -43.533 -47.986   7.664  1.00  0.00     0.072 C 
HETATM   10  N   UNL     1     -43.031 -45.795   8.546  1.00  0.00    -0.263 N 
HETATM   11  O   UNL     1     -42.702 -45.219   9.745  1.00  0.00    -0.240 OA
ATOM     12  HN  UNL     1     -43.133 -45.326   7.646  1.00  0.00     0.194 HD
HETATM   13  C   UNL     1     -42.676 -46.162  10.725  1.00  0.00     0.101 A 
HETATM   14  C   UNL     1     -42.400 -45.612  12.070  1.00  0.00     0.081 C 
ENDBRANCH   1   7
BRANCH   4  15
HETATM   15  C   UNL     1     -41.471 -50.962  13.174  1.00  0.00     0.091 C 
HETATM   16  C   UNL     1     -40.335 -51.804  12.601  1.00  0.00     0.051 C 
HETATM   17  C   UNL     1     -40.739 -53.235  12.282  1.00  0.00     0.171 C 
HETATM   18  O   UNL     1     -41.495 -53.862  13.317  1.00  0.00    -0.380 OA
HETATM   19  C   UNL     1     -42.655 -53.146  13.764  1.00  0.00     0.062 C 
HETATM   20  C   UNL     1     -43.754 -53.102  12.682  1.00  0.00     0.038 C 
HETATM   21  C   UNL     1     -43.280 -53.966  14.921  1.00  0.00     0.038 C 
HETATM   22  C   UNL     1     -42.215 -51.761  14.255  1.00  0.00     0.063 C 
HETATM   23  C   UNL     1     -44.677 -54.270  12.986  1.00  0.00     0.003 C 
HETATM   24  C   UNL     1     -44.707 -54.303  14.499  1.00  0.00     0.003 C 
ENDBRANCH   4  15
TORSDOF 2
ENDMDL
MODEL 4
REMARK VINA RESULT:      -6.6      2.271      3.436
REMARK  2 active torsions:
REMARK  status: ('A' for Active; 'I' for Inactive)
REMARK    1  A    between atoms: C_8  and  N_9 
REMARK       I    between atoms: N_9  and  C_10 
REMARK       I    between atoms: C_10  and  N_12 
REMARK    2  A    between atoms: N_12  and  C_13 
ROOT
HETATM    1  N   UNL     1     -41.654 -50.662  11.802  1.00  0.00    -0.305 N 
HETATM    2  C   UNL     1     -41.538 -51.256  13.041  1.00  0.00     0.321 C 
HETATM    3  O   UNL     1     -40.938 -50.783  13.998  1.00  0.00    -0.247 OA
HETATM    4  N   UNL     1     -42.180 -52.469  13.158  1.00  0.00    -0.338 N 
HETATM    5  H   UNL     1     -41.951 -51.239  11.029  1.00  0.00     0.171 HD
HETATM    6  H   UNL     1     -42.743 -52.806  12.388  1.00  0.00     0.164 HD
ENDROOT
BRANCH   1   7
HETATM    7  C   UNL     1     -41.184 -49.381  11.492  1.00  0.00     0.092 A 
HETATM    8  C   UNL     1     -39.821 -48.957  11.392  1.00  0.00     0.058 A 
HETATM    9  C   UNL     1     -38.560 -49.699  11.613  1.00  0.00     0.072 C 
HETATM   10  N   UNL     1     -39.730 -47.659  11.064  1.00  0.00    -0.263 N 
HETATM   11  O   UNL     1     -41.020 -47.213  10.943  1.00  0.00    -0.240 OA
ATOM     12  HN  UNL     1     -38.876 -47.115  10.933  1.00  0.00     0.194 HD
HETATM   13  C   UNL     1     -41.891 -48.231  11.178  1.00  0.00     0.101 A 
HETATM   14  C   UNL     1     -43.309 -47.853  10.996  1.00  0.00     0.081 C 
ENDBRANCH   1   7
BRANCH   4  15
HETATM   15  C   UNL     1     -42.383 -53.038  14.498  1.00  0.00     0.091 C 
HETATM   16  C   UNL     1     -42.616 -54.546  14.495  1.00  0.00     0.051 C 
HETATM   17  C   UNL     1     -44.050 -54.939  14.178  1.00  0.00     0.171 C 
HETATM   18  O   UNL     1     -45.025 -54.177  14.889  1.00  0.00    -0.380 OA
HETATM   19  C   UNL     1     -44.904 -52.751  14.780  1.00  0.00     0.062 C 
HETATM   20  C   UNL     1     -45.231 -52.256  13.357  1.00  0.00     0.038 C 
HETATM   21  C   UNL     1     -46.008 -52.130  15.673  1.00  0.00     0.038 C 
HETATM   22  C   UNL     1     -43.511 -52.340  15.274  1.00  0.00     0.063 C 
HETATM   23  C   UNL     1     -46.701 -51.869  13.384  1.00  0.00     0.003 C 
HETATM   24  C   UNL     1     -46.875 -51.267  14.761  1.00  0.00     0.003 C 
ENDBRANCH   4  15
TORSDOF 2
ENDMDL
MODEL 5
REMARK VINA RESULT:      -6.5      2.166      2.959
REMARK  2 active torsions:
REMARK  status: ('A' for Active; 'I' for Inactive)
REMARK    1  A    between atoms: C_8  and  N_9 
REMARK       I    between atoms: N_9  and  C_10 
REMARK       I    between atoms: C_10  and  N_12 
REMARK    2  A    between atoms: N_12  and  C_13 
ROOT
HETATM    1  N   UNL     1     -42.824 -49.347  12.059  1.00  0.00    -0.305 N 
HETATM    2  C   UNL     1     -42.507 -50.642  12.411  1.00  0.00     0.321 C 
HETATM    3  O   UNL     1     -41.406 -51.161  12.281  1.00  0.00    -0.247 OA
HETATM    4  N   UNL     1     -43.549 -51.357  12.962  1.00  0.00    -0.338 N 
HETATM    5  H   UNL     1     -43.801 -49.106  11.979  1.00  0.00     0.171 HD
HETATM    6  H   UNL     1     -44.427 -50.889  13.142  1.00  0.00     0.164 HD
ENDROOT
BRANCH   1   7
HETATM    7  C   UNL     1     -41.898 -48.406  11.592  1.00  0.00     0.092 A 
HETATM    8  C   UNL     1     -41.958 -47.661  10.372  1.00  0.00     0.058 A 
HETATM    9  C   UNL     1     -42.946 -47.687   9.271  1.00  0.00     0.072 C 
HETATM   10  N   UNL     1     -40.907 -46.836  10.245  1.00  0.00    -0.263 N 
HETATM   11  O   UNL     1     -40.148 -47.022  11.371  1.00  0.00    -0.240 OA
ATOM     12  HN  UNL     1     -40.713 -46.201   9.470  1.00  0.00     0.194 HD
HETATM   13  C   UNL     1     -40.736 -47.940  12.184  1.00  0.00     0.101 A 
HETATM   14  C   UNL     1     -40.018 -48.148  13.461  1.00  0.00     0.081 C 
ENDBRANCH   1   7
BRANCH   4  15
HETATM   15  C   UNL     1     -43.255 -52.623  13.648  1.00  0.00     0.091 C 
HETATM   16  C   UNL     1     -43.777 -53.854  12.912  1.00  0.00     0.051 C 
HETATM   17  C   UNL     1     -45.251 -54.132  13.161  1.00  0.00     0.171 C 
HETATM   18  O   UNL     1     -45.628 -54.042  14.534  1.00  0.00    -0.380 OA
HETATM   19  C   UNL     1     -45.272 -52.823  15.201  1.00  0.00     0.062 C 
HETATM   20  C   UNL     1     -46.080 -51.621  14.669  1.00  0.00     0.038 C 
HETATM   21  C   UNL     1     -45.712 -52.966  16.680  1.00  0.00     0.038 C 
HETATM   22  C   UNL     1     -43.752 -52.639  15.102  1.00  0.00     0.063 C 
HETATM   23  C   UNL     1     -47.270 -51.481  15.605  1.00  0.00     0.003 C 
HETATM   24  C   UNL     1     -46.689 -51.827  16.958  1.00  0.00     0.003 C 
ENDBRANCH   4  15
TORSDOF 2
ENDMDL
MODEL 6
REMARK VINA RESULT:      -6.5      2.813      6.795
REMARK  2 active torsions:
REMARK  status: ('A' for Active; 'I' for Inactive)
REMARK    1  A    between atoms: C_8  and  N_9 
REMARK       I    between atoms: N_9  and  C_10 
REMARK       I    between atoms: C_10  and  N_12 
REMARK    2  A    between atoms: N_12  and  C_13 
ROOT
HETATM    1  N   UNL     1     -43.426 -51.753  12.373  1.00  0.00    -0.305 N 
HETATM    2  C   UNL     1     -43.334 -50.483  12.902  1.00  0.00     0.321 C 
HETATM    3  O   UNL     1     -43.946 -50.080  13.883  1.00  0.00    -0.247 OA
HETATM    4  N   UNL     1     -42.459 -49.649  12.241  1.00  0.00    -0.338 N 
HETATM    5  H   UNL     1     -43.077 -51.900  11.438  1.00  0.00     0.171 HD
HETATM    6  H   UNL     1     -41.897 -50.021  11.486  1.00  0.00     0.164 HD
ENDROOT
BRANCH   1   7
HETATM    7  C   UNL     1     -44.161 -52.797  12.948  1.00  0.00     0.092 A 
HETATM    8  C   UNL     1     -45.576 -52.998  12.888  1.00  0.00     0.058 A 
HETATM    9  C   UNL     1     -46.642 -52.182  12.265  1.00  0.00     0.072 C 
HETATM   10  N   UNL     1     -45.946 -54.110  13.541  1.00  0.00    -0.263 N 
HETATM   11  O   UNL     1     -44.789 -54.655  14.033  1.00  0.00    -0.240 OA
ATOM     12  HN  UNL     1     -46.892 -54.476  13.648  1.00  0.00     0.194 HD
HETATM   13  C   UNL     1     -43.722 -53.893  13.673  1.00  0.00     0.101 A 
HETATM   14  C   UNL     1     -42.422 -54.450  14.103  1.00  0.00     0.081 C 
ENDBRANCH   1   7
BRANCH   4  15
HETATM   15  C   UNL     1     -42.052 -48.392  12.886  1.00  0.00     0.091 C 
HETATM   16  C   UNL     1     -42.030 -47.196  11.939  1.00  0.00     0.051 C 
HETATM   17  C   UNL     1     -40.762 -47.106  11.104  1.00  0.00     0.171 C 
HETATM   18  O   UNL     1     -39.565 -47.307  11.853  1.00  0.00    -0.380 OA
HETATM   19  C   UNL     1     -39.514 -48.508  12.638  1.00  0.00     0.062 C 
HETATM   20  C   UNL     1     -39.436 -49.768  11.752  1.00  0.00     0.038 C 
HETATM   21  C   UNL     1     -38.171 -48.491  13.412  1.00  0.00     0.038 C 
HETATM   22  C   UNL     1     -40.701 -48.507  13.609  1.00  0.00     0.063 C 
HETATM   23  C   UNL     1     -37.956 -50.094  11.630  1.00  0.00     0.003 C 
HETATM   24  C   UNL     1     -37.412 -49.749  12.999  1.00  0.00     0.003 C 
ENDBRANCH   4  15
TORSDOF 2
ENDMDL
MODEL 7
REMARK VINA RESULT:      -6.5      2.891      7.531
REMARK  2 active torsions:
REMARK  status: ('A' for Active; 'I' for Inactive)
REMARK    1  A    between atoms: C_8  and  N_9 
REMARK       I    between atoms: N_9  and  C_10 
REMARK       I    between atoms: C_10  and  N_12 
REMARK    2  A    between atoms: N_12  and  C_13 
ROOT
HETATM    1  N   UNL     1     -42.760 -52.866  12.974  1.00  0.00    -0.305 N 
HETATM    2  C   UNL     1     -43.046 -51.548  13.265  1.00  0.00     0.321 C 
HETATM    3  O   UNL     1     -43.544 -51.147  14.308  1.00  0.00    -0.247 OA
HETATM    4  N   UNL     1     -42.710 -50.656  12.270  1.00  0.00    -0.338 N 
HETATM    5  H   UNL     1     -42.586 -53.108  12.010  1.00  0.00     0.171 HD
HETATM    6  H   UNL     1     -42.221 -50.992  11.450  1.00  0.00     0.164 HD
ENDROOT
BRANCH   1   7
HETATM    7  C   UNL     1     -42.909 -53.925  13.878  1.00  0.00     0.092 A 
HETATM    8  C   UNL     1     -41.930 -54.431  14.790  1.00  0.00     0.058 A 
HETATM    9  C   UNL     1     -40.522 -54.035  15.014  1.00  0.00     0.072 C 
HETATM   10  N   UNL     1     -42.414 -55.448  15.520  1.00  0.00    -0.263 N 
HETATM   11  O   UNL     1     -43.708 -55.623  15.104  1.00  0.00    -0.240 OA
ATOM     12  HN  UNL     1     -41.920 -55.981  16.236  1.00  0.00     0.194 HD
HETATM   13  C   UNL     1     -44.017 -54.713  14.142  1.00  0.00     0.101 A 
HETATM   14  C   UNL     1     -45.423 -54.784  13.688  1.00  0.00     0.081 C 
ENDBRANCH   1   7
BRANCH   4  15
HETATM   15  C   UNL     1     -42.683 -49.220  12.585  1.00  0.00     0.091 C 
HETATM   16  C   UNL     1     -42.959 -48.324  11.381  1.00  0.00     0.051 C 
HETATM   17  C   UNL     1     -41.739 -48.092  10.503  1.00  0.00     0.171 C 
HETATM   18  O   UNL     1     -40.556 -47.775  11.235  1.00  0.00    -0.380 OA
HETATM   19  C   UNL     1     -40.203 -48.695  12.278  1.00  0.00     0.062 C 
HETATM   20  C   UNL     1     -39.756 -50.059  11.713  1.00  0.00     0.038 C 
HETATM   21  C   UNL     1     -38.941 -48.129  12.977  1.00  0.00     0.038 C 
HETATM   22  C   UNL     1     -41.374 -48.788  13.264  1.00  0.00     0.063 C 
HETATM   23  C   UNL     1     -38.240 -49.987  11.618  1.00  0.00     0.003 C 
HETATM   24  C   UNL     1     -37.854 -49.192  12.846  1.00  0.00     0.003 C 
ENDBRANCH   4  15
TORSDOF 2
ENDMDL
MODEL 8
REMARK VINA RESULT:      -6.2      1.672      2.591
REMARK  2 active torsions:
REMARK  status: ('A' for Active; 'I' for Inactive)
REMARK    1  A    between atoms: C_8  and  N_9 
REMARK       I    between atoms: N_9  and  C_10 
REMARK       I    between atoms: C_10  and  N_12 
REMARK    2  A    between atoms: N_12  and  C_13 
ROOT
HETATM    1  N   UNL     1     -42.774 -48.903  11.483  1.00  0.00    -0.305 N 
HETATM    2  C   UNL     1     -43.038 -48.894  12.836  1.00  0.00     0.321 C 
HETATM    3  O   UNL     1     -43.020 -47.901  13.553  1.00  0.00    -0.247 OA
HETATM    4  N   UNL     1     -43.356 -50.125  13.367  1.00  0.00    -0.338 N 
HETATM    5  H   UNL     1     -42.576 -49.792  11.048  1.00  0.00     0.171 HD
HETATM    6  H   UNL     1     -43.451 -50.919  12.748  1.00  0.00     0.164 HD
ENDROOT
BRANCH   1   7
HETATM    7  C   UNL     1     -42.543 -47.756  10.714  1.00  0.00     0.092 A 
HETATM    8  C   UNL     1     -41.347 -46.974  10.659  1.00  0.00     0.058 A 
HETATM    9  C   UNL     1     -40.069 -47.111  11.390  1.00  0.00     0.072 C 
HETATM   10  N   UNL     1     -41.468 -45.944   9.806  1.00  0.00    -0.263 N 
HETATM   11  O   UNL     1     -42.734 -46.035   9.289  1.00  0.00    -0.240 OA
ATOM     12  HN  UNL     1     -40.763 -45.240   9.587  1.00  0.00     0.194 HD
HETATM   13  C   UNL     1     -43.375 -47.116   9.809  1.00  0.00     0.101 A 
HETATM   14  C   UNL     1     -44.727 -47.331   9.249  1.00  0.00     0.081 C 
ENDBRANCH   1   7
BRANCH   4  15
HETATM   15  C   UNL     1     -43.948 -50.187  14.711  1.00  0.00     0.091 C 
HETATM   16  C   UNL     1     -42.928 -50.432  15.819  1.00  0.00     0.051 C 
HETATM   17  C   UNL     1     -42.551 -51.896  15.984  1.00  0.00     0.171 C 
HETATM   18  O   UNL     1     -43.670 -52.781  15.984  1.00  0.00    -0.380 OA
HETATM   19  C   UNL     1     -44.561 -52.660  14.867  1.00  0.00     0.062 C 
HETATM   20  C   UNL     1     -43.903 -53.135  13.555  1.00  0.00     0.038 C 
HETATM   21  C   UNL     1     -45.725 -53.656  15.101  1.00  0.00     0.038 C 
HETATM   22  C   UNL     1     -45.082 -51.218  14.811  1.00  0.00     0.063 C 
HETATM   23  C   UNL     1     -44.312 -54.589  13.392  1.00  0.00     0.003 C 
HETATM   24  C   UNL     1     -45.734 -54.609  13.909  1.00  0.00     0.003 C 
ENDBRANCH   4  15
TORSDOF 2
ENDMDL
MODEL 9
REMARK VINA RESULT:      -6.2      2.936      6.802
REMARK  2 active torsions:
REMARK  status: ('A' for Active; 'I' for Inactive)
REMARK    1  A    between atoms: C_8  and  N_9 
REMARK       I    between atoms: N_9  and  C_10 
REMARK       I    between atoms: C_10  and  N_12 
REMARK    2  A    between atoms: N_12  and  C_13 
ROOT
HETATM    1  N   UNL     1     -43.374 -51.890  13.709  1.00  0.00    -0.305 N 
HETATM    2  C   UNL     1     -42.315 -51.809  12.829  1.00  0.00     0.321 C 
HETATM    3  O   UNL     1     -41.923 -52.718  12.110  1.00  0.00    -0.247 OA
HETATM    4  N   UNL     1     -41.696 -50.579  12.790  1.00  0.00    -0.338 N 
HETATM    5  H   UNL     1     -43.453 -51.177  14.418  1.00  0.00     0.171 HD
HETATM    6  H   UNL     1     -42.084 -49.813  13.325  1.00  0.00     0.164 HD
ENDROOT
BRANCH   1   7
HETATM    7  C   UNL     1     -44.217 -53.001  13.830  1.00  0.00     0.092 A 
HETATM    8  C   UNL     1     -45.562 -53.125  13.359  1.00  0.00     0.058 A 
HETATM    9  C   UNL     1     -46.439 -52.151  12.672  1.00  0.00     0.072 C 
HETATM   10  N   UNL     1     -46.073 -54.335  13.635  1.00  0.00    -0.263 N 
HETATM   11  O   UNL     1     -45.079 -55.021  14.283  1.00  0.00    -0.240 OA
ATOM     12  HN  UNL     1     -47.008 -54.675  13.409  1.00  0.00     0.194 HD
HETATM   13  C   UNL     1     -43.968 -54.244  14.389  1.00  0.00     0.101 A 
HETATM   14  C   UNL     1     -42.818 -54.935  15.013  1.00  0.00     0.081 C 
ENDBRANCH   1   7
BRANCH   4  15
HETATM   15  C   UNL     1     -40.770 -50.286  11.687  1.00  0.00     0.091 C 
HETATM   16  C   UNL     1     -39.320 -50.115  12.132  1.00  0.00     0.051 C 
HETATM   17  C   UNL     1     -39.012 -48.729  12.678  1.00  0.00     0.171 C 
HETATM   18  O   UNL     1     -39.528 -47.668  11.876  1.00  0.00    -0.380 OA
HETATM   19  C   UNL     1     -40.929 -47.740  11.571  1.00  0.00     0.062 C 
HETATM   20  C   UNL     1     -41.800 -47.516  12.824  1.00  0.00     0.038 C 
HETATM   21  C   UNL     1     -41.257 -46.540  10.647  1.00  0.00     0.038 C 
HETATM   22  C   UNL     1     -41.204 -49.069  10.855  1.00  0.00     0.063 C 
HETATM   23  C   UNL     1     -42.142 -46.035  12.827  1.00  0.00     0.003 C 
HETATM   24  C   UNL     1     -42.329 -45.720  11.359  1.00  0.00     0.003 C 
ENDBRANCH   4  15
TORSDOF 2
ENDMDL
