MODEL 1
REMARK VINA RESULT:      -4.8      0.000      0.000
REMARK  2 active torsions:
REMARK  status: ('A' for Active; 'I' for Inactive)
REMARK    1  A    between atoms: C_1  and  C_2 
REMARK    2  A    between atoms: C_1  and  N_7 
ROOT
HETATM    1  N   UNL     1     -44.361 -47.264   8.994  1.00  0.00    -0.285 N 
HETATM    2  C   UNL     1     -44.794 -45.985   8.834  1.00  0.00     0.201 A 
HETATM    3  N   UNL     1     -46.107 -45.959   8.871  1.00  0.00    -0.346 N 
ATOM      4  HN  UNL     1     -46.729 -45.154   8.790  1.00  0.00     0.167 HD
HETATM    5  C   UNL     1     -46.435 -47.274   9.044  1.00  0.00     0.198 A 
HETATM    6  N   UNL     1     -45.398 -48.114   9.122  1.00  0.00    -0.293 N 
ATOM      7  HN  UNL     1     -45.393 -49.127   9.245  1.00  0.00     0.188 HD
ENDROOT
BRANCH   1   8
HETATM    8  C   UNL     1     -42.999 -47.747   8.935  1.00  0.00     0.185 C 
BRANCH   8   9
HETATM    9  C   UNL     1     -42.300 -47.797  10.296  1.00  0.00     0.240 C 
HETATM   10  C   UNL     1     -41.486 -46.543  10.628  1.00  0.00     0.039 C 
HETATM   11  C   UNL     1     -40.225 -47.052  11.321  1.00  0.00     0.032 C 
HETATM   12  C   UNL     1     -40.442 -48.543  11.484  1.00  0.00     0.270 C 
HETATM   13  N   UNL     1     -41.297 -48.878  10.347  1.00  0.00     0.089 N 
HETATM   14  H   UNL     1     -41.751 -49.778  10.503  1.00  0.00     0.316 HD
ENDBRANCH   8   9
ENDBRANCH   1   8
TORSDOF 2
ENDMDL
MODEL 2
REMARK VINA RESULT:      -4.6      1.202      1.466
REMARK  2 active torsions:
REMARK  status: ('A' for Active; 'I' for Inactive)
REMARK    1  A    between atoms: C_1  and  C_2 
REMARK    2  A    between atoms: C_1  and  N_7 
ROOT
HETATM    1  N   UNL     1     -43.617 -47.215   9.312  1.00  0.00    -0.285 N 
HETATM    2  C   UNL     1     -43.843 -47.777   8.094  1.00  0.00     0.201 A 
HETATM    3  N   UNL     1     -45.114 -48.092   7.986  1.00  0.00    -0.346 N 
ATOM      4  HN  UNL     1     -45.597 -48.518   7.196  1.00  0.00     0.167 HD
HETATM    5  C   UNL     1     -45.629 -47.708   9.192  1.00  0.00     0.198 A 
HETATM    6  N   UNL     1     -44.748 -47.167  10.041  1.00  0.00    -0.293 N 
ATOM      7  HN  UNL     1     -44.894 -46.813  10.986  1.00  0.00     0.188 HD
ENDROOT
BRANCH   1   8
HETATM    8  C   UNL     1     -42.348 -46.800   9.868  1.00  0.00     0.185 C 
BRANCH   8   9
HETATM    9  C   UNL     1     -41.771 -47.779  10.893  1.00  0.00     0.240 C 
HETATM   10  C   UNL     1     -40.561 -47.243  11.662  1.00  0.00     0.039 C 
HETATM   11  C   UNL     1     -39.610 -48.428  11.797  1.00  0.00     0.032 C 
HETATM   12  C   UNL     1     -40.375 -49.610  11.237  1.00  0.00     0.270 C 
HETATM   13  N   UNL     1     -41.248 -48.996  10.240  1.00  0.00     0.089 N 
HETATM   14  H   UNL     1     -42.012 -49.630  10.004  1.00  0.00     0.316 HD
ENDBRANCH   8   9
ENDBRANCH   1   8
TORSDOF 2
ENDMDL
MODEL 3
REMARK VINA RESULT:      -4.4      2.096      2.925
REMARK  2 active torsions:
REMARK  status: ('A' for Active; 'I' for Inactive)
REMARK    1  A    between atoms: C_1  and  C_2 
REMARK    2  A    between atoms: C_1  and  N_7 
ROOT
HETATM    1  N   UNL     1     -43.548 -47.435   9.447  1.00  0.00    -0.285 N 
HETATM    2  C   UNL     1     -44.875 -47.476   9.153  1.00  0.00     0.201 A 
HETATM    3  N   UNL     1     -45.040 -47.954   7.940  1.00  0.00    -0.346 N 
ATOM      4  HN  UNL     1     -45.911 -48.116   7.435  1.00  0.00     0.167 HD
HETATM    5  C   UNL     1     -43.759 -48.182   7.523  1.00  0.00     0.198 A 
HETATM    6  N   UNL     1     -42.808 -47.876   8.412  1.00  0.00    -0.293 N 
ATOM      7  HN  UNL     1     -41.794 -47.954   8.329  1.00  0.00     0.188 HD
ENDROOT
BRANCH   1   8
HETATM    8  C   UNL     1     -42.927 -46.903  10.641  1.00  0.00     0.185 C 
BRANCH   8   9
HETATM    9  C   UNL     1     -42.286 -45.528  10.445  1.00  0.00     0.240 C 
HETATM   10  C   UNL     1     -40.761 -45.523  10.576  1.00  0.00     0.039 C 
HETATM   11  C   UNL     1     -40.422 -44.231  11.316  1.00  0.00     0.032 C 
HETATM   12  C   UNL     1     -41.741 -43.495  11.440  1.00  0.00     0.270 C 
HETATM   13  N   UNL     1     -42.720 -44.578  11.488  1.00  0.00     0.089 N 
HETATM   14  H   UNL     1     -43.652 -44.218  11.276  1.00  0.00     0.316 HD
ENDBRANCH   8   9
ENDBRANCH   1   8
TORSDOF 2
ENDMDL
MODEL 4
REMARK VINA RESULT:      -4.2      2.391      3.740
REMARK  2 active torsions:
REMARK  status: ('A' for Active; 'I' for Inactive)
REMARK    1  A    between atoms: C_1  and  C_2 
REMARK    2  A    between atoms: C_1  and  N_7 
ROOT
HETATM    1  N   UNL     1     -42.080 -48.403  10.734  1.00  0.00    -0.285 N 
HETATM    2  C   UNL     1     -43.082 -47.882  11.492  1.00  0.00     0.201 A 
HETATM    3  N   UNL     1     -43.926 -47.238  10.719  1.00  0.00    -0.346 N 
ATOM      4  HN  UNL     1     -44.781 -46.747  10.982  1.00  0.00     0.167 HD
HETATM    5  C   UNL     1     -43.378 -47.387   9.475  1.00  0.00     0.198 A 
HETATM    6  N   UNL     1     -42.243 -48.092   9.434  1.00  0.00    -0.293 N 
ATOM      7  HN  UNL     1     -41.658 -48.330   8.634  1.00  0.00     0.188 HD
ENDROOT
BRANCH   1   8
HETATM    8  C   UNL     1     -40.906 -49.113  11.194  1.00  0.00     0.185 C 
BRANCH   8   9
HETATM    9  C   UNL     1     -41.221 -50.358  12.026  1.00  0.00     0.240 C 
HETATM   10  C   UNL     1     -40.304 -50.551  13.237  1.00  0.00     0.039 C 
HETATM   11  C   UNL     1     -40.042 -52.052  13.311  1.00  0.00     0.032 C 
HETATM   12  C   UNL     1     -40.930 -52.657  12.242  1.00  0.00     0.270 C 
HETATM   13  N   UNL     1     -41.018 -51.594  11.245  1.00  0.00     0.089 N 
HETATM   14  H   UNL     1     -41.812 -51.758  10.626  1.00  0.00     0.316 HD
ENDBRANCH   8   9
ENDBRANCH   1   8
TORSDOF 2
ENDMDL
MODEL 5
REMARK VINA RESULT:      -4.2      5.036      7.203
REMARK  2 active torsions:
REMARK  status: ('A' for Active; 'I' for Inactive)
REMARK    1  A    between atoms: C_1  and  C_2 
REMARK    2  A    between atoms: C_1  and  N_7 
ROOT
HETATM    1  N   UNL     1     -40.452 -51.652  12.197  1.00  0.00    -0.285 N 
HETATM    2  C   UNL     1     -39.481 -51.092  12.967  1.00  0.00     0.201 A 
HETATM    3  N   UNL     1     -39.138 -49.929  12.462  1.00  0.00    -0.346 N 
ATOM      4  HN  UNL     1     -38.448 -49.264  12.811  1.00  0.00     0.167 HD
HETATM    5  C   UNL     1     -39.933 -49.828  11.355  1.00  0.00     0.198 A 
HETATM    6  N   UNL     1     -40.754 -50.863  11.148  1.00  0.00    -0.293 N 
ATOM      7  HN  UNL     1     -41.428 -51.014  10.397  1.00  0.00     0.188 HD
ENDROOT
BRANCH   1   8
HETATM    8  C   UNL     1     -41.052 -52.960  12.348  1.00  0.00     0.185 C 
BRANCH   8   9
HETATM    9  C   UNL     1     -42.441 -52.933  12.988  1.00  0.00     0.240 C 
HETATM   10  C   UNL     1     -42.744 -54.140  13.880  1.00  0.00     0.039 C 
HETATM   11  C   UNL     1     -44.205 -54.487  13.610  1.00  0.00     0.032 C 
HETATM   12  C   UNL     1     -44.707 -53.384  12.700  1.00  0.00     0.270 C 
HETATM   13  N   UNL     1     -43.506 -52.989  11.968  1.00  0.00     0.089 N 
HETATM   14  H   UNL     1     -43.640 -52.071  11.543  1.00  0.00     0.316 HD
ENDBRANCH   8   9
ENDBRANCH   1   8
TORSDOF 2
ENDMDL
MODEL 6
REMARK VINA RESULT:      -4.2      4.623      6.846
REMARK  2 active torsions:
REMARK  status: ('A' for Active; 'I' for Inactive)
REMARK    1  A    between atoms: C_1  and  C_2 
REMARK    2  A    between atoms: C_1  and  N_7 
ROOT
HETATM    1  N   UNL     1     -41.959 -51.704  12.502  1.00  0.00    -0.285 N 
HETATM    2  C   UNL     1     -40.687 -52.170  12.384  1.00  0.00     0.201 A 
HETATM    3  N   UNL     1     -39.949 -51.275  11.767  1.00  0.00    -0.346 N 
ATOM      4  HN  UNL     1     -38.956 -51.320  11.536  1.00  0.00     0.167 HD
HETATM    5  C   UNL     1     -40.837 -50.267  11.513  1.00  0.00     0.198 A 
HETATM    6  N   UNL     1     -42.084 -50.486  11.942  1.00  0.00    -0.293 N 
ATOM      7  HN  UNL     1     -42.909 -49.891  11.865  1.00  0.00     0.188 HD
ENDROOT
BRANCH   1   8
HETATM    8  C   UNL     1     -43.105 -52.402  13.042  1.00  0.00     0.185 C 
BRANCH   8   9
HETATM    9  C   UNL     1     -44.417 -51.624  12.924  1.00  0.00     0.240 C 
HETATM   10  C   UNL     1     -45.066 -51.281  14.267  1.00  0.00     0.039 C 
HETATM   11  C   UNL     1     -46.566 -51.466  14.051  1.00  0.00     0.032 C 
HETATM   12  C   UNL     1     -46.715 -51.757  12.572  1.00  0.00     0.270 C 
HETATM   13  N   UNL     1     -45.455 -52.417  12.237  1.00  0.00     0.089 N 
HETATM   14  H   UNL     1     -45.307 -52.399  11.227  1.00  0.00     0.316 HD
ENDBRANCH   8   9
ENDBRANCH   1   8
TORSDOF 2
ENDMDL
MODEL 7
REMARK VINA RESULT:      -4.1      6.234      7.782
REMARK  2 active torsions:
REMARK  status: ('A' for Active; 'I' for Inactive)
REMARK    1  A    between atoms: C_1  and  C_2 
REMARK    2  A    between atoms: C_1  and  N_7 
ROOT
HETATM    1  N   UNL     1     -42.961 -53.190  12.555  1.00  0.00    -0.285 N 
HETATM    2  C   UNL     1     -42.127 -53.997  13.264  1.00  0.00     0.201 A 
HETATM    3  N   UNL     1     -40.882 -53.729  12.944  1.00  0.00    -0.346 N 
ATOM      4  HN  UNL     1     -40.028 -54.153  13.306  1.00  0.00     0.167 HD
HETATM    5  C   UNL     1     -41.011 -52.741  12.008  1.00  0.00     0.198 A 
HETATM    6  N   UNL     1     -42.268 -52.379  11.734  1.00  0.00    -0.293 N 
ATOM      7  HN  UNL     1     -42.611 -51.676  11.078  1.00  0.00     0.188 HD
ENDROOT
BRANCH   1   8
HETATM    8  C   UNL     1     -44.408 -53.211  12.544  1.00  0.00     0.185 C 
BRANCH   8   9
HETATM    9  C   UNL     1     -45.044 -52.836  13.884  1.00  0.00     0.240 C 
HETATM   10  C   UNL     1     -46.553 -52.590  13.815  1.00  0.00     0.039 C 
HETATM   11  C   UNL     1     -46.812 -51.403  14.740  1.00  0.00     0.032 C 
HETATM   12  C   UNL     1     -45.478 -51.124  15.402  1.00  0.00     0.270 C 
HETATM   13  N   UNL     1     -44.513 -51.556  14.393  1.00  0.00     0.089 N 
HETATM   14  H   UNL     1     -43.597 -51.695  14.821  1.00  0.00     0.316 HD
ENDBRANCH   8   9
ENDBRANCH   1   8
TORSDOF 2
ENDMDL
MODEL 8
REMARK VINA RESULT:      -4.1      5.926      7.681
REMARK  2 active torsions:
REMARK  status: ('A' for Active; 'I' for Inactive)
REMARK    1  A    between atoms: C_1  and  C_2 
REMARK    2  A    between atoms: C_1  and  N_7 
ROOT
HETATM    1  N   UNL     1     -42.254 -52.904  13.307  1.00  0.00    -0.285 N 
HETATM    2  C   UNL     1     -41.743 -52.411  12.147  1.00  0.00     0.201 A 
HETATM    3  N   UNL     1     -40.831 -53.236  11.685  1.00  0.00    -0.346 N 
ATOM      4  HN  UNL     1     -40.273 -53.155  10.834  1.00  0.00     0.167 HD
HETATM    5  C   UNL     1     -40.811 -54.229  12.623  1.00  0.00     0.198 A 
HETATM    6  N   UNL     1     -41.665 -54.069  13.640  1.00  0.00    -0.293 N 
ATOM      7  HN  UNL     1     -41.827 -54.667  14.450  1.00  0.00     0.188 HD
ENDROOT
BRANCH   1   8
HETATM    8  C   UNL     1     -43.219 -52.275  14.182  1.00  0.00     0.185 C 
BRANCH   8   9
HETATM    9  C   UNL     1     -44.415 -51.665  13.448  1.00  0.00     0.240 C 
HETATM   10  C   UNL     1     -45.537 -51.182  14.371  1.00  0.00     0.039 C 
HETATM   11  C   UNL     1     -46.835 -51.553  13.659  1.00  0.00     0.032 C 
HETATM   12  C   UNL     1     -46.401 -52.091  12.310  1.00  0.00     0.270 C 
HETATM   13  N   UNL     1     -45.086 -52.662  12.590  1.00  0.00     0.089 N 
HETATM   14  H   UNL     1     -44.567 -52.790  11.720  1.00  0.00     0.316 HD
ENDBRANCH   8   9
ENDBRANCH   1   8
TORSDOF 2
ENDMDL
MODEL 9
REMARK VINA RESULT:      -4.0      2.647      4.770
REMARK  2 active torsions:
REMARK  status: ('A' for Active; 'I' for Inactive)
REMARK    1  A    between atoms: C_1  and  C_2 
REMARK    2  A    between atoms: C_1  and  N_7 
ROOT
HETATM    1  N   UNL     1     -41.583 -45.560  10.875  1.00  0.00    -0.285 N 
HETATM    2  C   UNL     1     -40.264 -45.655  10.558  1.00  0.00     0.201 A 
HETATM    3  N   UNL     1     -39.688 -44.486  10.723  1.00  0.00    -0.346 N 
ATOM      4  HN  UNL     1     -38.710 -44.233  10.577  1.00  0.00     0.167 HD
HETATM    5  C   UNL     1     -40.720 -43.691  11.137  1.00  0.00     0.198 A 
HETATM    6  N   UNL     1     -41.903 -44.304  11.242  1.00  0.00    -0.293 N 
ATOM      7  HN  UNL     1     -42.807 -43.924  11.525  1.00  0.00     0.188 HD
ENDROOT
BRANCH   1   8
HETATM    8  C   UNL     1     -42.594 -46.587  10.757  1.00  0.00     0.185 C 
BRANCH   8   9
HETATM    9  C   UNL     1     -43.201 -46.701   9.357  1.00  0.00     0.240 C 
HETATM   10  C   UNL     1     -44.719 -46.902   9.346  1.00  0.00     0.039 C 
HETATM   11  C   UNL     1     -44.986 -47.900   8.222  1.00  0.00     0.032 C 
HETATM   12  C   UNL     1     -43.642 -48.106   7.554  1.00  0.00     0.270 C 
HETATM   13  N   UNL     1     -42.695 -47.891   8.645  1.00  0.00     0.089 N 
HETATM   14  H   UNL     1     -41.763 -47.712   8.270  1.00  0.00     0.316 HD
ENDBRANCH   8   9
ENDBRANCH   1   8
TORSDOF 2
ENDMDL
