MODEL 1
REMARK VINA RESULT:      -6.4      0.000      0.000
REMARK  6 active torsions:
REMARK  status: ('A' for Active; 'I' for Inactive)
REMARK    1  A    between atoms: O_1  and  C_2 
REMARK    2  A    between atoms: C_7  and  C_8 
REMARK    3  A    between atoms: C_8  and  N_9 
REMARK       I    between atoms: N_9  and  C_10 
REMARK    4  A    between atoms: C_10  and  C_12 
REMARK    5  A    between atoms: C_12  and  N_13 
REMARK    6  A    between atoms: C_15  and  N_20 
ROOT
HETATM    1  N   UNL     1     -43.084 -50.581  12.571  1.00  0.00    -0.359 N 
HETATM    2  C   UNL     1     -42.389 -49.508  12.089  1.00  0.00     0.235 C 
HETATM    3  O   UNL     1     -41.325 -49.707  11.499  1.00  0.00    -0.272 OA
HETATM    4  H   UNL     1     -42.668 -51.479  12.352  1.00  0.00     0.162 HD
ENDROOT
BRANCH   2   5
HETATM    5  C   UNL     1     -42.917 -48.091  12.362  1.00  0.00     0.234 C 
BRANCH   5   6
HETATM    6  N   UNL     1     -43.307 -47.427  11.117  1.00  0.00    -0.314 N 
HETATM    7  C   UNL     1     -44.496 -47.810  10.504  1.00  0.00     0.130 A 
HETATM    8  C   UNL     1     -44.868 -47.279   9.330  1.00  0.00     0.118 A 
HETATM    9  C   UNL     1     -44.044 -46.269   8.699  1.00  0.00     0.043 A 
HETATM   10  C   UNL     1     -42.892 -45.883   9.266  1.00  0.00     0.077 A 
HETATM   11  C   UNL     1     -42.438 -46.495  10.549  1.00  0.00     0.247 A 
HETATM   12  O   UNL     1     -41.360 -46.151  11.025  1.00  0.00    -0.268 OA
BRANCH   8  13
HETATM   13  N   UNL     1     -46.107 -47.758   8.724  1.00  0.00    -0.114 N 
HETATM   14  O   UNL     1     -47.151 -47.162   9.033  1.00  0.00    -0.532 OA
HETATM   15  O   UNL     1     -46.053 -48.722   7.949  1.00  0.00    -0.532 OA
ENDBRANCH   8  13
ENDBRANCH   5   6
ENDBRANCH   2   5
BRANCH   1  16
HETATM   16  C   UNL     1     -44.335 -50.498  13.280  1.00  0.00     0.129 C 
BRANCH  16  17
HETATM   17  C   UNL     1     -44.713 -51.738  14.085  1.00  0.00     0.032 C 
HETATM   18  C   UNL     1     -44.393 -53.049  13.347  1.00  0.00     0.123 C 
HETATM   19  C   UNL     1     -44.909 -54.259  14.131  1.00  0.00     0.032 C 
HETATM   20  C   UNL     1     -46.401 -54.144  14.441  1.00  0.00     0.002 C 
HETATM   21  C   UNL     1     -46.726 -52.843  15.167  1.00  0.00     0.001 C 
HETATM   22  C   UNL     1     -46.217 -51.634  14.399  1.00  0.00     0.009 C 
BRANCH  18  23
HETATM   23  O   UNL     1     -44.990 -53.032  12.052  1.00  0.00    -0.395 OA
HETATM   24  H   UNL     1     -45.639 -52.307  12.035  1.00  0.00     0.210 HD
ENDBRANCH  18  23
ENDBRANCH  16  17
ENDBRANCH   1  16
TORSDOF 6
ENDMDL
MODEL 2
REMARK VINA RESULT:      -6.4      4.527      7.240
REMARK  6 active torsions:
REMARK  status: ('A' for Active; 'I' for Inactive)
REMARK    1  A    between atoms: O_1  and  C_2 
REMARK    2  A    between atoms: C_7  and  C_8 
REMARK    3  A    between atoms: C_8  and  N_9 
REMARK       I    between atoms: N_9  and  C_10 
REMARK    4  A    between atoms: C_10  and  C_12 
REMARK    5  A    between atoms: C_12  and  N_13 
REMARK    6  A    between atoms: C_15  and  N_20 
ROOT
HETATM    1  N   UNL     1     -42.141 -54.545  14.804  1.00  0.00    -0.359 N 
HETATM    2  C   UNL     1     -43.365 -54.951  15.255  1.00  0.00     0.235 C 
HETATM    3  O   UNL     1     -43.464 -55.359  16.415  1.00  0.00    -0.272 OA
HETATM    4  H   UNL     1     -41.408 -54.577  15.504  1.00  0.00     0.162 HD
ENDROOT
BRANCH   2   5
HETATM    5  C   UNL     1     -44.557 -54.953  14.285  1.00  0.00     0.234 C 
BRANCH   5   6
HETATM    6  N   UNL     1     -45.307 -53.700  14.373  1.00  0.00    -0.314 N 
HETATM    7  C   UNL     1     -45.887 -53.357  15.590  1.00  0.00     0.130 A 
HETATM    8  C   UNL     1     -46.638 -52.252  15.708  1.00  0.00     0.118 A 
HETATM    9  C   UNL     1     -46.827 -51.380  14.568  1.00  0.00     0.043 A 
HETATM   10  C   UNL     1     -46.282 -51.688  13.382  1.00  0.00     0.077 A 
HETATM   11  C   UNL     1     -45.481 -52.936  13.219  1.00  0.00     0.247 A 
HETATM   12  O   UNL     1     -45.027 -53.212  12.112  1.00  0.00    -0.268 OA
BRANCH   8  13
HETATM   13  N   UNL     1     -47.252 -51.975  17.004  1.00  0.00    -0.114 N 
HETATM   14  O   UNL     1     -48.362 -51.420  16.994  1.00  0.00    -0.532 OA
HETATM   15  O   UNL     1     -46.639 -52.298  18.031  1.00  0.00    -0.532 OA
ENDBRANCH   8  13
ENDBRANCH   5   6
ENDBRANCH   2   5
BRANCH   1  16
HETATM   16  C   UNL     1     -41.877 -54.049  13.478  1.00  0.00     0.129 C 
BRANCH  16  17
HETATM   17  C   UNL     1     -41.371 -52.612  13.408  1.00  0.00     0.032 C 
HETATM   18  C   UNL     1     -41.714 -51.922  12.076  1.00  0.00     0.123 C 
HETATM   19  C   UNL     1     -41.074 -50.534  11.997  1.00  0.00     0.032 C 
HETATM   20  C   UNL     1     -39.564 -50.588  12.222  1.00  0.00     0.002 C 
HETATM   21  C   UNL     1     -39.216 -51.275  13.538  1.00  0.00     0.001 C 
HETATM   22  C   UNL     1     -39.847 -52.655  13.630  1.00  0.00     0.009 C 
BRANCH  18  23
HETATM   23  O   UNL     1     -41.255 -52.721  10.987  1.00  0.00    -0.395 OA
HETATM   24  H   UNL     1     -40.299 -52.860  11.105  1.00  0.00     0.210 HD
ENDBRANCH  18  23
ENDBRANCH  16  17
ENDBRANCH   1  16
TORSDOF 6
ENDMDL
MODEL 3
REMARK VINA RESULT:      -6.1      3.452      4.635
REMARK  6 active torsions:
REMARK  status: ('A' for Active; 'I' for Inactive)
REMARK    1  A    between atoms: O_1  and  C_2 
REMARK    2  A    between atoms: C_7  and  C_8 
REMARK    3  A    between atoms: C_8  and  N_9 
REMARK       I    between atoms: N_9  and  C_10 
REMARK    4  A    between atoms: C_10  and  C_12 
REMARK    5  A    between atoms: C_12  and  N_13 
REMARK    6  A    between atoms: C_15  and  N_20 
ROOT
HETATM    1  N   UNL     1     -42.629 -53.033  12.451  1.00  0.00    -0.359 N 
HETATM    2  C   UNL     1     -41.319 -53.071  12.837  1.00  0.00     0.235 C 
HETATM    3  O   UNL     1     -40.617 -54.013  12.461  1.00  0.00    -0.272 OA
HETATM    4  H   UNL     1     -42.902 -53.787  11.832  1.00  0.00     0.162 HD
ENDROOT
BRANCH   2   5
HETATM    5  C   UNL     1     -40.785 -51.983  13.782  1.00  0.00     0.234 C 
BRANCH   5   6
HETATM    6  N   UNL     1     -39.967 -51.012  13.055  1.00  0.00    -0.314 N 
HETATM    7  C   UNL     1     -40.603 -49.950  12.420  1.00  0.00     0.130 A 
HETATM    8  C   UNL     1     -39.906 -49.068  11.689  1.00  0.00     0.118 A 
HETATM    9  C   UNL     1     -38.468 -49.194  11.578  1.00  0.00     0.043 A 
HETATM   10  C   UNL     1     -37.830 -50.209  12.178  1.00  0.00     0.077 A 
HETATM   11  C   UNL     1     -38.591 -51.227  12.959  1.00  0.00     0.247 A 
HETATM   12  O   UNL     1     -37.985 -52.167  13.464  1.00  0.00    -0.268 OA
BRANCH   8  13
HETATM   13  N   UNL     1     -40.644 -48.003  11.015  1.00  0.00    -0.114 N 
HETATM   14  O   UNL     1     -41.699 -48.324  10.444  1.00  0.00    -0.532 OA
HETATM   15  O   UNL     1     -40.183 -46.854  11.042  1.00  0.00    -0.532 OA
ENDBRANCH   8  13
ENDBRANCH   5   6
ENDBRANCH   2   5
BRANCH   1  16
HETATM   16  C   UNL     1     -43.563 -51.999  12.815  1.00  0.00     0.129 C 
BRANCH  16  17
HETATM   17  C   UNL     1     -44.504 -52.344  13.965  1.00  0.00     0.032 C 
HETATM   18  C   UNL     1     -45.018 -53.792  13.903  1.00  0.00     0.123 C 
HETATM   19  C   UNL     1     -46.058 -54.053  14.995  1.00  0.00     0.032 C 
HETATM   20  C   UNL     1     -47.210 -53.051  14.936  1.00  0.00     0.002 C 
HETATM   21  C   UNL     1     -46.708 -51.612  14.992  1.00  0.00     0.001 C 
HETATM   22  C   UNL     1     -45.672 -51.342  13.913  1.00  0.00     0.009 C 
BRANCH  18  23
HETATM   23  O   UNL     1     -45.597 -54.044  12.624  1.00  0.00    -0.395 OA
HETATM   24  H   UNL     1     -46.558 -54.137  12.748  1.00  0.00     0.210 HD
ENDBRANCH  18  23
ENDBRANCH  16  17
ENDBRANCH   1  16
TORSDOF 6
ENDMDL
MODEL 4
REMARK VINA RESULT:      -6.1      1.761      2.100
REMARK  6 active torsions:
REMARK  status: ('A' for Active; 'I' for Inactive)
REMARK    1  A    between atoms: O_1  and  C_2 
REMARK    2  A    between atoms: C_7  and  C_8 
REMARK    3  A    between atoms: C_8  and  N_9 
REMARK       I    between atoms: N_9  and  C_10 
REMARK    4  A    between atoms: C_10  and  C_12 
REMARK    5  A    between atoms: C_12  and  N_13 
REMARK    6  A    between atoms: C_15  and  N_20 
ROOT
HETATM    1  N   UNL     1     -42.958 -50.988  12.446  1.00  0.00    -0.359 N 
HETATM    2  C   UNL     1     -41.838 -50.223  12.284  1.00  0.00     0.235 C 
HETATM    3  O   UNL     1     -40.920 -50.656  11.584  1.00  0.00    -0.272 OA
HETATM    4  H   UNL     1     -42.949 -51.855  11.921  1.00  0.00     0.162 HD
ENDROOT
BRANCH   2   5
HETATM    5  C   UNL     1     -41.730 -48.886  13.034  1.00  0.00     0.234 C 
BRANCH   5   6
HETATM    6  N   UNL     1     -41.499 -47.780  12.105  1.00  0.00    -0.314 N 
HETATM    7  C   UNL     1     -42.474 -47.497  11.153  1.00  0.00     0.130 A 
HETATM    8  C   UNL     1     -42.285 -46.535  10.238  1.00  0.00     0.118 A 
HETATM    9  C   UNL     1     -41.067 -45.752  10.252  1.00  0.00     0.043 A 
HETATM   10  C   UNL     1     -40.110 -46.004  11.157  1.00  0.00     0.077 A 
HETATM   11  C   UNL     1     -40.281 -47.100  12.154  1.00  0.00     0.247 A 
HETATM   12  O   UNL     1     -39.372 -47.335  12.945  1.00  0.00    -0.268 OA
BRANCH   8  13
HETATM   13  N   UNL     1     -43.332 -46.321   9.243  1.00  0.00    -0.114 N 
HETATM   14  O   UNL     1     -43.653 -45.145   9.009  1.00  0.00    -0.532 OA
HETATM   15  O   UNL     1     -43.841 -47.309   8.697  1.00  0.00    -0.532 OA
ENDBRANCH   8  13
ENDBRANCH   5   6
ENDBRANCH   2   5
BRANCH   1  16
HETATM   16  C   UNL     1     -44.103 -50.612  13.234  1.00  0.00     0.129 C 
BRANCH  16  17
HETATM   17  C   UNL     1     -44.739 -51.739  14.042  1.00  0.00     0.032 C 
HETATM   18  C   UNL     1     -44.820 -53.061  13.261  1.00  0.00     0.123 C 
HETATM   19  C   UNL     1     -45.583 -54.123  14.057  1.00  0.00     0.032 C 
HETATM   20  C   UNL     1     -46.971 -53.636  14.473  1.00  0.00     0.002 C 
HETATM   21  C   UNL     1     -46.899 -52.322  15.243  1.00  0.00     0.001 C 
HETATM   22  C   UNL     1     -46.142 -51.260  14.462  1.00  0.00     0.009 C 
BRANCH  18  23
HETATM   23  O   UNL     1     -45.472 -52.845  12.011  1.00  0.00    -0.395 OA
HETATM   24  H   UNL     1     -45.740 -53.713  11.663  1.00  0.00     0.210 HD
ENDBRANCH  18  23
ENDBRANCH  16  17
ENDBRANCH   1  16
TORSDOF 6
ENDMDL
MODEL 5
REMARK VINA RESULT:      -6.1      2.999      7.610
REMARK  6 active torsions:
REMARK  status: ('A' for Active; 'I' for Inactive)
REMARK    1  A    between atoms: O_1  and  C_2 
REMARK    2  A    between atoms: C_7  and  C_8 
REMARK    3  A    between atoms: C_8  and  N_9 
REMARK       I    between atoms: N_9  and  C_10 
REMARK    4  A    between atoms: C_10  and  C_12 
REMARK    5  A    between atoms: C_12  and  N_13 
REMARK    6  A    between atoms: C_15  and  N_20 
ROOT
HETATM    1  N   UNL     1     -41.498 -50.552  11.847  1.00  0.00    -0.359 N 
HETATM    2  C   UNL     1     -40.941 -51.504  12.651  1.00  0.00     0.235 C 
HETATM    3  O   UNL     1     -40.154 -52.313  12.155  1.00  0.00    -0.272 OA
HETATM    4  H   UNL     1     -41.168 -50.570  10.888  1.00  0.00     0.162 HD
ENDROOT
BRANCH   2   5
HETATM    5  C   UNL     1     -41.366 -51.581  14.126  1.00  0.00     0.234 C 
BRANCH   5   6
HETATM    6  N   UNL     1     -41.944 -52.889  14.438  1.00  0.00    -0.314 N 
HETATM    7  C   UNL     1     -43.145 -53.246  13.833  1.00  0.00     0.130 A 
HETATM    8  C   UNL     1     -43.749 -54.406  14.132  1.00  0.00     0.118 A 
HETATM    9  C   UNL     1     -43.134 -55.320  15.072  1.00  0.00     0.043 A 
HETATM   10  C   UNL     1     -41.978 -55.001  15.671  1.00  0.00     0.077 A 
HETATM   11  C   UNL     1     -41.314 -53.696  15.386  1.00  0.00     0.247 A 
HETATM   12  O   UNL     1     -40.277 -53.412  15.979  1.00  0.00    -0.268 OA
BRANCH   8  13
HETATM   13  N   UNL     1     -45.029 -54.697  13.493  1.00  0.00    -0.114 N 
HETATM   14  O   UNL     1     -45.352 -53.981  12.532  1.00  0.00    -0.532 OA
HETATM   15  O   UNL     1     -45.717 -55.625  13.938  1.00  0.00    -0.532 OA
ENDBRANCH   8  13
ENDBRANCH   5   6
ENDBRANCH   2   5
BRANCH   1  16
HETATM   16  C   UNL     1     -42.432 -49.547  12.288  1.00  0.00     0.129 C 
BRANCH  16  17
HETATM   17  C   UNL     1     -41.995 -48.104  12.058  1.00  0.00     0.032 C 
HETATM   18  C   UNL     1     -42.216 -47.636  10.609  1.00  0.00     0.123 C 
HETATM   19  C   UNL     1     -41.642 -46.234  10.392  1.00  0.00     0.032 C 
HETATM   20  C   UNL     1     -40.167 -46.154  10.783  1.00  0.00     0.002 C 
HETATM   21  C   UNL     1     -39.939 -46.621  12.216  1.00  0.00     0.001 C 
HETATM   22  C   UNL     1     -40.507 -48.013  12.445  1.00  0.00     0.009 C 
BRANCH  18  23
HETATM   23  O   UNL     1     -41.595 -48.549   9.707  1.00  0.00    -0.395 OA
HETATM   24  H   UNL     1     -40.928 -48.055   9.198  1.00  0.00     0.210 HD
ENDBRANCH  18  23
ENDBRANCH  16  17
ENDBRANCH   1  16
TORSDOF 6
ENDMDL
MODEL 6
REMARK VINA RESULT:      -6.0      4.502      5.641
REMARK  6 active torsions:
REMARK  status: ('A' for Active; 'I' for Inactive)
REMARK    1  A    between atoms: O_1  and  C_2 
REMARK    2  A    between atoms: C_7  and  C_8 
REMARK    3  A    between atoms: C_8  and  N_9 
REMARK       I    between atoms: N_9  and  C_10 
REMARK    4  A    between atoms: C_10  and  C_12 
REMARK    5  A    between atoms: C_12  and  N_13 
REMARK    6  A    between atoms: C_15  and  N_20 
ROOT
HETATM    1  N   UNL     1     -42.664 -53.238  12.541  1.00  0.00    -0.359 N 
HETATM    2  C   UNL     1     -41.485 -53.467  13.190  1.00  0.00     0.235 C 
HETATM    3  O   UNL     1     -40.815 -54.453  12.874  1.00  0.00    -0.272 OA
HETATM    4  H   UNL     1     -42.867 -53.900  11.800  1.00  0.00     0.162 HD
ENDROOT
BRANCH   2   5
HETATM    5  C   UNL     1     -41.069 -52.534  14.338  1.00  0.00     0.234 C 
BRANCH   5   6
HETATM    6  N   UNL     1     -40.394 -51.341  13.827  1.00  0.00    -0.314 N 
HETATM    7  C   UNL     1     -39.269 -51.507  13.024  1.00  0.00     0.130 A 
HETATM    8  C   UNL     1     -38.577 -50.447  12.581  1.00  0.00     0.118 A 
HETATM    9  C   UNL     1     -39.016 -49.107  12.910  1.00  0.00     0.043 A 
HETATM   10  C   UNL     1     -40.096 -48.918  13.683  1.00  0.00     0.077 A 
HETATM   11  C   UNL     1     -40.853 -50.084  14.223  1.00  0.00     0.247 A 
HETATM   12  O   UNL     1     -41.813 -49.882  14.960  1.00  0.00    -0.268 OA
BRANCH   8  13
HETATM   13  N   UNL     1     -37.382 -50.695  11.780  1.00  0.00    -0.114 N 
HETATM   14  O   UNL     1     -36.730 -51.718  12.045  1.00  0.00    -0.532 OA
HETATM   15  O   UNL     1     -37.083 -49.883  10.895  1.00  0.00    -0.532 OA
ENDBRANCH   8  13
ENDBRANCH   5   6
ENDBRANCH   2   5
BRANCH   1  16
HETATM   16  C   UNL     1     -43.547 -52.132  12.806  1.00  0.00     0.129 C 
BRANCH  16  17
HETATM   17  C   UNL     1     -44.521 -52.336  13.961  1.00  0.00     0.032 C 
HETATM   18  C   UNL     1     -45.075 -53.770  14.031  1.00  0.00     0.123 C 
HETATM   19  C   UNL     1     -46.145 -53.892  15.118  1.00  0.00     0.032 C 
HETATM   20  C   UNL     1     -47.266 -52.872  14.933  1.00  0.00     0.002 C 
HETATM   21  C   UNL     1     -46.725 -51.448  14.858  1.00  0.00     0.001 C 
HETATM   22  C   UNL     1     -45.660 -51.314  13.782  1.00  0.00     0.009 C 
BRANCH  18  23
HETATM   23  O   UNL     1     -45.634 -54.132  12.770  1.00  0.00    -0.395 OA
HETATM   24  H   UNL     1     -45.488 -55.087  12.646  1.00  0.00     0.210 HD
ENDBRANCH  18  23
ENDBRANCH  16  17
ENDBRANCH   1  16
TORSDOF 6
ENDMDL
MODEL 7
REMARK VINA RESULT:      -6.0      2.922      3.621
REMARK  6 active torsions:
REMARK  status: ('A' for Active; 'I' for Inactive)
REMARK    1  A    between atoms: O_1  and  C_2 
REMARK    2  A    between atoms: C_7  and  C_8 
REMARK    3  A    between atoms: C_8  and  N_9 
REMARK       I    between atoms: N_9  and  C_10 
REMARK    4  A    between atoms: C_10  and  C_12 
REMARK    5  A    between atoms: C_12  and  N_13 
REMARK    6  A    between atoms: C_15  and  N_20 
ROOT
HETATM    1  N   UNL     1     -39.997 -50.555  11.487  1.00  0.00    -0.359 N 
HETATM    2  C   UNL     1     -39.372 -49.424  11.930  1.00  0.00     0.235 C 
HETATM    3  O   UNL     1     -38.197 -49.232  11.609  1.00  0.00    -0.272 OA
HETATM    4  H   UNL     1     -39.431 -51.132  10.876  1.00  0.00     0.162 HD
ENDROOT
BRANCH   2   5
HETATM    5  C   UNL     1     -40.127 -48.471  12.869  1.00  0.00     0.234 C 
BRANCH   5   6
HETATM    6  N   UNL     1     -40.498 -47.237  12.176  1.00  0.00    -0.314 N 
HETATM    7  C   UNL     1     -41.469 -47.299  11.181  1.00  0.00     0.130 A 
HETATM    8  C   UNL     1     -41.801 -46.209  10.473  1.00  0.00     0.118 A 
HETATM    9  C   UNL     1     -41.169 -44.939  10.761  1.00  0.00     0.043 A 
HETATM   10  C   UNL     1     -40.228 -44.850  11.712  1.00  0.00     0.077 A 
HETATM   11  C   UNL     1     -39.813 -46.060  12.480  1.00  0.00     0.247 A 
HETATM   12  O   UNL     1     -38.921 -45.957  13.318  1.00  0.00    -0.268 OA
BRANCH   8  13
HETATM   13  N   UNL     1     -42.797 -46.357   9.415  1.00  0.00    -0.114 N 
HETATM   14  O   UNL     1     -43.055 -47.513   9.043  1.00  0.00    -0.532 OA
HETATM   15  O   UNL     1     -43.320 -45.337   8.947  1.00  0.00    -0.532 OA
ENDBRANCH   8  13
ENDBRANCH   5   6
ENDBRANCH   2   5
BRANCH   1  16
HETATM   16  C   UNL     1     -41.362 -50.910  11.785  1.00  0.00     0.129 C 
BRANCH  16  17
HETATM   17  C   UNL     1     -41.547 -51.867  12.957  1.00  0.00     0.032 C 
HETATM   18  C   UNL     1     -40.528 -53.020  12.955  1.00  0.00     0.123 C 
HETATM   19  C   UNL     1     -40.834 -54.025  14.068  1.00  0.00     0.032 C 
HETATM   20  C   UNL     1     -42.267 -54.550  13.985  1.00  0.00     0.002 C 
HETATM   21  C   UNL     1     -43.282 -53.413  13.981  1.00  0.00     0.001 C 
HETATM   22  C   UNL     1     -42.988 -52.406  12.880  1.00  0.00     0.009 C 
BRANCH  18  23
HETATM   23  O   UNL     1     -40.554 -53.684  11.693  1.00  0.00    -0.395 OA
HETATM   24  H   UNL     1     -41.373 -53.421  11.237  1.00  0.00     0.210 HD
ENDBRANCH  18  23
ENDBRANCH  16  17
ENDBRANCH   1  16
TORSDOF 6
ENDMDL
MODEL 8
REMARK VINA RESULT:      -5.9      3.124      4.185
REMARK  6 active torsions:
REMARK  status: ('A' for Active; 'I' for Inactive)
REMARK    1  A    between atoms: O_1  and  C_2 
REMARK    2  A    between atoms: C_7  and  C_8 
REMARK    3  A    between atoms: C_8  and  N_9 
REMARK       I    between atoms: N_9  and  C_10 
REMARK    4  A    between atoms: C_10  and  C_12 
REMARK    5  A    between atoms: C_12  and  N_13 
REMARK    6  A    between atoms: C_15  and  N_20 
ROOT
HETATM    1  N   UNL     1     -41.644 -49.610  11.283  1.00  0.00    -0.359 N 
HETATM    2  C   UNL     1     -41.468 -48.344  10.800  1.00  0.00     0.235 C 
HETATM    3  O   UNL     1     -42.237 -47.929   9.930  1.00  0.00    -0.272 OA
HETATM    4  H   UNL     1     -42.448 -50.094  10.899  1.00  0.00     0.162 HD
ENDROOT
BRANCH   2   5
HETATM    5  C   UNL     1     -40.279 -47.511  11.303  1.00  0.00     0.234 C 
BRANCH   5   6
HETATM    6  N   UNL     1     -40.686 -46.135  11.588  1.00  0.00    -0.314 N 
HETATM    7  C   UNL     1     -41.627 -45.914  12.589  1.00  0.00     0.130 A 
HETATM    8  C   UNL     1     -42.080 -44.678  12.848  1.00  0.00     0.118 A 
HETATM    9  C   UNL     1     -41.567 -43.548  12.103  1.00  0.00     0.043 A 
HETATM   10  C   UNL     1     -40.662 -43.732  11.131  1.00  0.00     0.077 A 
HETATM   11  C   UNL     1     -40.178 -45.103  10.797  1.00  0.00     0.247 A 
HETATM   12  O   UNL     1     -39.379 -45.246   9.876  1.00  0.00    -0.268 OA
BRANCH   8  13
HETATM   13  N   UNL     1     -43.099 -44.525  13.883  1.00  0.00    -0.114 N 
HETATM   14  O   UNL     1     -43.309 -43.375  14.300  1.00  0.00    -0.532 OA
HETATM   15  O   UNL     1     -43.686 -45.536  14.291  1.00  0.00    -0.532 OA
ENDBRANCH   8  13
ENDBRANCH   5   6
ENDBRANCH   2   5
BRANCH   1  16
HETATM   16  C   UNL     1     -40.824 -50.226  12.295  1.00  0.00     0.129 C 
BRANCH  16  17
HETATM   17  C   UNL     1     -41.452 -51.420  13.006  1.00  0.00     0.032 C 
HETATM   18  C   UNL     1     -41.032 -52.768  12.395  1.00  0.00     0.123 C 
HETATM   19  C   UNL     1     -41.788 -53.926  13.052  1.00  0.00     0.032 C 
HETATM   20  C   UNL     1     -43.301 -53.732  12.984  1.00  0.00     0.002 C 
HETATM   21  C   UNL     1     -43.724 -52.395  13.583  1.00  0.00     0.001 C 
HETATM   22  C   UNL     1     -42.980 -51.236  12.940  1.00  0.00     0.009 C 
BRANCH  18  23
HETATM   23  O   UNL     1     -41.293 -52.764  10.993  1.00  0.00    -0.395 OA
HETATM   24  H   UNL     1     -40.649 -52.165  10.575  1.00  0.00     0.210 HD
ENDBRANCH  18  23
ENDBRANCH  16  17
ENDBRANCH   1  16
TORSDOF 6
ENDMDL
MODEL 9
REMARK VINA RESULT:      -5.9      3.073      4.354
REMARK  6 active torsions:
REMARK  status: ('A' for Active; 'I' for Inactive)
REMARK    1  A    between atoms: O_1  and  C_2 
REMARK    2  A    between atoms: C_7  and  C_8 
REMARK    3  A    between atoms: C_8  and  N_9 
REMARK       I    between atoms: N_9  and  C_10 
REMARK    4  A    between atoms: C_10  and  C_12 
REMARK    5  A    between atoms: C_12  and  N_13 
REMARK    6  A    between atoms: C_15  and  N_20 
ROOT
HETATM    1  N   UNL     1     -42.380 -53.234  14.383  1.00  0.00    -0.359 N 
HETATM    2  C   UNL     1     -41.069 -52.880  14.238  1.00  0.00     0.235 C 
HETATM    3  O   UNL     1     -40.417 -52.592  15.244  1.00  0.00    -0.272 OA
HETATM    4  H   UNL     1     -42.697 -53.271  15.346  1.00  0.00     0.162 HD
ENDROOT
BRANCH   2   5
HETATM    5  C   UNL     1     -40.472 -52.783  12.825  1.00  0.00     0.234 C 
BRANCH   5   6
HETATM    6  N   UNL     1     -40.209 -51.391  12.461  1.00  0.00    -0.314 N 
HETATM    7  C   UNL     1     -41.273 -50.604  12.030  1.00  0.00     0.130 A 
HETATM    8  C   UNL     1     -41.075 -49.340  11.625  1.00  0.00     0.118 A 
HETATM    9  C   UNL     1     -39.746 -48.768  11.664  1.00  0.00     0.043 A 
HETATM   10  C   UNL     1     -38.702 -49.504  12.072  1.00  0.00     0.077 A 
HETATM   11  C   UNL     1     -38.894 -50.925  12.483  1.00  0.00     0.247 A 
HETATM   12  O   UNL     1     -37.915 -51.587  12.815  1.00  0.00    -0.268 OA
BRANCH   8  13
HETATM   13  N   UNL     1     -42.230 -48.586  11.145  1.00  0.00    -0.114 N 
HETATM   14  O   UNL     1     -43.224 -48.548  11.888  1.00  0.00    -0.532 OA
HETATM   15  O   UNL     1     -42.161 -48.038  10.038  1.00  0.00    -0.532 OA
ENDBRANCH   8  13
ENDBRANCH   5   6
ENDBRANCH   2   5
BRANCH   1  16
HETATM   16  C   UNL     1     -43.260 -53.592  13.300  1.00  0.00     0.129 C 
BRANCH  16  17
HETATM   17  C   UNL     1     -44.729 -53.239  13.509  1.00  0.00     0.032 C 
HETATM   18  C   UNL     1     -45.074 -51.814  13.041  1.00  0.00     0.123 C 
HETATM   19  C   UNL     1     -46.520 -51.457  13.391  1.00  0.00     0.032 C 
HETATM   20  C   UNL     1     -46.809 -51.638  14.880  1.00  0.00     0.002 C 
HETATM   21  C   UNL     1     -46.464 -53.046  15.353  1.00  0.00     0.001 C 
HETATM   22  C   UNL     1     -45.030 -53.414  15.009  1.00  0.00     0.009 C 
BRANCH  18  23
HETATM   23  O   UNL     1     -44.190 -50.878  13.655  1.00  0.00    -0.395 OA
HETATM   24  H   UNL     1     -43.281 -51.132  13.420  1.00  0.00     0.210 HD
ENDBRANCH  18  23
ENDBRANCH  16  17
ENDBRANCH   1  16
TORSDOF 6
ENDMDL
