MODEL 1
REMARK VINA RESULT:      -6.1      0.000      0.000
REMARK  4 active torsions:
REMARK  status: ('A' for Active; 'I' for Inactive)
REMARK    1  A    between atoms: O_1  and  C_2 
REMARK    2  A    between atoms: C_2  and  C_3 
REMARK    3  A    between atoms: C_2  and  C_16 
REMARK    4  A    between atoms: C_3  and  N_4 
ROOT
HETATM    1  N   UNL     1     -43.155 -47.337  10.381  1.00  0.00    -0.271 N 
HETATM    2  N   UNL     1     -42.744 -46.199   9.792  1.00  0.00    -0.019 NA
HETATM    3  N   UNL     1     -41.450 -46.062  10.050  1.00  0.00    -0.282 N 
ATOM      4  HN  UNL     1     -40.856 -45.293   9.739  1.00  0.00     0.184 HD
HETATM    5  C   UNL     1     -41.048 -47.128  10.804  1.00  0.00     0.075 A 
HETATM    6  C   UNL     1     -39.792 -47.449  11.337  1.00  0.00     0.058 A 
HETATM    7  C   UNL     1     -39.668 -48.622  12.096  1.00  0.00     0.058 A 
HETATM    8 CL   UNL     1     -38.103 -48.979  12.744  1.00  0.00    -0.082 Cl
HETATM    9  C   UNL     1     -40.773 -49.457  12.316  1.00  0.00     0.058 A 
HETATM   10 CL   UNL     1     -40.656 -50.912  13.247  1.00  0.00    -0.082 Cl
HETATM   11  C   UNL     1     -42.034 -49.145  11.786  1.00  0.00     0.058 A 
HETATM   12  C   UNL     1     -42.131 -47.971  11.034  1.00  0.00     0.078 A 
ENDROOT
BRANCH   1  13
HETATM   13  C   UNL     1     -44.553 -47.707  10.318  1.00  0.00     0.187 C 
BRANCH  13  14
HETATM   14  C   UNL     1     -45.175 -47.389   8.958  1.00  0.00     0.245 C 
BRANCH  14  15
HETATM   15  O   UNL     1     -45.390 -45.968   8.854  1.00  0.00    -0.385 OA
HETATM   16  H   UNL     1     -45.143 -45.697   7.949  1.00  0.00     0.210 HD
ENDBRANCH  14  15
BRANCH  14  17
HETATM   17  C   UNL     1     -46.471 -48.203   8.789  1.00  0.00     0.414 C 
HETATM   18  F   UNL     1     -47.578 -47.435   8.876  1.00  0.00    -0.168 F 
HETATM   19  F   UNL     1     -46.497 -48.807   7.578  1.00  0.00    -0.168 F 
HETATM   20  F   UNL     1     -46.585 -49.178   9.722  1.00  0.00    -0.168 F 
ENDBRANCH  14  17
ENDBRANCH  13  14
ENDBRANCH   1  13
TORSDOF 4
ENDMDL
MODEL 2
REMARK VINA RESULT:      -6.0      2.885      3.580
REMARK  4 active torsions:
REMARK  status: ('A' for Active; 'I' for Inactive)
REMARK    1  A    between atoms: O_1  and  C_2 
REMARK    2  A    between atoms: C_2  and  C_3 
REMARK    3  A    between atoms: C_2  and  C_16 
REMARK    4  A    between atoms: C_3  and  N_4 
ROOT
HETATM    1  N   UNL     1     -42.967 -46.720   9.834  1.00  0.00    -0.271 N 
HETATM    2  N   UNL     1     -42.253 -47.858   9.758  1.00  0.00    -0.019 NA
HETATM    3  N   UNL     1     -41.110 -47.656  10.401  1.00  0.00    -0.282 N 
ATOM      4  HN  UNL     1     -40.359 -48.337  10.514  1.00  0.00     0.184 HD
HETATM    5  C   UNL     1     -41.114 -46.379  10.889  1.00  0.00     0.075 A 
HETATM    6  C   UNL     1     -40.148 -45.681  11.628  1.00  0.00     0.058 A 
HETATM    7  C   UNL     1     -40.416 -44.352  11.989  1.00  0.00     0.058 A 
HETATM    8 CL   UNL     1     -39.196 -43.521  12.894  1.00  0.00    -0.082 Cl
HETATM    9  C   UNL     1     -41.621 -43.736  11.624  1.00  0.00     0.058 A 
HETATM   10 CL   UNL     1     -41.985 -42.099  12.054  1.00  0.00    -0.082 Cl
HETATM   11  C   UNL     1     -42.594 -44.427  10.885  1.00  0.00     0.058 A 
HETATM   12  C   UNL     1     -42.303 -45.749  10.537  1.00  0.00     0.078 A 
ENDROOT
BRANCH   1  13
HETATM   13  C   UNL     1     -44.243 -46.632   9.156  1.00  0.00     0.187 C 
BRANCH  13  14
HETATM   14  C   UNL     1     -44.688 -47.979   8.587  1.00  0.00     0.245 C 
BRANCH  14  15
HETATM   15  O   UNL     1     -44.180 -48.120   7.246  1.00  0.00    -0.385 OA
HETATM   16  H   UNL     1     -44.934 -48.023   6.633  1.00  0.00     0.210 HD
ENDBRANCH  14  15
BRANCH  14  17
HETATM   17  C   UNL     1     -46.223 -48.077   8.657  1.00  0.00     0.414 C 
HETATM   18  F   UNL     1     -46.751 -48.690   7.576  1.00  0.00    -0.168 F 
HETATM   19  F   UNL     1     -46.604 -48.786   9.745  1.00  0.00    -0.168 F 
HETATM   20  F   UNL     1     -46.808 -46.859   8.753  1.00  0.00    -0.168 F 
ENDBRANCH  14  17
ENDBRANCH  13  14
ENDBRANCH   1  13
TORSDOF 4
ENDMDL
MODEL 3
REMARK VINA RESULT:      -6.0      1.621      2.059
REMARK  4 active torsions:
REMARK  status: ('A' for Active; 'I' for Inactive)
REMARK    1  A    between atoms: O_1  and  C_2 
REMARK    2  A    between atoms: C_2  and  C_3 
REMARK    3  A    between atoms: C_2  and  C_16 
REMARK    4  A    between atoms: C_3  and  N_4 
ROOT
HETATM    1  N   UNL     1     -41.674 -47.651  10.856  1.00  0.00    -0.271 N 
HETATM    2  N   UNL     1     -40.920 -46.551  10.680  1.00  0.00    -0.019 NA
HETATM    3  N   UNL     1     -39.683 -46.851  11.057  1.00  0.00    -0.282 N 
ATOM      4  HN  UNL     1     -38.884 -46.218  11.042  1.00  0.00     0.184 HD
HETATM    5  C   UNL     1     -39.666 -48.154  11.469  1.00  0.00     0.075 A 
HETATM    6  C   UNL     1     -38.617 -48.942  11.962  1.00  0.00     0.058 A 
HETATM    7  C   UNL     1     -38.892 -50.268  12.327  1.00  0.00     0.058 A 
HETATM    8 CL   UNL     1     -37.572 -51.206  12.939  1.00  0.00    -0.082 Cl
HETATM    9  C   UNL     1     -40.184 -50.796  12.199  1.00  0.00     0.058 A 
HETATM   10 CL   UNL     1     -40.559 -52.428  12.638  1.00  0.00    -0.082 Cl
HETATM   11  C   UNL     1     -41.241 -50.015  11.706  1.00  0.00     0.058 A 
HETATM   12  C   UNL     1     -40.941 -48.697  11.350  1.00  0.00     0.078 A 
ENDROOT
BRANCH   1  13
HETATM   13  C   UNL     1     -43.095 -47.591  10.584  1.00  0.00     0.187 C 
BRANCH  13  14
HETATM   14  C   UNL     1     -43.393 -47.458   9.091  1.00  0.00     0.245 C 
BRANCH  14  15
HETATM   15  O   UNL     1     -42.798 -46.243   8.594  1.00  0.00    -0.385 OA
HETATM   16  H   UNL     1     -43.114 -45.509   9.154  1.00  0.00     0.210 HD
ENDBRANCH  14  15
BRANCH  14  17
HETATM   17  C   UNL     1     -44.916 -47.510   8.870  1.00  0.00     0.414 C 
HETATM   18  F   UNL     1     -45.258 -48.285   7.818  1.00  0.00    -0.168 F 
HETATM   19  F   UNL     1     -45.536 -48.020   9.961  1.00  0.00    -0.168 F 
HETATM   20  F   UNL     1     -45.442 -46.282   8.652  1.00  0.00    -0.168 F 
ENDBRANCH  14  17
ENDBRANCH  13  14
ENDBRANCH   1  13
TORSDOF 4
ENDMDL
MODEL 4
REMARK VINA RESULT:      -5.9      5.136      6.511
REMARK  4 active torsions:
REMARK  status: ('A' for Active; 'I' for Inactive)
REMARK    1  A    between atoms: O_1  and  C_2 
REMARK    2  A    between atoms: C_2  and  C_3 
REMARK    3  A    between atoms: C_2  and  C_16 
REMARK    4  A    between atoms: C_3  and  N_4 
ROOT
HETATM    1  N   UNL     1     -41.300 -51.351  12.581  1.00  0.00    -0.271 N 
HETATM    2  N   UNL     1     -40.485 -52.349  12.191  1.00  0.00    -0.019 NA
HETATM    3  N   UNL     1     -41.156 -53.486  12.323  1.00  0.00    -0.282 N 
ATOM      4  HN  UNL     1     -40.801 -54.418  12.108  1.00  0.00     0.184 HD
HETATM    5  C   UNL     1     -42.405 -53.194  12.795  1.00  0.00     0.075 A 
HETATM    6  C   UNL     1     -43.484 -54.033  13.105  1.00  0.00     0.058 A 
HETATM    7  C   UNL     1     -44.664 -53.453  13.593  1.00  0.00     0.058 A 
HETATM    8 CL   UNL     1     -45.970 -54.523  13.973  1.00  0.00    -0.082 Cl
HETATM    9  C   UNL     1     -44.765 -52.065  13.764  1.00  0.00     0.058 A 
HETATM   10 CL   UNL     1     -46.206 -51.314  14.362  1.00  0.00    -0.082 Cl
HETATM   11  C   UNL     1     -43.691 -51.216  13.455  1.00  0.00     0.058 A 
HETATM   12  C   UNL     1     -42.527 -51.819  12.971  1.00  0.00     0.078 A 
ENDROOT
BRANCH   1  13
HETATM   13  C   UNL     1     -40.802 -49.992  12.604  1.00  0.00     0.187 C 
BRANCH  13  14
HETATM   14  C   UNL     1     -41.057 -49.261  11.286  1.00  0.00     0.245 C 
BRANCH  14  15
HETATM   15  O   UNL     1     -40.411 -49.973  10.213  1.00  0.00    -0.385 OA
HETATM   16  H   UNL     1     -39.698 -50.513  10.605  1.00  0.00     0.210 HD
ENDBRANCH  14  15
BRANCH  14  17
HETATM   17  C   UNL     1     -40.574 -47.804  11.413  1.00  0.00     0.414 C 
HETATM   18  F   UNL     1     -40.997 -47.217  12.553  1.00  0.00    -0.168 F 
HETATM   19  F   UNL     1     -39.221 -47.752  11.414  1.00  0.00    -0.168 F 
HETATM   20  F   UNL     1     -41.001 -47.034  10.383  1.00  0.00    -0.168 F 
ENDBRANCH  14  17
ENDBRANCH  13  14
ENDBRANCH   1  13
TORSDOF 4
ENDMDL
MODEL 5
REMARK VINA RESULT:      -5.8      6.311      7.550
REMARK  4 active torsions:
REMARK  status: ('A' for Active; 'I' for Inactive)
REMARK    1  A    between atoms: O_1  and  C_2 
REMARK    2  A    between atoms: C_2  and  C_3 
REMARK    3  A    between atoms: C_2  and  C_16 
REMARK    4  A    between atoms: C_3  and  N_4 
ROOT
HETATM    1  N   UNL     1     -40.694 -51.892  13.043  1.00  0.00    -0.271 N 
HETATM    2  N   UNL     1     -40.100 -52.951  12.463  1.00  0.00    -0.019 NA
HETATM    3  N   UNL     1     -40.998 -53.926  12.397  1.00  0.00    -0.282 N 
ATOM      4  HN  UNL     1     -40.843 -54.856  12.009  1.00  0.00     0.184 HD
HETATM    5  C   UNL     1     -42.166 -53.468  12.939  1.00  0.00     0.075 A 
HETATM    6  C   UNL     1     -43.404 -54.103  13.112  1.00  0.00     0.058 A 
HETATM    7  C   UNL     1     -44.444 -53.386  13.720  1.00  0.00     0.058 A 
HETATM    8 CL   UNL     1     -45.954 -54.208  13.923  1.00  0.00    -0.082 Cl
HETATM    9  C   UNL     1     -44.254 -52.063  14.143  1.00  0.00     0.058 A 
HETATM   10 CL   UNL     1     -45.516 -51.147  14.896  1.00  0.00    -0.082 Cl
HETATM   11  C   UNL     1     -43.019 -51.418  13.974  1.00  0.00     0.058 A 
HETATM   12  C   UNL     1     -41.999 -52.155  13.365  1.00  0.00     0.078 A 
ENDROOT
BRANCH   1  13
HETATM   13  C   UNL     1     -39.921 -50.697  13.304  1.00  0.00     0.187 C 
BRANCH  13  14
HETATM   14  C   UNL     1     -39.501 -49.988  12.017  1.00  0.00     0.245 C 
BRANCH  14  15
HETATM   15  O   UNL     1     -40.183 -50.588  10.899  1.00  0.00    -0.385 OA
HETATM   16  H   UNL     1     -39.816 -51.485  10.776  1.00  0.00     0.210 HD
ENDBRANCH  14  15
BRANCH  14  17
HETATM   17  C   UNL     1     -37.968 -50.046  11.882  1.00  0.00     0.414 C 
HETATM   18  F   UNL     1     -37.559 -49.973  10.597  1.00  0.00    -0.168 F 
HETATM   19  F   UNL     1     -37.394 -49.013  12.544  1.00  0.00    -0.168 F 
HETATM   20  F   UNL     1     -37.453 -51.185  12.403  1.00  0.00    -0.168 F 
ENDBRANCH  14  17
ENDBRANCH  13  14
ENDBRANCH   1  13
TORSDOF 4
ENDMDL
MODEL 6
REMARK VINA RESULT:      -5.7      5.433      6.219
REMARK  4 active torsions:
REMARK  status: ('A' for Active; 'I' for Inactive)
REMARK    1  A    between atoms: O_1  and  C_2 
REMARK    2  A    between atoms: C_2  and  C_3 
REMARK    3  A    between atoms: C_2  and  C_16 
REMARK    4  A    between atoms: C_3  and  N_4 
ROOT
HETATM    1  N   UNL     1     -43.406 -53.695  13.430  1.00  0.00    -0.271 N 
HETATM    2  N   UNL     1     -43.118 -54.651  14.333  1.00  0.00    -0.019 NA
HETATM    3  N   UNL     1     -41.837 -54.520  14.657  1.00  0.00    -0.282 N 
ATOM      4  HN  UNL     1     -41.326 -55.103  15.319  1.00  0.00     0.184 HD
HETATM    5  C   UNL     1     -41.323 -53.468  13.953  1.00  0.00     0.075 A 
HETATM    6  C   UNL     1     -40.030 -52.927  13.932  1.00  0.00     0.058 A 
HETATM    7  C   UNL     1     -39.775 -51.836  13.089  1.00  0.00     0.058 A 
HETATM    8 CL   UNL     1     -38.164 -51.202  13.085  1.00  0.00    -0.082 Cl
HETATM    9  C   UNL     1     -40.790 -51.293  12.288  1.00  0.00     0.058 A 
HETATM   10 CL   UNL     1     -40.512 -49.946  11.238  1.00  0.00    -0.082 Cl
HETATM   11  C   UNL     1     -42.088 -51.827  12.302  1.00  0.00     0.058 A 
HETATM   12  C   UNL     1     -42.315 -52.915  13.150  1.00  0.00     0.078 A 
ENDROOT
BRANCH   1  13
HETATM   13  C   UNL     1     -44.729 -53.642  12.846  1.00  0.00     0.187 C 
BRANCH  13  14
HETATM   14  C   UNL     1     -45.753 -53.013  13.791  1.00  0.00     0.245 C 
BRANCH  14  15
HETATM   15  O   UNL     1     -46.839 -53.937  14.001  1.00  0.00    -0.385 OA
HETATM   16  H   UNL     1     -46.752 -54.295  14.905  1.00  0.00     0.210 HD
ENDBRANCH  14  15
BRANCH  14  17
HETATM   17  C   UNL     1     -46.220 -51.666  13.210  1.00  0.00     0.414 C 
HETATM   18  F   UNL     1     -46.878 -51.809  12.040  1.00  0.00    -0.168 F 
HETATM   19  F   UNL     1     -47.060 -51.044  14.070  1.00  0.00    -0.168 F 
HETATM   20  F   UNL     1     -45.184 -50.822  12.987  1.00  0.00    -0.168 F 
ENDBRANCH  14  17
ENDBRANCH  13  14
ENDBRANCH   1  13
TORSDOF 4
ENDMDL
MODEL 7
REMARK VINA RESULT:      -5.7      5.814      7.030
REMARK  4 active torsions:
REMARK  status: ('A' for Active; 'I' for Inactive)
REMARK    1  A    between atoms: O_1  and  C_2 
REMARK    2  A    between atoms: C_2  and  C_3 
REMARK    3  A    between atoms: C_2  and  C_16 
REMARK    4  A    between atoms: C_3  and  N_4 
ROOT
HETATM    1  N   UNL     1     -41.680 -50.830  12.628  1.00  0.00    -0.271 N 
HETATM    2  N   UNL     1     -42.215 -49.646  12.275  1.00  0.00    -0.019 NA
HETATM    3  N   UNL     1     -43.510 -49.693  12.558  1.00  0.00    -0.282 N 
ATOM      4  HN  UNL     1     -44.184 -48.944  12.401  1.00  0.00     0.184 HD
HETATM    5  C   UNL     1     -43.786 -50.918  13.098  1.00  0.00     0.075 A 
HETATM    6  C   UNL     1     -44.994 -51.464  13.555  1.00  0.00     0.058 A 
HETATM    7  C   UNL     1     -44.987 -52.773  14.057  1.00  0.00     0.058 A 
HETATM    8 CL   UNL     1     -46.499 -53.415  14.603  1.00  0.00    -0.082 Cl
HETATM    9  C   UNL     1     -43.801 -53.519  14.106  1.00  0.00     0.058 A 
HETATM   10 CL   UNL     1     -43.756 -55.137  14.721  1.00  0.00    -0.082 Cl
HETATM   11  C   UNL     1     -42.587 -52.981  13.652  1.00  0.00     0.058 A 
HETATM   12  C   UNL     1     -42.620 -51.675  13.156  1.00  0.00     0.078 A 
ENDROOT
BRANCH   1  13
HETATM   13  C   UNL     1     -40.279 -51.084  12.369  1.00  0.00     0.187 C 
BRANCH  13  14
HETATM   14  C   UNL     1     -39.611 -49.930  11.622  1.00  0.00     0.245 C 
BRANCH  14  15
HETATM   15  O   UNL     1     -40.021 -49.955  10.241  1.00  0.00    -0.385 OA
HETATM   16  H   UNL     1     -40.897 -49.526  10.186  1.00  0.00     0.210 HD
ENDBRANCH  14  15
BRANCH  14  17
HETATM   17  C   UNL     1     -38.083 -50.033  11.793  1.00  0.00     0.414 C 
HETATM   18  F   UNL     1     -37.575 -49.010  12.514  1.00  0.00    -0.168 F 
HETATM   19  F   UNL     1     -37.754 -51.178  12.434  1.00  0.00    -0.168 F 
HETATM   20  F   UNL     1     -37.438 -50.044  10.602  1.00  0.00    -0.168 F 
ENDBRANCH  14  17
ENDBRANCH  13  14
ENDBRANCH   1  13
TORSDOF 4
ENDMDL
MODEL 8
REMARK VINA RESULT:      -5.6      6.751      7.375
REMARK  4 active torsions:
REMARK  status: ('A' for Active; 'I' for Inactive)
REMARK    1  A    between atoms: O_1  and  C_2 
REMARK    2  A    between atoms: C_2  and  C_3 
REMARK    3  A    between atoms: C_2  and  C_16 
REMARK    4  A    between atoms: C_3  and  N_4 
ROOT
HETATM    1  N   UNL     1     -44.708 -54.227  13.807  1.00  0.00    -0.271 N 
HETATM    2  N   UNL     1     -44.676 -53.907  12.500  1.00  0.00    -0.019 NA
HETATM    3  N   UNL     1     -43.401 -53.805  12.146  1.00  0.00    -0.282 N 
ATOM      4  HN  UNL     1     -43.057 -53.570  11.215  1.00  0.00     0.184 HD
HETATM    5  C   UNL     1     -42.630 -54.068  13.243  1.00  0.00     0.075 A 
HETATM    6  C   UNL     1     -41.237 -54.084  13.397  1.00  0.00     0.058 A 
HETATM    7  C   UNL     1     -40.708 -54.379  14.662  1.00  0.00     0.058 A 
HETATM    8 CL   UNL     1     -38.984 -54.381  14.815  1.00  0.00    -0.082 Cl
HETATM    9  C   UNL     1     -41.551 -54.655  15.748  1.00  0.00     0.058 A 
HETATM   10 CL   UNL     1     -40.933 -55.024  17.322  1.00  0.00    -0.082 Cl
HETATM   11  C   UNL     1     -42.947 -54.642  15.604  1.00  0.00     0.058 A 
HETATM   12  C   UNL     1     -43.448 -54.345  14.333  1.00  0.00     0.078 A 
ENDROOT
BRANCH   1  13
HETATM   13  C   UNL     1     -45.984 -54.340  14.482  1.00  0.00     0.187 C 
BRANCH  13  14
HETATM   14  C   UNL     1     -46.816 -53.064  14.362  1.00  0.00     0.245 C 
BRANCH  14  15
HETATM   15  O   UNL     1     -46.941 -52.706  12.972  1.00  0.00    -0.385 OA
HETATM   16  H   UNL     1     -46.669 -51.773  12.881  1.00  0.00     0.210 HD
ENDBRANCH  14  15
BRANCH  14  17
HETATM   17  C   UNL     1     -46.166 -51.953  15.208  1.00  0.00     0.414 C 
HETATM   18  F   UNL     1     -45.268 -51.229  14.507  1.00  0.00    -0.168 F 
HETATM   19  F   UNL     1     -47.107 -51.093  15.663  1.00  0.00    -0.168 F 
HETATM   20  F   UNL     1     -45.523 -52.448  16.292  1.00  0.00    -0.168 F 
ENDBRANCH  14  17
ENDBRANCH  13  14
ENDBRANCH   1  13
TORSDOF 4
ENDMDL
MODEL 9
REMARK VINA RESULT:      -5.6      4.406      5.171
REMARK  4 active torsions:
REMARK  status: ('A' for Active; 'I' for Inactive)
REMARK    1  A    between atoms: O_1  and  C_2 
REMARK    2  A    between atoms: C_2  and  C_3 
REMARK    3  A    between atoms: C_2  and  C_16 
REMARK    4  A    between atoms: C_3  and  N_4 
ROOT
HETATM    1  N   UNL     1     -42.597 -51.883  12.950  1.00  0.00    -0.271 N 
HETATM    2  N   UNL     1     -41.746 -52.708  12.314  1.00  0.00    -0.019 NA
HETATM    3  N   UNL     1     -40.939 -51.956  11.576  1.00  0.00    -0.282 N 
ATOM      4  HN  UNL     1     -40.187 -52.297  10.977  1.00  0.00     0.184 HD
HETATM    5  C   UNL     1     -41.288 -50.648  11.757  1.00  0.00     0.075 A 
HETATM    6  C   UNL     1     -40.755 -49.475  11.205  1.00  0.00     0.058 A 
HETATM    7  C   UNL     1     -41.328 -48.246  11.564  1.00  0.00     0.058 A 
HETATM    8 CL   UNL     1     -40.648 -46.822  10.854  1.00  0.00    -0.082 Cl
HETATM    9  C   UNL     1     -42.407 -48.190  12.457  1.00  0.00     0.058 A 
HETATM   10 CL   UNL     1     -43.139 -46.692  12.924  1.00  0.00    -0.082 Cl
HETATM   11  C   UNL     1     -42.948 -49.358  13.016  1.00  0.00     0.058 A 
HETATM   12  C   UNL     1     -42.359 -50.569  12.642  1.00  0.00     0.078 A 
ENDROOT
BRANCH   1  13
HETATM   13  C   UNL     1     -43.642 -52.441  13.782  1.00  0.00     0.187 C 
BRANCH  13  14
HETATM   14  C   UNL     1     -44.732 -53.128  12.959  1.00  0.00     0.245 C 
BRANCH  14  15
HETATM   15  O   UNL     1     -44.261 -53.317  11.611  1.00  0.00    -0.385 OA
HETATM   16  H   UNL     1     -43.980 -54.248  11.524  1.00  0.00     0.210 HD
ENDBRANCH  14  15
BRANCH  14  17
HETATM   17  C   UNL     1     -46.023 -52.292  13.029  1.00  0.00     0.414 C 
HETATM   18  F   UNL     1     -46.953 -52.846  13.836  1.00  0.00    -0.168 F 
HETATM   19  F   UNL     1     -45.762 -51.054  13.510  1.00  0.00    -0.168 F 
HETATM   20  F   UNL     1     -46.593 -52.133  11.811  1.00  0.00    -0.168 F 
ENDBRANCH  14  17
ENDBRANCH  13  14
ENDBRANCH   1  13
TORSDOF 4
ENDMDL
