MODEL 1
REMARK VINA RESULT:      -6.8      0.000      0.000
REMARK  5 active torsions:
REMARK  status: ('A' for Active; 'I' for Inactive)
REMARK    1  A    between atoms: N_2  and  C_17 
REMARK    2  A    between atoms: C_6  and  N_9 
REMARK    3  A    between atoms: C_7  and  N_8 
REMARK    4  A    between atoms: C_17  and  C_21 
REMARK    5  A    between atoms: C_21  and  O_28 
ROOT
HETATM    1  C   UNL     1     -41.018 -47.260  11.510  1.00  0.00     0.122 A 
HETATM    2  N   UNL     1     -40.719 -45.106  11.180  1.00  0.00    -0.324 N 
HETATM    3  C   UNL     1     -41.387 -46.198  10.698  1.00  0.00     0.140 A 
HETATM    4  N   UNL     1     -40.106 -46.818  12.461  1.00  0.00    -0.346 N 
ATOM      5  HN  UNL     1     -39.635 -47.378  13.171  1.00  0.00     0.167 HD
HETATM    6  C   UNL     1     -41.615 -48.525  11.240  1.00  0.00     0.135 A 
HETATM    7  C   UNL     1     -39.979 -45.524  12.253  1.00  0.00     0.185 A 
HETATM    8  N   UNL     1     -42.237 -46.202   9.660  1.00  0.00    -0.336 N 
ATOM      9  HN  UNL     1     -42.469 -45.385   9.095  1.00  0.00     0.168 HD
HETATM   10  N   UNL     1     -42.495 -48.547  10.182  1.00  0.00    -0.337 N 
ATOM     11  HN  UNL     1     -42.967 -49.417   9.935  1.00  0.00     0.168 HD
HETATM   12  C   UNL     1     -42.741 -47.432   9.470  1.00  0.00     0.183 A 
ENDROOT
BRANCH   6  13
HETATM   13  N   UNL     1     -41.399 -49.715  11.942  1.00  0.00    -0.363 N 
HETATM   14  C   UNL     1     -40.110 -50.377  11.782  1.00  0.00     0.130 C 
HETATM   15  C   UNL     1     -39.573 -51.029  13.064  1.00  0.00     0.028 C 
HETATM   16  C   UNL     1     -40.147 -52.434  13.308  1.00  0.00     0.279 C 
HETATM   17  C   UNL     1     -39.641 -50.119  14.291  1.00  0.00     0.013 C 
HETATM   18  N   UNL     1     -41.576 -52.569  13.648  1.00  0.00     0.095 N 
HETATM   19  C   UNL     1     -42.448 -51.918  12.638  1.00  0.00     0.292 C 
HETATM   20  C   UNL     1     -42.513 -50.376  12.624  1.00  0.00     0.154 C 
BRANCH  18  21
HETATM   21  C   UNL     1     -41.930 -54.019  13.725  1.00  0.00     0.227 A 
HETATM   22  C   UNL     1     -43.122 -54.431  14.553  1.00  0.00     0.042 A 
HETATM   23  C   UNL     1     -41.749 -54.883  14.949  1.00  0.00     0.017 A 
HETATM   24  C   UNL     1     -41.192 -54.426  16.250  1.00  0.00     0.012 C 
ENDBRANCH  18  21
ENDBRANCH   6  13
BRANCH   2  25
HETATM   25  C   UNL     1     -40.906 -43.733  10.744  1.00  0.00     0.169 C 
BRANCH  25  26
HETATM   26  C   UNL     1     -42.212 -43.041  11.212  1.00  0.00     0.078 C 
HETATM   27  C   UNL     1     -42.057 -41.514  11.053  1.00  0.00     0.066 C 
HETATM   28  C   UNL     1     -41.242 -40.899  12.177  1.00  0.00     0.170 C 
HETATM   29  O   UNL     1     -41.865 -41.176  13.425  1.00  0.00    -0.391 OA
HETATM   30  C   UNL     1     -41.891 -42.572  13.719  1.00  0.00     0.170 C 
HETATM   31  C   UNL     1     -42.651 -43.357  12.655  1.00  0.00     0.066 C 
BRANCH  26  32
HETATM   32  O   UNL     1     -43.261 -43.417  10.300  1.00  0.00    -0.388 OA
HETATM   33  H   UNL     1     -44.039 -42.853  10.455  1.00  0.00     0.210 HD
ENDBRANCH  26  32
ENDBRANCH  25  26
ENDBRANCH   2  25
TORSDOF 5
ENDMDL
MODEL 2
REMARK VINA RESULT:      -6.7      3.766      9.288
REMARK  5 active torsions:
REMARK  status: ('A' for Active; 'I' for Inactive)
REMARK    1  A    between atoms: N_2  and  C_17 
REMARK    2  A    between atoms: C_6  and  N_9 
REMARK    3  A    between atoms: C_7  and  N_8 
REMARK    4  A    between atoms: C_17  and  C_21 
REMARK    5  A    between atoms: C_21  and  O_28 
ROOT
HETATM    1  C   UNL     1     -39.838 -49.715  13.363  1.00  0.00     0.122 A 
HETATM    2  N   UNL     1     -39.568 -51.524  14.583  1.00  0.00    -0.324 N 
HETATM    3  C   UNL     1     -39.055 -50.851  13.510  1.00  0.00     0.140 A 
HETATM    4  N   UNL     1     -40.839 -49.718  14.326  1.00  0.00    -0.346 N 
ATOM      5  HN  UNL     1     -41.583 -49.030  14.444  1.00  0.00     0.167 HD
HETATM    6  C   UNL     1     -39.482 -48.809  12.323  1.00  0.00     0.135 A 
HETATM    7  C   UNL     1     -40.625 -50.793  15.055  1.00  0.00     0.185 A 
HETATM    8  N   UNL     1     -37.994 -51.229  12.780  1.00  0.00    -0.336 N 
ATOM      9  HN  UNL     1     -37.456 -52.082  12.935  1.00  0.00     0.168 HD
HETATM   10  N   UNL     1     -38.391 -49.178  11.567  1.00  0.00    -0.337 N 
ATOM     11  HN  UNL     1     -38.074 -48.574  10.809  1.00  0.00     0.168 HD
HETATM   12  C   UNL     1     -37.738 -50.327  11.819  1.00  0.00     0.183 A 
ENDROOT
BRANCH   6  13
HETATM   13  N   UNL     1     -40.120 -47.604  12.013  1.00  0.00    -0.363 N 
HETATM   14  C   UNL     1     -41.044 -47.591  10.885  1.00  0.00     0.130 C 
HETATM   15  C   UNL     1     -42.281 -46.706  11.094  1.00  0.00     0.028 C 
HETATM   16  C   UNL     1     -42.022 -45.227  10.764  1.00  0.00     0.279 C 
HETATM   17  C   UNL     1     -42.970 -46.921  12.442  1.00  0.00     0.013 C 
HETATM   18  N   UNL     1     -41.122 -44.450  11.639  1.00  0.00     0.095 N 
HETATM   19  C   UNL     1     -39.793 -45.099  11.779  1.00  0.00     0.292 C 
HETATM   20  C   UNL     1     -39.693 -46.362  12.660  1.00  0.00     0.154 C 
BRANCH  18  21
HETATM   21  C   UNL     1     -40.932 -43.085  11.063  1.00  0.00     0.227 A 
HETATM   22  C   UNL     1     -40.802 -41.913  12.004  1.00  0.00     0.042 A 
HETATM   23  C   UNL     1     -41.975 -41.995  11.075  1.00  0.00     0.017 A 
HETATM   24  C   UNL     1     -43.340 -42.117  11.655  1.00  0.00     0.012 C 
ENDBRANCH  18  21
ENDBRANCH   6  13
BRANCH   2  25
HETATM   25  C   UNL     1     -38.983 -52.697  15.211  1.00  0.00     0.169 C 
BRANCH  25  26
HETATM   26  C   UNL     1     -39.364 -54.065  14.590  1.00  0.00     0.078 C 
HETATM   27  C   UNL     1     -40.851 -54.033  14.177  1.00  0.00     0.066 C 
HETATM   28  C   UNL     1     -41.780 -54.229  15.362  1.00  0.00     0.170 C 
HETATM   29  O   UNL     1     -41.498 -55.475  15.988  1.00  0.00    -0.391 OA
HETATM   30  C   UNL     1     -40.187 -55.514  16.548  1.00  0.00     0.170 C 
HETATM   31  C   UNL     1     -39.114 -55.293  15.485  1.00  0.00     0.066 C 
BRANCH  26  32
HETATM   32  O   UNL     1     -38.628 -54.211  13.361  1.00  0.00    -0.388 OA
HETATM   33  H   UNL     1     -39.251 -54.233  12.614  1.00  0.00     0.210 HD
ENDBRANCH  26  32
ENDBRANCH  25  26
ENDBRANCH   2  25
TORSDOF 5
ENDMDL
MODEL 3
REMARK VINA RESULT:      -6.4      3.492      8.871
REMARK  5 active torsions:
REMARK  status: ('A' for Active; 'I' for Inactive)
REMARK    1  A    between atoms: N_2  and  C_17 
REMARK    2  A    between atoms: C_6  and  N_9 
REMARK    3  A    between atoms: C_7  and  N_8 
REMARK    4  A    between atoms: C_17  and  C_21 
REMARK    5  A    between atoms: C_21  and  O_28 
ROOT
HETATM    1  C   UNL     1     -42.204 -48.835  12.964  1.00  0.00     0.122 A 
HETATM    2  N   UNL     1     -42.956 -50.779  13.665  1.00  0.00    -0.324 N 
HETATM    3  C   UNL     1     -42.185 -50.196  12.698  1.00  0.00     0.140 A 
HETATM    4  N   UNL     1     -43.010 -48.593  14.070  1.00  0.00    -0.346 N 
ATOM      5  HN  UNL     1     -43.240 -47.687  14.479  1.00  0.00     0.167 HD
HETATM    6  C   UNL     1     -41.432 -47.994  12.112  1.00  0.00     0.135 A 
HETATM    7  C   UNL     1     -43.413 -49.778  14.480  1.00  0.00     0.185 A 
HETATM    8  N   UNL     1     -41.535 -50.843  11.718  1.00  0.00    -0.336 N 
ATOM      9  HN  UNL     1     -41.561 -51.852  11.570  1.00  0.00     0.168 HD
HETATM   10  N   UNL     1     -40.754 -48.641  11.103  1.00  0.00    -0.337 N 
ATOM     11  HN  UNL     1     -40.174 -48.103  10.458  1.00  0.00     0.168 HD
HETATM   12  C   UNL     1     -40.847 -49.976  10.959  1.00  0.00     0.183 A 
ENDROOT
BRANCH   6  13
HETATM   13  N   UNL     1     -41.297 -46.606  12.212  1.00  0.00    -0.363 N 
HETATM   14  C   UNL     1     -40.010 -46.074  12.644  1.00  0.00     0.130 C 
HETATM   15  C   UNL     1     -39.597 -44.774  11.941  1.00  0.00     0.028 C 
HETATM   16  C   UNL     1     -40.212 -43.522  12.587  1.00  0.00     0.279 C 
HETATM   17  C   UNL     1     -39.756 -44.820  10.421  1.00  0.00     0.013 C 
HETATM   18  N   UNL     1     -41.667 -43.307  12.475  1.00  0.00     0.095 N 
HETATM   19  C   UNL     1     -42.438 -44.473  12.977  1.00  0.00     0.292 C 
HETATM   20  C   UNL     1     -42.477 -45.746  12.105  1.00  0.00     0.154 C 
BRANCH  18  21
HETATM   21  C   UNL     1     -42.050 -42.101  13.269  1.00  0.00     0.227 A 
HETATM   22  C   UNL     1     -43.249 -41.296  12.832  1.00  0.00     0.042 A 
HETATM   23  C   UNL     1     -41.885 -40.676  12.799  1.00  0.00     0.017 A 
HETATM   24  C   UNL     1     -41.318 -40.263  11.487  1.00  0.00     0.012 C 
ENDBRANCH  18  21
ENDBRANCH   6  13
BRANCH   2  25
HETATM   25  C   UNL     1     -43.109 -52.207  13.887  1.00  0.00     0.169 C 
BRANCH  25  26
HETATM   26  C   UNL     1     -44.175 -52.923  13.019  1.00  0.00     0.078 C 
HETATM   27  C   UNL     1     -45.417 -52.015  12.898  1.00  0.00     0.066 C 
HETATM   28  C   UNL     1     -46.288 -52.066  14.141  1.00  0.00     0.170 C 
HETATM   29  O   UNL     1     -46.711 -53.404  14.373  1.00  0.00    -0.391 OA
HETATM   30  C   UNL     1     -45.618 -54.274  14.662  1.00  0.00     0.170 C 
HETATM   31  C   UNL     1     -44.611 -54.314  13.517  1.00  0.00     0.066 C 
BRANCH  26  32
HETATM   32  O   UNL     1     -43.651 -53.036  11.683  1.00  0.00    -0.388 OA
HETATM   33  H   UNL     1     -43.011 -52.319  11.527  1.00  0.00     0.210 HD
ENDBRANCH  26  32
ENDBRANCH  25  26
ENDBRANCH   2  25
TORSDOF 5
ENDMDL
MODEL 4
REMARK VINA RESULT:      -6.3      3.514      9.030
REMARK  5 active torsions:
REMARK  status: ('A' for Active; 'I' for Inactive)
REMARK    1  A    between atoms: N_2  and  C_17 
REMARK    2  A    between atoms: C_6  and  N_9 
REMARK    3  A    between atoms: C_7  and  N_8 
REMARK    4  A    between atoms: C_17  and  C_21 
REMARK    5  A    between atoms: C_21  and  O_28 
ROOT
HETATM    1  C   UNL     1     -40.583 -48.881  12.913  1.00  0.00     0.122 A 
HETATM    2  N   UNL     1     -41.066 -50.877  13.702  1.00  0.00    -0.324 N 
HETATM    3  C   UNL     1     -40.221 -50.219  12.851  1.00  0.00     0.140 A 
HETATM    4  N   UNL     1     -41.662 -48.736  13.775  1.00  0.00    -0.346 N 
ATOM      5  HN  UNL     1     -42.166 -47.876  13.994  1.00  0.00     0.167 HD
HETATM    6  C   UNL     1     -39.818 -47.963  12.138  1.00  0.00     0.135 A 
HETATM    7  C   UNL     1     -41.900 -49.940  14.250  1.00  0.00     0.185 A 
HETATM    8  N   UNL     1     -39.236 -50.781  12.133  1.00  0.00    -0.336 N 
ATOM      9  HN  UNL     1     -39.018 -51.778  12.126  1.00  0.00     0.168 HD
HETATM   10  N   UNL     1     -38.799 -48.522  11.399  1.00  0.00    -0.337 N 
ATOM     11  HN  UNL     1     -38.205 -47.923  10.824  1.00  0.00     0.168 HD
HETATM   12  C   UNL     1     -38.579 -49.849  11.426  1.00  0.00     0.183 A 
ENDROOT
BRANCH   6  13
HETATM   13  N   UNL     1     -39.999 -46.578  12.068  1.00  0.00    -0.363 N 
HETATM   14  C   UNL     1     -39.947 -45.948  10.754  1.00  0.00     0.130 C 
HETATM   15  C   UNL     1     -40.942 -44.794  10.568  1.00  0.00     0.028 C 
HETATM   16  C   UNL     1     -40.417 -43.456  11.115  1.00  0.00     0.279 C 
HETATM   17  C   UNL     1     -42.362 -45.128  11.026  1.00  0.00     0.013 C 
HETATM   18  N   UNL     1     -40.261 -43.297  12.573  1.00  0.00     0.095 N 
HETATM   19  C   UNL     1     -39.409 -44.364  13.157  1.00  0.00     0.292 C 
HETATM   20  C   UNL     1     -40.011 -45.779  13.294  1.00  0.00     0.154 C 
BRANCH  18  21
HETATM   21  C   UNL     1     -39.635 -41.972  12.860  1.00  0.00     0.227 A 
HETATM   22  C   UNL     1     -40.237 -41.103  13.938  1.00  0.00     0.042 A 
HETATM   23  C   UNL     1     -40.250 -40.638  12.512  1.00  0.00     0.017 A 
HETATM   24  C   UNL     1     -41.560 -40.446  11.834  1.00  0.00     0.012 C 
ENDBRANCH  18  21
ENDBRANCH   6  13
BRANCH   2  25
HETATM   25  C   UNL     1     -40.970 -52.275  14.084  1.00  0.00     0.169 C 
BRANCH  25  26
HETATM   26  C   UNL     1     -41.589 -53.296  13.095  1.00  0.00     0.078 C 
HETATM   27  C   UNL     1     -42.804 -52.650  12.399  1.00  0.00     0.066 C 
HETATM   28  C   UNL     1     -44.039 -52.648  13.284  1.00  0.00     0.170 C 
HETATM   29  O   UNL     1     -44.367 -53.983  13.648  1.00  0.00    -0.391 OA
HETATM   30  C   UNL     1     -43.353 -54.591  14.444  1.00  0.00     0.170 C 
HETATM   31  C   UNL     1     -42.016 -54.642  13.711  1.00  0.00     0.066 C 
BRANCH  26  32
HETATM   32  O   UNL     1     -40.629 -53.533  12.048  1.00  0.00    -0.388 OA
HETATM   33  H   UNL     1     -40.280 -54.438  12.131  1.00  0.00     0.210 HD
ENDBRANCH  26  32
ENDBRANCH  25  26
ENDBRANCH   2  25
TORSDOF 5
ENDMDL
MODEL 5
REMARK VINA RESULT:      -6.3      5.008      8.406
REMARK  5 active torsions:
REMARK  status: ('A' for Active; 'I' for Inactive)
REMARK    1  A    between atoms: N_2  and  C_17 
REMARK    2  A    between atoms: C_6  and  N_9 
REMARK    3  A    between atoms: C_7  and  N_8 
REMARK    4  A    between atoms: C_17  and  C_21 
REMARK    5  A    between atoms: C_21  and  O_28 
ROOT
HETATM    1  C   UNL     1     -41.619 -50.613  13.795  1.00  0.00     0.122 A 
HETATM    2  N   UNL     1     -43.649 -51.437  13.608  1.00  0.00    -0.324 N 
HETATM    3  C   UNL     1     -42.424 -51.418  13.002  1.00  0.00     0.140 A 
HETATM    4  N   UNL     1     -42.364 -50.122  14.859  1.00  0.00    -0.346 N 
ATOM      5  HN  UNL     1     -42.051 -49.479  15.586  1.00  0.00     0.167 HD
HETATM    6  C   UNL     1     -40.259 -50.459  13.398  1.00  0.00     0.135 A 
HETATM    7  C   UNL     1     -43.559 -50.661  14.732  1.00  0.00     0.185 A 
HETATM    8  N   UNL     1     -42.093 -52.075  11.880  1.00  0.00    -0.336 N 
ATOM      9  HN  UNL     1     -42.733 -52.654  11.335  1.00  0.00     0.168 HD
HETATM   10  N   UNL     1     -39.901 -51.132  12.251  1.00  0.00    -0.337 N 
ATOM     11  HN  UNL     1     -38.941 -51.074  11.910  1.00  0.00     0.168 HD
HETATM   12  C   UNL     1     -40.803 -51.865  11.574  1.00  0.00     0.183 A 
ENDROOT
BRANCH   6  13
HETATM   13  N   UNL     1     -39.278 -49.713  14.057  1.00  0.00    -0.363 N 
HETATM   14  C   UNL     1     -38.549 -48.712  13.287  1.00  0.00     0.130 C 
HETATM   15  C   UNL     1     -38.223 -47.431  14.067  1.00  0.00     0.028 C 
HETATM   16  C   UNL     1     -36.947 -47.554  14.916  1.00  0.00     0.279 C 
HETATM   17  C   UNL     1     -39.415 -46.858  14.833  1.00  0.00     0.013 C 
HETATM   18  N   UNL     1     -36.956 -48.453  16.086  1.00  0.00     0.095 N 
HETATM   19  C   UNL     1     -37.364 -49.833  15.718  1.00  0.00     0.292 C 
HETATM   20  C   UNL     1     -38.854 -50.090  15.406  1.00  0.00     0.154 C 
BRANCH  18  21
HETATM   21  C   UNL     1     -35.588 -48.499  16.683  1.00  0.00     0.227 A 
HETATM   22  C   UNL     1     -35.434 -48.975  18.107  1.00  0.00     0.042 A 
HETATM   23  C   UNL     1     -35.086 -47.561  17.752  1.00  0.00     0.017 A 
HETATM   24  C   UNL     1     -35.871 -46.456  18.365  1.00  0.00     0.012 C 
ENDBRANCH  18  21
ENDBRANCH   6  13
BRANCH   2  25
HETATM   25  C   UNL     1     -44.776 -52.271  13.225  1.00  0.00     0.169 C 
BRANCH  25  26
HETATM   26  C   UNL     1     -44.596 -53.796  13.430  1.00  0.00     0.078 C 
HETATM   27  C   UNL     1     -45.959 -54.420  13.796  1.00  0.00     0.066 C 
HETATM   28  C   UNL     1     -46.323 -54.192  15.253  1.00  0.00     0.170 C 
HETATM   29  O   UNL     1     -45.317 -54.751  16.089  1.00  0.00    -0.391 OA
HETATM   30  C   UNL     1     -44.056 -54.104  15.925  1.00  0.00     0.170 C 
HETATM   31  C   UNL     1     -43.553 -54.205  14.488  1.00  0.00     0.066 C 
BRANCH  26  32
HETATM   32  O   UNL     1     -44.239 -54.373  12.160  1.00  0.00    -0.388 OA
HETATM   33  H   UNL     1     -44.995 -54.879  11.813  1.00  0.00     0.210 HD
ENDBRANCH  26  32
ENDBRANCH  25  26
ENDBRANCH   2  25
TORSDOF 5
ENDMDL
MODEL 6
REMARK VINA RESULT:      -6.2      3.989      9.280
REMARK  5 active torsions:
REMARK  status: ('A' for Active; 'I' for Inactive)
REMARK    1  A    between atoms: N_2  and  C_17 
REMARK    2  A    between atoms: C_6  and  N_9 
REMARK    3  A    between atoms: C_7  and  N_8 
REMARK    4  A    between atoms: C_17  and  C_21 
REMARK    5  A    between atoms: C_21  and  O_28 
ROOT
HETATM    1  C   UNL     1     -40.244 -50.957  13.095  1.00  0.00     0.122 A 
HETATM    2  N   UNL     1     -39.343 -52.758  13.980  1.00  0.00    -0.324 N 
HETATM    3  C   UNL     1     -40.470 -52.301  13.355  1.00  0.00     0.140 A 
HETATM    4  N   UNL     1     -38.996 -50.597  13.588  1.00  0.00    -0.346 N 
ATOM      5  HN  UNL     1     -38.572 -49.669  13.573  1.00  0.00     0.167 HD
HETATM    6  C   UNL     1     -41.267 -50.247  12.403  1.00  0.00     0.135 A 
HETATM    7  C   UNL     1     -38.476 -51.703  14.077  1.00  0.00     0.185 A 
HETATM    8  N   UNL     1     -41.551 -53.036  13.051  1.00  0.00    -0.336 N 
ATOM      9  HN  UNL     1     -41.662 -54.026  13.271  1.00  0.00     0.168 HD
HETATM   10  N   UNL     1     -42.381 -50.987  12.077  1.00  0.00    -0.337 N 
ATOM     11  HN  UNL     1     -43.151 -50.546  11.574  1.00  0.00     0.168 HD
HETATM   12  C   UNL     1     -42.465 -52.287  12.415  1.00  0.00     0.183 A 
ENDROOT
BRANCH   6  13
HETATM   13  N   UNL     1     -41.237 -48.901  12.027  1.00  0.00    -0.363 N 
HETATM   14  C   UNL     1     -41.335 -48.587  10.606  1.00  0.00     0.130 C 
HETATM   15  C   UNL     1     -42.152 -47.326  10.294  1.00  0.00     0.028 C 
HETATM   16  C   UNL     1     -41.329 -46.033  10.415  1.00  0.00     0.279 C 
HETATM   17  C   UNL     1     -43.494 -47.268  11.023  1.00  0.00     0.013 C 
HETATM   18  N   UNL     1     -40.876 -45.602  11.752  1.00  0.00     0.095 N 
HETATM   19  C   UNL     1     -40.109 -46.667  12.445  1.00  0.00     0.292 C 
HETATM   20  C   UNL     1     -40.890 -47.873  13.009  1.00  0.00     0.154 C 
BRANCH  18  21
HETATM   21  C   UNL     1     -40.006 -44.396  11.612  1.00  0.00     0.227 A 
HETATM   22  C   UNL     1     -39.983 -43.384  12.732  1.00  0.00     0.042 A 
HETATM   23  C   UNL     1     -40.512 -42.993  11.385  1.00  0.00     0.017 A 
HETATM   24  C   UNL     1     -41.943 -42.604  11.264  1.00  0.00     0.012 C 
ENDBRANCH  18  21
ENDBRANCH   6  13
BRANCH   2  25
HETATM   25  C   UNL     1     -39.054 -54.144  14.308  1.00  0.00     0.169 C 
BRANCH  25  26
HETATM   26  C   UNL     1     -39.666 -54.673  15.630  1.00  0.00     0.078 C 
HETATM   27  C   UNL     1     -39.570 -53.571  16.706  1.00  0.00     0.066 C 
HETATM   28  C   UNL     1     -38.177 -53.473  17.304  1.00  0.00     0.170 C 
HETATM   29  O   UNL     1     -37.818 -54.721  17.884  1.00  0.00    -0.391 OA
HETATM   30  C   UNL     1     -37.721 -55.761  16.912  1.00  0.00     0.170 C 
HETATM   31  C   UNL     1     -39.042 -55.971  16.178  1.00  0.00     0.066 C 
BRANCH  26  32
HETATM   32  O   UNL     1     -41.075 -54.875  15.414  1.00  0.00    -0.388 OA
HETATM   33  H   UNL     1     -41.508 -55.059  16.266  1.00  0.00     0.210 HD
ENDBRANCH  26  32
ENDBRANCH  25  26
ENDBRANCH   2  25
TORSDOF 5
ENDMDL
MODEL 7
REMARK VINA RESULT:      -6.1      1.440      2.365
REMARK  5 active torsions:
REMARK  status: ('A' for Active; 'I' for Inactive)
REMARK    1  A    between atoms: N_2  and  C_17 
REMARK    2  A    between atoms: C_6  and  N_9 
REMARK    3  A    between atoms: C_7  and  N_8 
REMARK    4  A    between atoms: C_17  and  C_21 
REMARK    5  A    between atoms: C_21  and  O_28 
ROOT
HETATM    1  C   UNL     1     -40.969 -47.065  12.026  1.00  0.00     0.122 A 
HETATM    2  N   UNL     1     -40.802 -45.009  11.263  1.00  0.00    -0.324 N 
HETATM    3  C   UNL     1     -40.330 -45.851  12.232  1.00  0.00     0.140 A 
HETATM    4  N   UNL     1     -41.846 -46.948  10.955  1.00  0.00    -0.346 N 
ATOM      5  HN  UNL     1     -42.476 -47.663  10.593  1.00  0.00     0.167 HD
HETATM    6  C   UNL     1     -40.618 -48.141  12.891  1.00  0.00     0.135 A 
HETATM    7  C   UNL     1     -41.694 -45.719  10.506  1.00  0.00     0.185 A 
HETATM    8  N   UNL     1     -39.417 -45.541  13.165  1.00  0.00    -0.336 N 
ATOM      9  HN  UNL     1     -38.981 -44.624  13.269  1.00  0.00     0.168 HD
HETATM   10  N   UNL     1     -39.678 -47.842  13.851  1.00  0.00    -0.337 N 
ATOM     11  HN  UNL     1     -39.372 -48.566  14.502  1.00  0.00     0.168 HD
HETATM   12  C   UNL     1     -39.156 -46.605  13.941  1.00  0.00     0.183 A 
ENDROOT
BRANCH   6  13
HETATM   13  N   UNL     1     -41.124 -49.444  12.847  1.00  0.00    -0.363 N 
HETATM   14  C   UNL     1     -40.518 -50.380  11.908  1.00  0.00     0.130 C 
HETATM   15  C   UNL     1     -40.403 -51.817  12.436  1.00  0.00     0.028 C 
HETATM   16  C   UNL     1     -41.696 -52.629  12.249  1.00  0.00     0.279 C 
HETATM   17  C   UNL     1     -39.822 -51.909  13.847  1.00  0.00     0.013 C 
HETATM   18  N   UNL     1     -42.885 -52.263  13.042  1.00  0.00     0.095 N 
HETATM   19  C   UNL     1     -43.247 -50.833  12.868  1.00  0.00     0.292 C 
HETATM   20  C   UNL     1     -42.361 -49.773  13.557  1.00  0.00     0.154 C 
BRANCH  18  21
HETATM   21  C   UNL     1     -44.042 -53.106  12.613  1.00  0.00     0.227 A 
HETATM   22  C   UNL     1     -45.280 -53.131  13.475  1.00  0.00     0.042 A 
HETATM   23  C   UNL     1     -44.474 -54.382  13.295  1.00  0.00     0.017 A 
HETATM   24  C   UNL     1     -43.817 -54.987  14.484  1.00  0.00     0.012 C 
ENDBRANCH  18  21
ENDBRANCH   6  13
BRANCH   2  25
HETATM   25  C   UNL     1     -40.308 -43.671  10.984  1.00  0.00     0.169 C 
BRANCH  25  26
HETATM   26  C   UNL     1     -41.245 -42.502  11.380  1.00  0.00     0.078 C 
HETATM   27  C   UNL     1     -40.431 -41.445  12.155  1.00  0.00     0.066 C 
HETATM   28  C   UNL     1     -40.198 -41.846  13.601  1.00  0.00     0.170 C 
HETATM   29  O   UNL     1     -41.449 -42.036  14.250  1.00  0.00    -0.391 OA
HETATM   30  C   UNL     1     -42.190 -43.119  13.690  1.00  0.00     0.170 C 
HETATM   31  C   UNL     1     -42.482 -42.894  12.209  1.00  0.00     0.066 C 
BRANCH  26  32
HETATM   32  O   UNL     1     -41.669 -41.848  10.170  1.00  0.00    -0.388 OA
HETATM   33  H   UNL     1     -41.053 -42.072   9.450  1.00  0.00     0.210 HD
ENDBRANCH  26  32
ENDBRANCH  25  26
ENDBRANCH   2  25
TORSDOF 5
ENDMDL
MODEL 8
REMARK VINA RESULT:      -6.0      3.270      5.738
REMARK  5 active torsions:
REMARK  status: ('A' for Active; 'I' for Inactive)
REMARK    1  A    between atoms: N_2  and  C_17 
REMARK    2  A    between atoms: C_6  and  N_9 
REMARK    3  A    between atoms: C_7  and  N_8 
REMARK    4  A    between atoms: C_17  and  C_21 
REMARK    5  A    between atoms: C_21  and  O_28 
ROOT
HETATM    1  C   UNL     1     -40.253 -52.456  13.366  1.00  0.00     0.122 A 
HETATM    2  N   UNL     1     -40.109 -50.766  11.965  1.00  0.00    -0.324 N 
HETATM    3  C   UNL     1     -40.929 -51.789  12.354  1.00  0.00     0.140 A 
HETATM    4  N   UNL     1     -39.017 -51.855  13.567  1.00  0.00    -0.346 N 
ATOM      5  HN  UNL     1     -38.290 -52.146  14.221  1.00  0.00     0.167 HD
HETATM    6  C   UNL     1     -40.920 -53.556  13.979  1.00  0.00     0.135 A 
HETATM    7  C   UNL     1     -38.981 -50.833  12.739  1.00  0.00     0.185 A 
HETATM    8  N   UNL     1     -42.145 -52.054  11.851  1.00  0.00    -0.336 N 
ATOM      9  HN  UNL     1     -42.591 -51.526  11.101  1.00  0.00     0.168 HD
HETATM   10  N   UNL     1     -42.171 -53.838  13.480  1.00  0.00    -0.337 N 
ATOM     11  HN  UNL     1     -42.711 -54.609  13.875  1.00  0.00     0.168 HD
HETATM   12  C   UNL     1     -42.692 -53.109  12.475  1.00  0.00     0.183 A 
ENDROOT
BRANCH   6  13
HETATM   13  N   UNL     1     -40.432 -54.349  15.021  1.00  0.00    -0.363 N 
HETATM   14  C   UNL     1     -39.117 -54.958  14.858  1.00  0.00     0.130 C 
HETATM   15  C   UNL     1     -38.282 -55.010  16.145  1.00  0.00     0.028 C 
HETATM   16  C   UNL     1     -38.618 -56.222  17.029  1.00  0.00     0.279 C 
HETATM   17  C   UNL     1     -38.248 -53.686  16.909  1.00  0.00     0.013 C 
HETATM   18  N   UNL     1     -39.935 -56.275  17.692  1.00  0.00     0.095 N 
HETATM   19  C   UNL     1     -41.049 -56.129  16.721  1.00  0.00     0.292 C 
HETATM   20  C   UNL     1     -41.313 -54.729  16.127  1.00  0.00     0.154 C 
BRANCH  18  21
HETATM   21  C   UNL     1     -40.080 -57.585  18.396  1.00  0.00     0.227 A 
HETATM   22  C   UNL     1     -40.642 -57.597  19.797  1.00  0.00     0.042 A 
HETATM   23  C   UNL     1     -39.228 -58.034  19.558  1.00  0.00     0.017 A 
HETATM   24  C   UNL     1     -38.123 -57.248  20.169  1.00  0.00     0.012 C 
ENDBRANCH  18  21
ENDBRANCH   6  13
BRANCH   2  25
HETATM   25  C   UNL     1     -40.454 -49.704  11.036  1.00  0.00     0.169 C 
BRANCH  25  26
HETATM   26  C   UNL     1     -41.426 -48.620  11.569  1.00  0.00     0.078 C 
HETATM   27  C   UNL     1     -41.315 -47.363  10.681  1.00  0.00     0.066 C 
HETATM   28  C   UNL     1     -40.087 -46.532  11.012  1.00  0.00     0.170 C 
HETATM   29  O   UNL     1     -40.136 -46.134  12.377  1.00  0.00    -0.391 OA
HETATM   30  C   UNL     1     -40.070 -47.246  13.267  1.00  0.00     0.170 C 
HETATM   31  C   UNL     1     -41.226 -48.216  13.043  1.00  0.00     0.066 C 
BRANCH  26  32
HETATM   32  O   UNL     1     -42.769 -49.103  11.385  1.00  0.00    -0.388 OA
HETATM   33  H   UNL     1     -43.056 -48.914  10.474  1.00  0.00     0.210 HD
ENDBRANCH  26  32
ENDBRANCH  25  26
ENDBRANCH   2  25
TORSDOF 5
ENDMDL
MODEL 9
REMARK VINA RESULT:      -6.0      2.811      5.586
REMARK  5 active torsions:
REMARK  status: ('A' for Active; 'I' for Inactive)
REMARK    1  A    between atoms: N_2  and  C_17 
REMARK    2  A    between atoms: C_6  and  N_9 
REMARK    3  A    between atoms: C_7  and  N_8 
REMARK    4  A    between atoms: C_17  and  C_21 
REMARK    5  A    between atoms: C_21  and  O_28 
ROOT
HETATM    1  C   UNL     1     -41.273 -51.344  14.024  1.00  0.00     0.122 A 
HETATM    2  N   UNL     1     -41.689 -49.452  12.982  1.00  0.00    -0.324 N 
HETATM    3  C   UNL     1     -41.985 -50.788  12.971  1.00  0.00     0.140 A 
HETATM    4  N   UNL     1     -40.526 -50.354  14.649  1.00  0.00    -0.346 N 
ATOM      5  HN  UNL     1     -39.880 -50.469  15.431  1.00  0.00     0.167 HD
HETATM    6  C   UNL     1     -41.440 -52.739  14.258  1.00  0.00     0.135 A 
HETATM    7  C   UNL     1     -40.826 -49.236  14.022  1.00  0.00     0.185 A 
HETATM    8  N   UNL     1     -42.817 -51.400  12.115  1.00  0.00    -0.336 N 
ATOM      9  HN  UNL     1     -43.314 -50.935  11.355  1.00  0.00     0.168 HD
HETATM   10  N   UNL     1     -42.296 -53.383  13.392  1.00  0.00    -0.337 N 
ATOM     11  HN  UNL     1     -42.470 -54.382  13.504  1.00  0.00     0.168 HD
HETATM   12  C   UNL     1     -42.906 -52.709  12.400  1.00  0.00     0.183 A 
ENDROOT
BRANCH   6  13
HETATM   13  N   UNL     1     -40.835 -53.493  15.268  1.00  0.00    -0.363 N 
HETATM   14  C   UNL     1     -41.438 -53.462  16.596  1.00  0.00     0.130 C 
HETATM   15  C   UNL     1     -41.392 -54.804  17.340  1.00  0.00     0.028 C 
HETATM   16  C   UNL     1     -40.057 -55.041  18.066  1.00  0.00     0.279 C 
HETATM   17  C   UNL     1     -41.848 -55.992  16.493  1.00  0.00     0.013 C 
HETATM   18  N   UNL     1     -38.841 -55.265  17.261  1.00  0.00     0.095 N 
HETATM   19  C   UNL     1     -38.612 -54.166  16.289  1.00  0.00     0.292 C 
HETATM   20  C   UNL     1     -39.522 -54.099  15.044  1.00  0.00     0.154 C 
BRANCH  18  21
HETATM   21  C   UNL     1     -37.659 -55.356  18.170  1.00  0.00     0.227 A 
HETATM   22  C   UNL     1     -36.466 -56.169  17.729  1.00  0.00     0.042 A 
HETATM   23  C   UNL     1     -37.255 -56.595  18.931  1.00  0.00     0.017 A 
HETATM   24  C   UNL     1     -37.969 -57.899  18.894  1.00  0.00     0.012 C 
ENDBRANCH  18  21
ENDBRANCH   6  13
BRANCH   2  25
HETATM   25  C   UNL     1     -42.319 -48.434  12.158  1.00  0.00     0.169 C 
BRANCH  25  26
HETATM   26  C   UNL     1     -41.665 -48.174  10.777  1.00  0.00     0.078 C 
HETATM   27  C   UNL     1     -40.565 -47.104  10.935  1.00  0.00     0.066 C 
HETATM   28  C   UNL     1     -41.137 -45.699  11.012  1.00  0.00     0.170 C 
HETATM   29  O   UNL     1     -41.887 -45.425   9.835  1.00  0.00    -0.391 OA
HETATM   30  C   UNL     1     -43.027 -46.273   9.710  1.00  0.00     0.170 C 
HETATM   31  C   UNL     1     -42.631 -47.745   9.656  1.00  0.00     0.066 C 
BRANCH  26  32
HETATM   32  O   UNL     1     -40.978 -49.376  10.382  1.00  0.00    -0.388 OA
HETATM   33  H   UNL     1     -40.023 -49.266  10.536  1.00  0.00     0.210 HD
ENDBRANCH  26  32
ENDBRANCH  25  26
ENDBRANCH   2  25
TORSDOF 5
ENDMDL
