MODEL 1
REMARK VINA RESULT:      -5.9      0.000      0.000
REMARK  7 active torsions:
REMARK  status: ('A' for Active; 'I' for Inactive)
REMARK    1  A    between atoms: N_2  and  C_9 
REMARK    2  A    between atoms: C_4  and  C_7 
REMARK    3  A    between atoms: C_7  and  C_11 
REMARK    4  A    between atoms: C_9  and  O_12 
REMARK    5  A    between atoms: O_12  and  C_15 
REMARK    6  A    between atoms: O_13  and  C_14 
REMARK    7  A    between atoms: C_14  and  C_15 
ROOT
HETATM    1  N   UNL     1     -41.143 -55.100  16.045  1.00  0.00    -0.275 N 
HETATM    2  N   UNL     1     -40.490 -53.449  14.540  1.00  0.00    -0.287 N 
HETATM    3  C   UNL     1     -40.123 -54.350  15.524  1.00  0.00     0.331 C 
HETATM    4  C   UNL     1     -42.728 -54.260  14.423  1.00  0.00     0.030 C 
HETATM    5  C   UNL     1     -42.376 -55.247  15.470  1.00  0.00     0.257 C 
HETATM    6  C   UNL     1     -41.780 -53.389  14.051  1.00  0.00     0.111 C 
HETATM    7  O   UNL     1     -38.968 -54.531  15.903  1.00  0.00    -0.246 OA
HETATM    8  O   UNL     1     -43.112 -56.181  15.765  1.00  0.00    -0.267 OA
HETATM    9  H   UNL     1     -40.870 -55.813  16.704  1.00  0.00     0.173 HD
ENDROOT
BRANCH   4  10
HETATM   10  C   UNL     1     -43.983 -54.471  13.630  1.00  0.00     0.084 C 
BRANCH  10  11
HETATM   11  C   UNL     1     -45.089 -53.458  13.785  1.00  0.00    -0.054 A 
HETATM   12  C   UNL     1     -45.603 -53.154  15.054  1.00  0.00     0.007 A 
HETATM   13  C   UNL     1     -46.501 -52.098  15.220  1.00  0.00     0.001 A 
HETATM   14  C   UNL     1     -46.904 -51.345  14.119  1.00  0.00     0.000 A 
HETATM   15  C   UNL     1     -46.430 -51.663  12.848  1.00  0.00     0.001 A 
HETATM   16  C   UNL     1     -45.533 -52.720  12.679  1.00  0.00     0.007 A 
ENDBRANCH  10  11
ENDBRANCH   4  10
BRANCH   2  17
HETATM   17  C   UNL     1     -39.443 -52.720  13.842  1.00  0.00     0.302 C 
BRANCH  17  18
HETATM   18  O   UNL     1     -39.916 -52.234  12.591  1.00  0.00    -0.369 OA
BRANCH  18  19
HETATM   19  C   UNL     1     -39.589 -50.856  12.405  1.00  0.00     0.196 C 
BRANCH  19  20
HETATM   20  C   UNL     1     -40.706 -50.183  11.616  1.00  0.00     0.190 C 
BRANCH  20  21
HETATM   21  O   UNL     1     -40.315 -50.031  10.257  1.00  0.00    -0.399 OA
HETATM   22  H   UNL     1     -40.941 -50.553   9.726  1.00  0.00     0.209 HD
ENDBRANCH  20  21
ENDBRANCH  19  20
ENDBRANCH  18  19
ENDBRANCH  17  18
ENDBRANCH   2  17
TORSDOF 7
ENDMDL
MODEL 2
REMARK VINA RESULT:      -5.8      2.105      4.094
REMARK  7 active torsions:
REMARK  status: ('A' for Active; 'I' for Inactive)
REMARK    1  A    between atoms: N_2  and  C_9 
REMARK    2  A    between atoms: C_4  and  C_7 
REMARK    3  A    between atoms: C_7  and  C_11 
REMARK    4  A    between atoms: C_9  and  O_12 
REMARK    5  A    between atoms: O_12  and  C_15 
REMARK    6  A    between atoms: O_13  and  C_14 
REMARK    7  A    between atoms: C_14  and  C_15 
ROOT
HETATM    1  N   UNL     1     -43.300 -53.153  12.026  1.00  0.00    -0.275 N 
HETATM    2  N   UNL     1     -42.218 -54.091  13.860  1.00  0.00    -0.287 N 
HETATM    3  C   UNL     1     -42.137 -53.288  12.735  1.00  0.00     0.331 C 
HETATM    4  C   UNL     1     -44.583 -54.333  13.701  1.00  0.00     0.030 C 
HETATM    5  C   UNL     1     -44.544 -53.471  12.496  1.00  0.00     0.257 C 
HETATM    6  C   UNL     1     -43.416 -54.630  14.286  1.00  0.00     0.111 C 
HETATM    7  O   UNL     1     -41.126 -52.683  12.386  1.00  0.00    -0.246 OA
HETATM    8  O   UNL     1     -45.558 -53.011  11.985  1.00  0.00    -0.267 OA
HETATM    9  H   UNL     1     -43.266 -52.506  11.252  1.00  0.00     0.173 HD
ENDROOT
BRANCH   4  10
HETATM   10  C   UNL     1     -45.903 -54.569  14.372  1.00  0.00     0.084 C 
BRANCH  10  11
HETATM   11  C   UNL     1     -46.337 -53.591  15.433  1.00  0.00    -0.054 A 
HETATM   12  C   UNL     1     -45.942 -53.767  16.767  1.00  0.00     0.007 A 
HETATM   13  C   UNL     1     -46.196 -52.776  17.717  1.00  0.00     0.001 A 
HETATM   14  C   UNL     1     -46.855 -51.606  17.347  1.00  0.00     0.000 A 
HETATM   15  C   UNL     1     -47.287 -51.438  16.032  1.00  0.00     0.001 A 
HETATM   16  C   UNL     1     -47.037 -52.429  15.081  1.00  0.00     0.007 A 
ENDBRANCH  10  11
ENDBRANCH   4  10
BRANCH   2  17
HETATM   17  C   UNL     1     -41.063 -54.169  14.741  1.00  0.00     0.302 C 
BRANCH  17  18
HETATM   18  O   UNL     1     -41.260 -55.160  15.743  1.00  0.00    -0.369 OA
BRANCH  18  19
HETATM   19  C   UNL     1     -40.027 -55.538  16.357  1.00  0.00     0.196 C 
BRANCH  19  20
HETATM   20  C   UNL     1     -38.872 -54.938  15.563  1.00  0.00     0.190 C 
BRANCH  20  21
HETATM   21  O   UNL     1     -37.974 -55.965  15.163  1.00  0.00    -0.399 OA
HETATM   22  H   UNL     1     -37.615 -55.702  14.297  1.00  0.00     0.209 HD
ENDBRANCH  20  21
ENDBRANCH  19  20
ENDBRANCH  18  19
ENDBRANCH  17  18
ENDBRANCH   2  17
TORSDOF 7
ENDMDL
MODEL 3
REMARK VINA RESULT:      -5.8      2.782      4.382
REMARK  7 active torsions:
REMARK  status: ('A' for Active; 'I' for Inactive)
REMARK    1  A    between atoms: N_2  and  C_9 
REMARK    2  A    between atoms: C_4  and  C_7 
REMARK    3  A    between atoms: C_7  and  C_11 
REMARK    4  A    between atoms: C_9  and  O_12 
REMARK    5  A    between atoms: O_12  and  C_15 
REMARK    6  A    between atoms: O_13  and  C_14 
REMARK    7  A    between atoms: C_14  and  C_15 
ROOT
HETATM    1  N   UNL     1     -39.568 -51.159  12.243  1.00  0.00    -0.275 N 
HETATM    2  N   UNL     1     -40.995 -49.386  11.762  1.00  0.00    -0.287 N 
HETATM    3  C   UNL     1     -39.712 -49.904  11.717  1.00  0.00     0.331 C 
HETATM    4  C   UNL     1     -41.953 -51.424  12.541  1.00  0.00     0.030 C 
HETATM    5  C   UNL     1     -40.598 -52.022  12.501  1.00  0.00     0.257 C 
HETATM    6  C   UNL     1     -42.067 -50.130  12.214  1.00  0.00     0.111 C 
HETATM    7  O   UNL     1     -38.751 -49.332  11.209  1.00  0.00    -0.246 OA
HETATM    8  O   UNL     1     -40.408 -53.226  12.626  1.00  0.00    -0.267 OA
HETATM    9  H   UNL     1     -38.654 -51.573  12.141  1.00  0.00     0.173 HD
ENDROOT
BRANCH   4  10
HETATM   10  C   UNL     1     -43.138 -52.337  12.640  1.00  0.00     0.084 C 
BRANCH  10  11
HETATM   11  C   UNL     1     -44.322 -51.866  13.444  1.00  0.00    -0.054 A 
HETATM   12  C   UNL     1     -45.595 -51.793  12.860  1.00  0.00     0.007 A 
HETATM   13  C   UNL     1     -46.719 -51.525  13.643  1.00  0.00     0.001 A 
HETATM   14  C   UNL     1     -46.582 -51.317  15.014  1.00  0.00     0.000 A 
HETATM   15  C   UNL     1     -45.316 -51.349  15.599  1.00  0.00     0.001 A 
HETATM   16  C   UNL     1     -44.191 -51.614  14.816  1.00  0.00     0.007 A 
ENDBRANCH  10  11
ENDBRANCH   4  10
BRANCH   2  17
HETATM   17  C   UNL     1     -41.255 -48.118  11.097  1.00  0.00     0.302 C 
BRANCH  17  18
HETATM   18  O   UNL     1     -41.941 -48.326   9.868  1.00  0.00    -0.369 OA
BRANCH  18  19
HETATM   19  C   UNL     1     -42.941 -47.330   9.650  1.00  0.00     0.196 C 
BRANCH  19  20
HETATM   20  C   UNL     1     -43.628 -47.599   8.316  1.00  0.00     0.190 C 
BRANCH  20  21
HETATM   21  O   UNL     1     -42.783 -48.386   7.486  1.00  0.00    -0.399 OA
HETATM   22  H   UNL     1     -41.902 -47.975   7.515  1.00  0.00     0.209 HD
ENDBRANCH  20  21
ENDBRANCH  19  20
ENDBRANCH  18  19
ENDBRANCH  17  18
ENDBRANCH   2  17
TORSDOF 7
ENDMDL
MODEL 4
REMARK VINA RESULT:      -5.8      1.984      2.511
REMARK  7 active torsions:
REMARK  status: ('A' for Active; 'I' for Inactive)
REMARK    1  A    between atoms: N_2  and  C_9 
REMARK    2  A    between atoms: C_4  and  C_7 
REMARK    3  A    between atoms: C_7  and  C_11 
REMARK    4  A    between atoms: C_9  and  O_12 
REMARK    5  A    between atoms: O_12  and  C_15 
REMARK    6  A    between atoms: O_13  and  C_14 
REMARK    7  A    between atoms: C_14  and  C_15 
ROOT
HETATM    1  N   UNL     1     -41.605 -54.364  13.498  1.00  0.00    -0.275 N 
HETATM    2  N   UNL     1     -40.243 -52.522  13.909  1.00  0.00    -0.287 N 
HETATM    3  C   UNL     1     -40.333 -53.873  13.620  1.00  0.00     0.331 C 
HETATM    4  C   UNL     1     -42.584 -52.158  13.653  1.00  0.00     0.030 C 
HETATM    5  C   UNL     1     -42.726 -53.597  13.330  1.00  0.00     0.257 C 
HETATM    6  C   UNL     1     -41.360 -51.713  13.968  1.00  0.00     0.111 C 
HETATM    7  O   UNL     1     -39.367 -54.608  13.431  1.00  0.00    -0.246 OA
HETATM    8  O   UNL     1     -43.762 -54.069  12.878  1.00  0.00    -0.267 OA
HETATM    9  H   UNL     1     -41.675 -55.327  13.209  1.00  0.00     0.173 HD
ENDROOT
BRANCH   4  10
HETATM   10  C   UNL     1     -43.716 -51.233  13.321  1.00  0.00     0.084 C 
BRANCH  10  11
HETATM   11  C   UNL     1     -44.807 -51.063  14.346  1.00  0.00    -0.054 A 
HETATM   12  C   UNL     1     -46.116 -51.484  14.068  1.00  0.00     0.007 A 
HETATM   13  C   UNL     1     -47.087 -51.488  15.072  1.00  0.00     0.001 A 
HETATM   14  C   UNL     1     -46.763 -51.060  16.358  1.00  0.00     0.000 A 
HETATM   15  C   UNL     1     -45.476 -50.603  16.635  1.00  0.00     0.001 A 
HETATM   16  C   UNL     1     -44.504 -50.596  15.632  1.00  0.00     0.007 A 
ENDBRANCH  10  11
ENDBRANCH   4  10
BRANCH   2  17
HETATM   17  C   UNL     1     -38.928 -51.900  13.913  1.00  0.00     0.302 C 
BRANCH  17  18
HETATM   18  O   UNL     1     -38.467 -51.688  12.585  1.00  0.00    -0.369 OA
BRANCH  18  19
HETATM   19  C   UNL     1     -37.407 -50.731  12.543  1.00  0.00     0.196 C 
BRANCH  19  20
HETATM   20  C   UNL     1     -37.468 -49.981  11.217  1.00  0.00     0.190 C 
BRANCH  20  21
HETATM   21  O   UNL     1     -38.812 -49.915  10.759  1.00  0.00    -0.399 OA
HETATM   22  H   UNL     1     -38.893 -49.093  10.244  1.00  0.00     0.209 HD
ENDBRANCH  20  21
ENDBRANCH  19  20
ENDBRANCH  18  19
ENDBRANCH  17  18
ENDBRANCH   2  17
TORSDOF 7
ENDMDL
MODEL 5
REMARK VINA RESULT:      -5.6      2.141      3.263
REMARK  7 active torsions:
REMARK  status: ('A' for Active; 'I' for Inactive)
REMARK    1  A    between atoms: N_2  and  C_9 
REMARK    2  A    between atoms: C_4  and  C_7 
REMARK    3  A    between atoms: C_7  and  C_11 
REMARK    4  A    between atoms: C_9  and  O_12 
REMARK    5  A    between atoms: O_12  and  C_15 
REMARK    6  A    between atoms: O_13  and  C_14 
REMARK    7  A    between atoms: C_14  and  C_15 
ROOT
HETATM    1  N   UNL     1     -40.126 -52.717  13.320  1.00  0.00    -0.275 N 
HETATM    2  N   UNL     1     -40.753 -50.794  12.171  1.00  0.00    -0.287 N 
HETATM    3  C   UNL     1     -39.729 -51.580  12.671  1.00  0.00     0.331 C 
HETATM    4  C   UNL     1     -42.440 -52.393  12.697  1.00  0.00     0.030 C 
HETATM    5  C   UNL     1     -41.374 -53.271  13.236  1.00  0.00     0.257 C 
HETATM    6  C   UNL     1     -42.075 -51.189  12.238  1.00  0.00     0.111 C 
HETATM    7  O   UNL     1     -38.534 -51.337  12.524  1.00  0.00    -0.246 OA
HETATM    8  O   UNL     1     -41.576 -54.443  13.530  1.00  0.00    -0.267 OA
HETATM    9  H   UNL     1     -39.384 -53.333  13.616  1.00  0.00     0.173 HD
ENDROOT
BRANCH   4  10
HETATM   10  C   UNL     1     -43.785 -52.990  12.411  1.00  0.00     0.084 C 
BRANCH  10  11
HETATM   11  C   UNL     1     -44.876 -52.782  13.429  1.00  0.00    -0.054 A 
HETATM   12  C   UNL     1     -45.528 -51.544  13.531  1.00  0.00     0.007 A 
HETATM   13  C   UNL     1     -46.650 -51.401  14.349  1.00  0.00     0.001 A 
HETATM   14  C   UNL     1     -47.124 -52.487  15.082  1.00  0.00     0.000 A 
HETATM   15  C   UNL     1     -46.461 -53.711  15.018  1.00  0.00     0.001 A 
HETATM   16  C   UNL     1     -45.337 -53.856  14.202  1.00  0.00     0.007 A 
ENDBRANCH  10  11
ENDBRANCH   4  10
BRANCH   2  17
HETATM   17  C   UNL     1     -40.408 -49.646  11.347  1.00  0.00     0.302 C 
BRANCH  17  18
HETATM   18  O   UNL     1     -41.570 -48.896  11.015  1.00  0.00    -0.369 OA
BRANCH  18  19
HETATM   19  C   UNL     1     -41.256 -47.527  10.757  1.00  0.00     0.196 C 
BRANCH  19  20
HETATM   20  C   UNL     1     -42.453 -46.860  10.089  1.00  0.00     0.190 C 
BRANCH  20  21
HETATM   21  O   UNL     1     -42.015 -45.776   9.279  1.00  0.00    -0.399 OA
HETATM   22  H   UNL     1     -41.714 -46.160   8.437  1.00  0.00     0.209 HD
ENDBRANCH  20  21
ENDBRANCH  19  20
ENDBRANCH  18  19
ENDBRANCH  17  18
ENDBRANCH   2  17
TORSDOF 7
ENDMDL
MODEL 6
REMARK VINA RESULT:      -5.5      2.912      4.886
REMARK  7 active torsions:
REMARK  status: ('A' for Active; 'I' for Inactive)
REMARK    1  A    between atoms: N_2  and  C_9 
REMARK    2  A    between atoms: C_4  and  C_7 
REMARK    3  A    between atoms: C_7  and  C_11 
REMARK    4  A    between atoms: C_9  and  O_12 
REMARK    5  A    between atoms: O_12  and  C_15 
REMARK    6  A    between atoms: O_13  and  C_14 
REMARK    7  A    between atoms: C_14  and  C_15 
ROOT
HETATM    1  N   UNL     1     -39.000 -50.228  13.191  1.00  0.00    -0.275 N 
HETATM    2  N   UNL     1     -40.749 -49.543  11.818  1.00  0.00    -0.287 N 
HETATM    3  C   UNL     1     -39.532 -49.242  12.405  1.00  0.00     0.331 C 
HETATM    4  C   UNL     1     -40.709 -51.812  12.544  1.00  0.00     0.030 C 
HETATM    5  C   UNL     1     -39.400 -51.536  13.181  1.00  0.00     0.257 C 
HETATM    6  C   UNL     1     -41.329 -50.790  11.939  1.00  0.00     0.111 C 
HETATM    7  O   UNL     1     -38.915 -48.195  12.225  1.00  0.00    -0.246 OA
HETATM    8  O   UNL     1     -38.681 -52.428  13.617  1.00  0.00    -0.267 OA
HETATM    9  H   UNL     1     -38.078 -50.045  13.556  1.00  0.00     0.173 HD
ENDROOT
BRANCH   4  10
HETATM   10  C   UNL     1     -41.121 -53.239  12.339  1.00  0.00     0.084 C 
BRANCH  10  11
HETATM   11  C   UNL     1     -42.314 -53.742  13.110  1.00  0.00    -0.054 A 
HETATM   12  C   UNL     1     -43.602 -53.660  12.560  1.00  0.00     0.007 A 
HETATM   13  C   UNL     1     -44.683 -54.278  13.193  1.00  0.00     0.001 A 
HETATM   14  C   UNL     1     -44.489 -54.974  14.384  1.00  0.00     0.000 A 
HETATM   15  C   UNL     1     -43.221 -55.029  14.960  1.00  0.00     0.001 A 
HETATM   16  C   UNL     1     -42.139 -54.409  14.330  1.00  0.00     0.007 A 
ENDBRANCH  10  11
ENDBRANCH   4  10
BRANCH   2  17
HETATM   17  C   UNL     1     -41.308 -48.603  10.859  1.00  0.00     0.302 C 
BRANCH  17  18
HETATM   18  O   UNL     1     -42.624 -48.219  11.238  1.00  0.00    -0.369 OA
BRANCH  18  19
HETATM   19  C   UNL     1     -43.321 -47.596  10.157  1.00  0.00     0.196 C 
BRANCH  19  20
HETATM   20  C   UNL     1     -42.581 -46.324   9.757  1.00  0.00     0.190 C 
BRANCH  20  21
HETATM   21  O   UNL     1     -42.901 -45.979   8.415  1.00  0.00    -0.399 OA
HETATM   22  H   UNL     1     -42.477 -46.645   7.846  1.00  0.00     0.209 HD
ENDBRANCH  20  21
ENDBRANCH  19  20
ENDBRANCH  18  19
ENDBRANCH  17  18
ENDBRANCH   2  17
TORSDOF 7
ENDMDL
MODEL 7
REMARK VINA RESULT:      -5.5      2.679      3.535
REMARK  7 active torsions:
REMARK  status: ('A' for Active; 'I' for Inactive)
REMARK    1  A    between atoms: N_2  and  C_9 
REMARK    2  A    between atoms: C_4  and  C_7 
REMARK    3  A    between atoms: C_7  and  C_11 
REMARK    4  A    between atoms: C_9  and  O_12 
REMARK    5  A    between atoms: O_12  and  C_15 
REMARK    6  A    between atoms: O_13  and  C_14 
REMARK    7  A    between atoms: C_14  and  C_15 
ROOT
HETATM    1  N   UNL     1     -42.615 -53.554  12.303  1.00  0.00    -0.275 N 
HETATM    2  N   UNL     1     -42.253 -51.294  12.722  1.00  0.00    -0.287 N 
HETATM    3  C   UNL     1     -41.793 -52.470  12.155  1.00  0.00     0.331 C 
HETATM    4  C   UNL     1     -44.381 -52.214  13.271  1.00  0.00     0.030 C 
HETATM    5  C   UNL     1     -43.933 -53.491  12.667  1.00  0.00     0.257 C 
HETATM    6  C   UNL     1     -43.501 -51.204  13.305  1.00  0.00     0.111 C 
HETATM    7  O   UNL     1     -40.749 -52.569  11.515  1.00  0.00    -0.246 OA
HETATM    8  O   UNL     1     -44.703 -54.417  12.443  1.00  0.00    -0.267 OA
HETATM    9  H   UNL     1     -42.324 -54.392  11.824  1.00  0.00     0.173 HD
ENDROOT
BRANCH   4  10
HETATM   10  C   UNL     1     -45.845 -52.015  13.525  1.00  0.00     0.084 C 
BRANCH  10  11
HETATM   11  C   UNL     1     -46.333 -52.131  14.946  1.00  0.00    -0.054 A 
HETATM   12  C   UNL     1     -45.738 -53.044  15.830  1.00  0.00     0.007 A 
HETATM   13  C   UNL     1     -46.068 -53.033  17.187  1.00  0.00     0.001 A 
HETATM   14  C   UNL     1     -47.002 -52.119  17.671  1.00  0.00     0.000 A 
HETATM   15  C   UNL     1     -47.627 -51.234  16.795  1.00  0.00     0.001 A 
HETATM   16  C   UNL     1     -47.301 -51.245  15.437  1.00  0.00     0.007 A 
ENDBRANCH  10  11
ENDBRANCH   4  10
BRANCH   2  17
HETATM   17  C   UNL     1     -41.503 -50.070  12.485  1.00  0.00     0.302 C 
BRANCH  17  18
HETATM   18  O   UNL     1     -42.289 -49.130  11.763  1.00  0.00    -0.369 OA
BRANCH  18  19
HETATM   19  C   UNL     1     -41.511 -48.434  10.788  1.00  0.00     0.196 C 
BRANCH  19  20
HETATM   20  C   UNL     1     -42.416 -47.472  10.025  1.00  0.00     0.190 C 
BRANCH  20  21
HETATM   21  O   UNL     1     -43.065 -48.158   8.962  1.00  0.00    -0.399 OA
HETATM   22  H   UNL     1     -43.896 -48.513   9.324  1.00  0.00     0.209 HD
ENDBRANCH  20  21
ENDBRANCH  19  20
ENDBRANCH  18  19
ENDBRANCH  17  18
ENDBRANCH   2  17
TORSDOF 7
ENDMDL
MODEL 8
REMARK VINA RESULT:      -5.5      4.836      6.374
REMARK  7 active torsions:
REMARK  status: ('A' for Active; 'I' for Inactive)
REMARK    1  A    between atoms: N_2  and  C_9 
REMARK    2  A    between atoms: C_4  and  C_7 
REMARK    3  A    between atoms: C_7  and  C_11 
REMARK    4  A    between atoms: C_9  and  O_12 
REMARK    5  A    between atoms: O_12  and  C_15 
REMARK    6  A    between atoms: O_13  and  C_14 
REMARK    7  A    between atoms: C_14  and  C_15 
ROOT
HETATM    1  N   UNL     1     -42.520 -46.476  13.551  1.00  0.00    -0.275 N 
HETATM    2  N   UNL     1     -42.770 -47.311  11.394  1.00  0.00    -0.287 N 
HETATM    3  C   UNL     1     -42.397 -46.254  12.206  1.00  0.00     0.331 C 
HETATM    4  C   UNL     1     -43.071 -48.808  13.223  1.00  0.00     0.030 C 
HETATM    5  C   UNL     1     -42.670 -47.707  14.130  1.00  0.00     0.257 C 
HETATM    6  C   UNL     1     -43.142 -48.535  11.914  1.00  0.00     0.111 C 
HETATM    7  O   UNL     1     -41.938 -45.191  11.795  1.00  0.00    -0.246 OA
HETATM    8  O   UNL     1     -42.420 -47.891  15.315  1.00  0.00    -0.267 OA
HETATM    9  H   UNL     1     -42.175 -45.741  14.149  1.00  0.00     0.173 HD
ENDROOT
BRANCH   4  10
HETATM   10  C   UNL     1     -43.077 -50.209  13.755  1.00  0.00     0.084 C 
BRANCH  10  11
HETATM   11  C   UNL     1     -44.388 -50.769  14.244  1.00  0.00    -0.054 A 
HETATM   12  C   UNL     1     -44.726 -50.701  15.604  1.00  0.00     0.007 A 
HETATM   13  C   UNL     1     -46.006 -51.060  16.033  1.00  0.00     0.001 A 
HETATM   14  C   UNL     1     -46.954 -51.500  15.112  1.00  0.00     0.000 A 
HETATM   15  C   UNL     1     -46.615 -51.609  13.764  1.00  0.00     0.001 A 
HETATM   16  C   UNL     1     -45.336 -51.253  13.333  1.00  0.00     0.007 A 
ENDBRANCH  10  11
ENDBRANCH   4  10
BRANCH   2  17
HETATM   17  C   UNL     1     -42.534 -47.202   9.962  1.00  0.00     0.302 C 
BRANCH  17  18
HETATM   18  O   UNL     1     -43.649 -46.605   9.312  1.00  0.00    -0.369 OA
BRANCH  18  19
HETATM   19  C   UNL     1     -44.348 -47.546   8.497  1.00  0.00     0.196 C 
BRANCH  19  20
HETATM   20  C   UNL     1     -45.768 -47.705   9.028  1.00  0.00     0.190 C 
BRANCH  20  21
HETATM   21  O   UNL     1     -46.602 -46.683   8.496  1.00  0.00    -0.399 OA
HETATM   22  H   UNL     1     -46.634 -46.821   7.534  1.00  0.00     0.209 HD
ENDBRANCH  20  21
ENDBRANCH  19  20
ENDBRANCH  18  19
ENDBRANCH  17  18
ENDBRANCH   2  17
TORSDOF 7
ENDMDL
MODEL 9
REMARK VINA RESULT:      -5.5      2.574      6.490
REMARK  7 active torsions:
REMARK  status: ('A' for Active; 'I' for Inactive)
REMARK    1  A    between atoms: N_2  and  C_9 
REMARK    2  A    between atoms: C_4  and  C_7 
REMARK    3  A    between atoms: C_7  and  C_11 
REMARK    4  A    between atoms: C_9  and  O_12 
REMARK    5  A    between atoms: O_12  and  C_15 
REMARK    6  A    between atoms: O_13  and  C_14 
REMARK    7  A    between atoms: C_14  and  C_15 
ROOT
HETATM    1  N   UNL     1     -43.103 -53.856  12.418  1.00  0.00    -0.275 N 
HETATM    2  N   UNL     1     -44.281 -52.000  13.180  1.00  0.00    -0.287 N 
HETATM    3  C   UNL     1     -44.322 -53.280  12.656  1.00  0.00     0.331 C 
HETATM    4  C   UNL     1     -41.918 -52.035  13.480  1.00  0.00     0.030 C 
HETATM    5  C   UNL     1     -41.915 -53.411  12.931  1.00  0.00     0.257 C 
HETATM    6  C   UNL     1     -43.092 -51.392  13.531  1.00  0.00     0.111 C 
HETATM    7  O   UNL     1     -45.354 -53.912  12.448  1.00  0.00    -0.246 OA
HETATM    8  O   UNL     1     -40.931 -54.139  12.989  1.00  0.00    -0.267 OA
HETATM    9  H   UNL     1     -43.126 -54.816  12.112  1.00  0.00     0.173 HD
ENDROOT
BRANCH   4  10
HETATM   10  C   UNL     1     -40.704 -51.554  14.217  1.00  0.00     0.084 C 
BRANCH  10  11
HETATM   11  C   UNL     1     -39.576 -50.968  13.406  1.00  0.00    -0.054 A 
HETATM   12  C   UNL     1     -38.269 -51.457  13.549  1.00  0.00     0.007 A 
HETATM   13  C   UNL     1     -37.259 -51.040  12.681  1.00  0.00     0.001 A 
HETATM   14  C   UNL     1     -37.540 -50.122  11.671  1.00  0.00     0.000 A 
HETATM   15  C   UNL     1     -38.827 -49.600  11.545  1.00  0.00     0.001 A 
HETATM   16  C   UNL     1     -39.839 -50.015  12.413  1.00  0.00     0.007 A 
ENDBRANCH  10  11
ENDBRANCH   4  10
BRANCH   2  17
HETATM   17  C   UNL     1     -45.531 -51.379  13.592  1.00  0.00     0.302 C 
BRANCH  17  18
HETATM   18  O   UNL     1     -45.670 -51.417  15.007  1.00  0.00    -0.369 OA
BRANCH  18  19
HETATM   19  C   UNL     1     -46.676 -52.347  15.411  1.00  0.00     0.196 C 
BRANCH  19  20
HETATM   20  C   UNL     1     -46.013 -53.514  16.132  1.00  0.00     0.190 C 
BRANCH  20  21
HETATM   21  O   UNL     1     -46.033 -54.670  15.304  1.00  0.00    -0.399 OA
HETATM   22  H   UNL     1     -45.452 -54.482  14.546  1.00  0.00     0.209 HD
ENDBRANCH  20  21
ENDBRANCH  19  20
ENDBRANCH  18  19
ENDBRANCH  17  18
ENDBRANCH   2  17
TORSDOF 7
ENDMDL
