MODEL 1
REMARK VINA RESULT:      -5.9      0.000      0.000
REMARK  4 active torsions:
REMARK  status: ('A' for Active; 'I' for Inactive)
REMARK    1  A    between atoms: O_2  and  C_3 
REMARK    2  A    between atoms: C_3  and  C_4 
REMARK    3  A    between atoms: C_4  and  N_5 
REMARK    4  A    between atoms: C_6  and  N_19 
ROOT
HETATM    1  N   UNL     1     -40.738 -49.135  12.488  1.00  0.00    -0.172 N 
HETATM    2  C   UNL     1     -41.802 -50.029  12.349  1.00  0.00     0.685 C 
HETATM    3  N   UNL     1     -42.733 -49.471  11.582  1.00  0.00    -0.174 N 
ATOM      4  HN  UNL     1     -43.605 -49.901  11.273  1.00  0.00     0.186 HD
HETATM    5  C   UNL     1     -42.294 -48.202  11.284  1.00  0.00     0.160 A 
HETATM    6  N   UNL     1     -42.869 -47.254  10.456  1.00  0.00    -0.287 N 
HETATM    7  C   UNL     1     -44.104 -47.472   9.737  1.00  0.00     0.163 C 
HETATM    8  C   UNL     1     -42.216 -46.032  10.234  1.00  0.00     0.332 A 
HETATM    9  O   UNL     1     -42.687 -45.183   9.471  1.00  0.00    -0.246 OA
HETATM   10  N   UNL     1     -41.008 -45.816  10.905  1.00  0.00    -0.269 N 
HETATM   11  C   UNL     1     -40.277 -44.582  10.690  1.00  0.00     0.164 C 
HETATM   12  C   UNL     1     -40.426 -46.704  11.802  1.00  0.00     0.282 A 
HETATM   13  O   UNL     1     -39.414 -46.420  12.439  1.00  0.00    -0.265 OA
HETATM   14  C   UNL     1     -41.111 -47.946  11.900  1.00  0.00     0.164 A 
ENDROOT
BRANCH   2  15
HETATM   15  N   UNL     1     -41.808 -51.323  12.822  1.00  0.00    -0.214 N 
HETATM   16  C   UNL     1     -42.779 -51.845  13.800  1.00  0.00     0.171 C 
HETATM   17  C   UNL     1     -42.123 -52.977  14.624  1.00  0.00     0.290 C 
HETATM   18  N   UNL     1     -41.740 -54.124  13.785  1.00  0.00     0.086 N 
HETATM   19  C   UNL     1     -40.861 -53.640  12.695  1.00  0.00     0.290 C 
HETATM   20  H   UNL     1     -42.586 -54.513  13.373  1.00  0.00     0.316 HD
HETATM   21  C   UNL     1     -41.384 -52.406  11.898  1.00  0.00     0.171 C 
ENDBRANCH   2  15
BRANCH   1  22
HETATM   22  C   UNL     1     -39.385 -49.391  12.918  1.00  0.00     0.174 C 
BRANCH  22  23
HETATM   23  C   UNL     1     -38.486 -49.935  11.820  1.00  0.00     0.187 C 
BRANCH  23  24
HETATM   24  O   UNL     1     -38.035 -51.225  12.238  1.00  0.00    -0.394 OA
HETATM   25  C   UNL     1     -38.106 -51.378  13.646  1.00  0.00     0.201 C 
ENDBRANCH  23  24
ENDBRANCH  22  23
ENDBRANCH   1  22
TORSDOF 4
ENDMDL
MODEL 2
REMARK VINA RESULT:      -5.6      2.335      3.750
REMARK  4 active torsions:
REMARK  status: ('A' for Active; 'I' for Inactive)
REMARK    1  A    between atoms: O_2  and  C_3 
REMARK    2  A    between atoms: C_3  and  C_4 
REMARK    3  A    between atoms: C_4  and  N_5 
REMARK    4  A    between atoms: C_6  and  N_19 
ROOT
HETATM    1  N   UNL     1     -42.110 -51.901  13.732  1.00  0.00    -0.172 N 
HETATM    2  C   UNL     1     -43.462 -51.724  13.424  1.00  0.00     0.685 C 
HETATM    3  N   UNL     1     -43.590 -50.634  12.673  1.00  0.00    -0.174 N 
ATOM      4  HN  UNL     1     -44.452 -50.276  12.263  1.00  0.00     0.186 HD
HETATM    5  C   UNL     1     -42.335 -50.082  12.556  1.00  0.00     0.160 A 
HETATM    6  N   UNL     1     -41.932 -48.987  11.813  1.00  0.00    -0.287 N 
HETATM    7  C   UNL     1     -42.835 -48.204  10.999  1.00  0.00     0.163 C 
HETATM    8  C   UNL     1     -40.576 -48.627  11.777  1.00  0.00     0.332 A 
HETATM    9  O   UNL     1     -40.183 -47.678  11.093  1.00  0.00    -0.246 OA
HETATM   10  N   UNL     1     -39.688 -49.391  12.540  1.00  0.00    -0.269 N 
HETATM   11  C   UNL     1     -38.271 -49.080  12.518  1.00  0.00     0.164 C 
HETATM   12  C   UNL     1     -40.050 -50.453  13.359  1.00  0.00     0.282 A 
HETATM   13  O   UNL     1     -39.241 -51.025  14.086  1.00  0.00    -0.265 OA
HETATM   14  C   UNL     1     -41.427 -50.798  13.268  1.00  0.00     0.164 A 
ENDROOT
BRANCH   2  15
HETATM   15  N   UNL     1     -44.463 -52.615  13.739  1.00  0.00    -0.214 N 
HETATM   16  C   UNL     1     -45.752 -52.237  14.344  1.00  0.00     0.171 C 
HETATM   17  C   UNL     1     -46.286 -53.410  15.197  1.00  0.00     0.290 C 
HETATM   18  N   UNL     1     -46.558 -54.608  14.386  1.00  0.00     0.086 N 
HETATM   19  C   UNL     1     -45.327 -54.966  13.643  1.00  0.00     0.290 C 
HETATM   20  H   UNL     1     -47.289 -54.377  13.713  1.00  0.00     0.316 HD
HETATM   21  C   UNL     1     -44.640 -53.803  12.864  1.00  0.00     0.171 C 
ENDBRANCH   2  15
BRANCH   1  22
HETATM   22  C   UNL     1     -41.435 -53.082  14.210  1.00  0.00     0.174 C 
BRANCH  22  23
HETATM   23  C   UNL     1     -40.979 -54.018  13.102  1.00  0.00     0.187 C 
BRANCH  23  24
HETATM   24  O   UNL     1     -39.574 -54.219  13.264  1.00  0.00    -0.394 OA
HETATM   25  C   UNL     1     -39.239 -54.557  14.600  1.00  0.00     0.201 C 
ENDBRANCH  23  24
ENDBRANCH  22  23
ENDBRANCH   1  22
TORSDOF 4
ENDMDL
MODEL 3
REMARK VINA RESULT:      -5.4      2.096      6.027
REMARK  4 active torsions:
REMARK  status: ('A' for Active; 'I' for Inactive)
REMARK    1  A    between atoms: O_2  and  C_3 
REMARK    2  A    between atoms: C_3  and  C_4 
REMARK    3  A    between atoms: C_4  and  N_5 
REMARK    4  A    between atoms: C_6  and  N_19 
ROOT
HETATM    1  N   UNL     1     -40.870 -49.700  12.218  1.00  0.00    -0.172 N 
HETATM    2  C   UNL     1     -42.148 -49.203  11.947  1.00  0.00     0.685 C 
HETATM    3  N   UNL     1     -43.044 -50.135  12.257  1.00  0.00    -0.174 N 
ATOM      4  HN  UNL     1     -44.059 -50.045  12.203  1.00  0.00     0.186 HD
HETATM    5  C   UNL     1     -42.340 -51.245  12.662  1.00  0.00     0.160 A 
HETATM    6  N   UNL     1     -42.817 -52.446  13.157  1.00  0.00    -0.287 N 
HETATM    7  C   UNL     1     -44.224 -52.733  13.326  1.00  0.00     0.163 C 
HETATM    8  C   UNL     1     -41.915 -53.434  13.582  1.00  0.00     0.332 A 
HETATM    9  O   UNL     1     -42.313 -54.500  14.062  1.00  0.00    -0.246 OA
HETATM   10  N   UNL     1     -40.551 -53.161  13.446  1.00  0.00    -0.269 N 
HETATM   11  C   UNL     1     -39.575 -54.136  13.895  1.00  0.00     0.164 C 
HETATM   12  C   UNL     1     -40.021 -52.003  12.889  1.00  0.00     0.282 A 
HETATM   13  O   UNL     1     -38.815 -51.859  12.703  1.00  0.00    -0.265 OA
HETATM   14  C   UNL     1     -41.003 -51.027  12.566  1.00  0.00     0.164 A 
ENDROOT
BRANCH   2  15
HETATM   15  N   UNL     1     -42.422 -47.912  11.555  1.00  0.00    -0.214 N 
HETATM   16  C   UNL     1     -43.100 -47.551  10.297  1.00  0.00     0.171 C 
HETATM   17  C   UNL     1     -42.618 -46.158   9.833  1.00  0.00     0.290 C 
HETATM   18  N   UNL     1     -42.966 -45.100  10.795  1.00  0.00     0.086 N 
HETATM   19  C   UNL     1     -42.422 -45.470  12.122  1.00  0.00     0.290 C 
HETATM   20  H   UNL     1     -43.982 -45.053  10.861  1.00  0.00     0.316 HD
HETATM   21  C   UNL     1     -42.743 -46.916  12.610  1.00  0.00     0.171 C 
ENDBRANCH   2  15
BRANCH   1  22
HETATM   22  C   UNL     1     -39.631 -48.981  12.377  1.00  0.00     0.174 C 
BRANCH  22  23
HETATM   23  C   UNL     1     -39.421 -48.421  13.774  1.00  0.00     0.187 C 
BRANCH  23  24
HETATM   24  O   UNL     1     -38.120 -47.833  13.808  1.00  0.00    -0.394 OA
HETATM   25  C   UNL     1     -37.337 -48.345  14.875  1.00  0.00     0.201 C 
ENDBRANCH  23  24
ENDBRANCH  22  23
ENDBRANCH   1  22
TORSDOF 4
ENDMDL
MODEL 4
REMARK VINA RESULT:      -5.2      2.389      4.005
REMARK  4 active torsions:
REMARK  status: ('A' for Active; 'I' for Inactive)
REMARK    1  A    between atoms: O_2  and  C_3 
REMARK    2  A    between atoms: C_3  and  C_4 
REMARK    3  A    between atoms: C_4  and  N_5 
REMARK    4  A    between atoms: C_6  and  N_19 
ROOT
HETATM    1  N   UNL     1     -40.760 -48.197  11.409  1.00  0.00    -0.172 N 
HETATM    2  C   UNL     1     -39.769 -47.742  12.282  1.00  0.00     0.685 C 
HETATM    3  N   UNL     1     -39.892 -46.426  12.422  1.00  0.00    -0.174 N 
ATOM      4  HN  UNL     1     -39.334 -45.824  13.027  1.00  0.00     0.186 HD
HETATM    5  C   UNL     1     -40.917 -46.033  11.593  1.00  0.00     0.160 A 
HETATM    6  N   UNL     1     -41.479 -44.778  11.440  1.00  0.00    -0.287 N 
HETATM    7  C   UNL     1     -41.037 -43.614  12.174  1.00  0.00     0.163 C 
HETATM    8  C   UNL     1     -42.576 -44.603  10.581  1.00  0.00     0.332 A 
HETATM    9  O   UNL     1     -43.121 -43.503  10.453  1.00  0.00    -0.246 OA
HETATM   10  N   UNL     1     -43.030 -45.726   9.882  1.00  0.00    -0.269 N 
HETATM   11  C   UNL     1     -44.178 -45.608   9.002  1.00  0.00     0.164 C 
HETATM   12  C   UNL     1     -42.456 -46.990   9.944  1.00  0.00     0.282 A 
HETATM   13  O   UNL     1     -42.835 -47.916   9.232  1.00  0.00    -0.265 OA
HETATM   14  C   UNL     1     -41.408 -47.092  10.900  1.00  0.00     0.164 A 
ENDROOT
BRANCH   2  15
HETATM   15  N   UNL     1     -38.902 -48.555  12.978  1.00  0.00    -0.214 N 
HETATM   16  C   UNL     1     -37.871 -49.401  12.351  1.00  0.00     0.171 C 
HETATM   17  C   UNL     1     -37.612 -50.641  13.238  1.00  0.00     0.290 C 
HETATM   18  N   UNL     1     -37.083 -50.276  14.561  1.00  0.00     0.086 N 
HETATM   19  C   UNL     1     -38.016 -49.316  15.196  1.00  0.00     0.290 C 
HETATM   20  H   UNL     1     -36.183 -49.817  14.429  1.00  0.00     0.316 HD
HETATM   21  C   UNL     1     -38.444 -48.102  14.317  1.00  0.00     0.171 C 
ENDBRANCH   2  15
BRANCH   1  22
HETATM   22  C   UNL     1     -41.252 -49.538  11.212  1.00  0.00     0.174 C 
BRANCH  22  23
HETATM   23  C   UNL     1     -42.052 -50.077  12.387  1.00  0.00     0.187 C 
BRANCH  23  24
HETATM   24  O   UNL     1     -41.429 -51.292  12.806  1.00  0.00    -0.394 OA
HETATM   25  C   UNL     1     -42.085 -52.432  12.273  1.00  0.00     0.201 C 
ENDBRANCH  23  24
ENDBRANCH  22  23
ENDBRANCH   1  22
TORSDOF 4
ENDMDL
MODEL 5
REMARK VINA RESULT:      -5.0      2.336      3.034
REMARK  4 active torsions:
REMARK  status: ('A' for Active; 'I' for Inactive)
REMARK    1  A    between atoms: O_2  and  C_3 
REMARK    2  A    between atoms: C_3  and  C_4 
REMARK    3  A    between atoms: C_4  and  N_5 
REMARK    4  A    between atoms: C_6  and  N_19 
ROOT
HETATM    1  N   UNL     1     -40.412 -47.112  12.317  1.00  0.00    -0.172 N 
HETATM    2  C   UNL     1     -40.447 -48.407  11.794  1.00  0.00     0.685 C 
HETATM    3  N   UNL     1     -41.298 -48.433  10.772  1.00  0.00    -0.174 N 
ATOM      4  HN  UNL     1     -41.502 -49.231  10.170  1.00  0.00     0.186 HD
HETATM    5  C   UNL     1     -41.852 -47.177  10.684  1.00  0.00     0.160 A 
HETATM    6  N   UNL     1     -42.733 -46.678   9.741  1.00  0.00    -0.287 N 
HETATM    7  C   UNL     1     -43.240 -47.461   8.636  1.00  0.00     0.163 C 
HETATM    8  C   UNL     1     -43.126 -45.332   9.795  1.00  0.00     0.332 A 
HETATM    9  O   UNL     1     -43.881 -44.851   8.945  1.00  0.00    -0.246 OA
HETATM   10  N   UNL     1     -42.624 -44.556  10.845  1.00  0.00    -0.269 N 
HETATM   11  C   UNL     1     -42.977 -43.152  10.932  1.00  0.00     0.164 C 
HETATM   12  C   UNL     1     -41.797 -45.026  11.858  1.00  0.00     0.282 A 
HETATM   13  O   UNL     1     -41.467 -44.325  12.811  1.00  0.00    -0.265 OA
HETATM   14  C   UNL     1     -41.384 -46.375  11.675  1.00  0.00     0.164 A 
ENDROOT
BRANCH   2  15
HETATM   15  N   UNL     1     -39.628 -49.438  12.194  1.00  0.00    -0.214 N 
HETATM   16  C   UNL     1     -40.107 -50.694  12.799  1.00  0.00     0.171 C 
HETATM   17  C   UNL     1     -39.023 -51.258  13.745  1.00  0.00     0.290 C 
HETATM   18  N   UNL     1     -37.785 -51.604  13.029  1.00  0.00     0.086 N 
HETATM   19  C   UNL     1     -37.319 -50.409  12.287  1.00  0.00     0.290 C 
HETATM   20  H   UNL     1     -38.001 -52.340  12.358  1.00  0.00     0.316 HD
HETATM   21  C   UNL     1     -38.390 -49.690  11.411  1.00  0.00     0.171 C 
ENDBRANCH   2  15
BRANCH   1  22
HETATM   22  C   UNL     1     -39.425 -46.505  13.175  1.00  0.00     0.174 C 
BRANCH  22  23
HETATM   23  C   UNL     1     -39.557 -46.898  14.637  1.00  0.00     0.187 C 
BRANCH  23  24
HETATM   24  O   UNL     1     -38.476 -47.780  14.942  1.00  0.00    -0.394 OA
HETATM   25  C   UNL     1     -37.908 -47.499  16.212  1.00  0.00     0.201 C 
ENDBRANCH  23  24
ENDBRANCH  22  23
ENDBRANCH   1  22
TORSDOF 4
ENDMDL
MODEL 6
REMARK VINA RESULT:      -4.9      1.757      2.258
REMARK  4 active torsions:
REMARK  status: ('A' for Active; 'I' for Inactive)
REMARK    1  A    between atoms: O_2  and  C_3 
REMARK    2  A    between atoms: C_3  and  C_4 
REMARK    3  A    between atoms: C_4  and  N_5 
REMARK    4  A    between atoms: C_6  and  N_19 
ROOT
HETATM    1  N   UNL     1     -41.387 -48.116  12.561  1.00  0.00    -0.172 N 
HETATM    2  C   UNL     1     -42.077 -49.244  12.110  1.00  0.00     0.685 C 
HETATM    3  N   UNL     1     -42.915 -48.877  11.145  1.00  0.00    -0.174 N 
ATOM      4  HN  UNL     1     -43.520 -49.490  10.600  1.00  0.00     0.186 HD
HETATM    5  C   UNL     1     -42.807 -47.511  11.024  1.00  0.00     0.160 A 
HETATM    6  N   UNL     1     -43.414 -46.668  10.111  1.00  0.00    -0.287 N 
HETATM    7  C   UNL     1     -44.318 -47.130   9.081  1.00  0.00     0.163 C 
HETATM    8  C   UNL     1     -43.112 -45.297  10.117  1.00  0.00     0.332 A 
HETATM    9  O   UNL     1     -43.611 -44.527   9.290  1.00  0.00    -0.246 OA
HETATM   10  N   UNL     1     -42.221 -44.839  11.092  1.00  0.00    -0.269 N 
HETATM   11  C   UNL     1     -41.853 -43.436  11.126  1.00  0.00     0.164 C 
HETATM   12  C   UNL     1     -41.641 -45.630  12.076  1.00  0.00     0.282 A 
HETATM   13  O   UNL     1     -40.943 -45.156  12.969  1.00  0.00    -0.265 OA
HETATM   14  C   UNL     1     -41.937 -47.014  11.941  1.00  0.00     0.164 A 
ENDROOT
BRANCH   2  15
HETATM   15  N   UNL     1     -41.820 -50.535  12.514  1.00  0.00    -0.214 N 
HETATM   16  C   UNL     1     -40.620 -51.302  12.134  1.00  0.00     0.171 C 
HETATM   17  C   UNL     1     -40.958 -52.810  12.107  1.00  0.00     0.290 C 
HETATM   18  N   UNL     1     -41.356 -53.314  13.431  1.00  0.00     0.086 N 
HETATM   19  C   UNL     1     -42.483 -52.493  13.931  1.00  0.00     0.290 C 
HETATM   20  H   UNL     1     -40.565 -53.202  14.065  1.00  0.00     0.316 HD
HETATM   21  C   UNL     1     -42.282 -50.949  13.864  1.00  0.00     0.171 C 
ENDBRANCH   2  15
BRANCH   1  22
HETATM   22  C   UNL     1     -40.166 -48.042  13.324  1.00  0.00     0.174 C 
BRANCH  22  23
HETATM   23  C   UNL     1     -40.384 -47.970  14.826  1.00  0.00     0.187 C 
BRANCH  23  24
HETATM   24  O   UNL     1     -39.242 -47.327  15.394  1.00  0.00    -0.394 OA
HETATM   25  C   UNL     1     -38.271 -47.010  14.409  1.00  0.00     0.201 C 
ENDBRANCH  23  24
ENDBRANCH  22  23
ENDBRANCH   1  22
TORSDOF 4
ENDMDL
MODEL 7
REMARK VINA RESULT:      -4.9      2.520      6.142
REMARK  4 active torsions:
REMARK  status: ('A' for Active; 'I' for Inactive)
REMARK    1  A    between atoms: O_2  and  C_3 
REMARK    2  A    between atoms: C_3  and  C_4 
REMARK    3  A    between atoms: C_4  and  N_5 
REMARK    4  A    between atoms: C_6  and  N_19 
ROOT
HETATM    1  N   UNL     1     -41.857 -50.612  13.026  1.00  0.00    -0.172 N 
HETATM    2  C   UNL     1     -42.727 -49.621  12.564  1.00  0.00     0.685 C 
HETATM    3  N   UNL     1     -43.979 -50.024  12.761  1.00  0.00    -0.174 N 
ATOM      4  HN  UNL     1     -44.827 -49.495  12.561  1.00  0.00     0.186 HD
HETATM    5  C   UNL     1     -43.909 -51.294  13.287  1.00  0.00     0.160 A 
HETATM    6  N   UNL     1     -44.934 -52.108  13.733  1.00  0.00    -0.287 N 
HETATM    7  C   UNL     1     -46.327 -51.720  13.705  1.00  0.00     0.163 C 
HETATM    8  C   UNL     1     -44.637 -53.356  14.305  1.00  0.00     0.332 A 
HETATM    9  O   UNL     1     -45.529 -54.087  14.745  1.00  0.00    -0.246 OA
HETATM   10  N   UNL     1     -43.292 -53.734  14.361  1.00  0.00    -0.269 N 
HETATM   11  C   UNL     1     -42.927 -55.001  14.966  1.00  0.00     0.164 C 
HETATM   12  C   UNL     1     -42.233 -52.986  13.861  1.00  0.00     0.282 A 
HETATM   13  O   UNL     1     -41.081 -53.413  13.847  1.00  0.00    -0.265 OA
HETATM   14  C   UNL     1     -42.618 -51.705  13.379  1.00  0.00     0.164 A 
ENDROOT
BRANCH   2  15
HETATM   15  N   UNL     1     -42.336 -48.381  12.110  1.00  0.00    -0.214 N 
HETATM   16  C   UNL     1     -41.683 -47.357  12.945  1.00  0.00     0.171 C 
HETATM   17  C   UNL     1     -42.036 -45.951  12.408  1.00  0.00     0.290 C 
HETATM   18  N   UNL     1     -41.533 -45.737  11.042  1.00  0.00     0.086 N 
HETATM   19  C   UNL     1     -42.052 -46.817  10.171  1.00  0.00     0.290 C 
HETATM   20  H   UNL     1     -40.516 -45.796  11.064  1.00  0.00     0.316 HD
HETATM   21  C   UNL     1     -41.863 -48.270  10.705  1.00  0.00     0.171 C 
ENDBRANCH   2  15
BRANCH   1  22
HETATM   22  C   UNL     1     -40.455 -50.512  13.346  1.00  0.00     0.174 C 
BRANCH  22  23
HETATM   23  C   UNL     1     -39.536 -50.754  12.159  1.00  0.00     0.187 C 
BRANCH  23  24
HETATM   24  O   UNL     1     -38.394 -51.464  12.640  1.00  0.00    -0.394 OA
HETATM   25  C   UNL     1     -37.818 -50.832  13.773  1.00  0.00     0.201 C 
ENDBRANCH  23  24
ENDBRANCH  22  23
ENDBRANCH   1  22
TORSDOF 4
ENDMDL
MODEL 8
REMARK VINA RESULT:      -4.6      2.827      4.433
REMARK  4 active torsions:
REMARK  status: ('A' for Active; 'I' for Inactive)
REMARK    1  A    between atoms: O_2  and  C_3 
REMARK    2  A    between atoms: C_3  and  C_4 
REMARK    3  A    between atoms: C_4  and  N_5 
REMARK    4  A    between atoms: C_6  and  N_19 
ROOT
HETATM    1  N   UNL     1     -40.788 -46.773  12.216  1.00  0.00    -0.172 N 
HETATM    2  C   UNL     1     -40.460 -47.223  13.498  1.00  0.00     0.685 C 
HETATM    3  N   UNL     1     -40.953 -46.369  14.390  1.00  0.00    -0.174 N 
ATOM      4  HN  UNL     1     -40.906 -46.456  15.405  1.00  0.00     0.186 HD
HETATM    5  C   UNL     1     -41.536 -45.345  13.681  1.00  0.00     0.160 A 
HETATM    6  N   UNL     1     -42.250 -44.257  14.151  1.00  0.00    -0.287 N 
HETATM    7  C   UNL     1     -42.499 -44.017  15.554  1.00  0.00     0.163 C 
HETATM    8  C   UNL     1     -42.827 -43.355  13.243  1.00  0.00     0.332 A 
HETATM    9  O   UNL     1     -43.500 -42.396  13.633  1.00  0.00    -0.246 OA
HETATM   10  N   UNL     1     -42.614 -43.588  11.881  1.00  0.00    -0.269 N 
HETATM   11  C   UNL     1     -43.210 -42.702  10.899  1.00  0.00     0.164 C 
HETATM   12  C   UNL     1     -41.846 -44.622  11.360  1.00  0.00     0.282 A 
HETATM   13  O   UNL     1     -41.610 -44.721  10.159  1.00  0.00    -0.265 OA
HETATM   14  C   UNL     1     -41.373 -45.532  12.345  1.00  0.00     0.164 A 
ENDROOT
BRANCH   2  15
HETATM   15  N   UNL     1     -39.848 -48.424  13.776  1.00  0.00    -0.214 N 
HETATM   16  C   UNL     1     -40.544 -49.723  13.816  1.00  0.00     0.171 C 
HETATM   17  C   UNL     1     -39.823 -50.665  14.807  1.00  0.00     0.290 C 
HETATM   18  N   UNL     1     -38.443 -50.960  14.389  1.00  0.00     0.086 N 
HETATM   19  C   UNL     1     -37.721 -49.681  14.203  1.00  0.00     0.290 C 
HETATM   20  H   UNL     1     -38.480 -51.447  13.495  1.00  0.00     0.316 HD
HETATM   21  C   UNL     1     -38.445 -48.613  13.326  1.00  0.00     0.171 C 
ENDBRANCH   2  15
BRANCH   1  22
HETATM   22  C   UNL     1     -40.787 -47.499  10.971  1.00  0.00     0.174 C 
BRANCH  22  23
HETATM   23  C   UNL     1     -42.056 -48.299  10.726  1.00  0.00     0.187 C 
BRANCH  23  24
HETATM   24  O   UNL     1     -42.754 -47.674   9.647  1.00  0.00    -0.394 OA
HETATM   25  C   UNL     1     -44.109 -47.413   9.976  1.00  0.00     0.201 C 
ENDBRANCH  23  24
ENDBRANCH  22  23
ENDBRANCH   1  22
TORSDOF 4
ENDMDL
MODEL 9
REMARK VINA RESULT:      -4.6     14.941     16.558
REMARK  4 active torsions:
REMARK  status: ('A' for Active; 'I' for Inactive)
REMARK    1  A    between atoms: O_2  and  C_3 
REMARK    2  A    between atoms: C_3  and  C_4 
REMARK    3  A    between atoms: C_4  and  N_5 
REMARK    4  A    between atoms: C_6  and  N_19 
ROOT
HETATM    1  N   UNL     1     -49.420 -51.916  -1.116  1.00  0.00    -0.172 N 
HETATM    2  C   UNL     1     -50.117 -52.847  -1.890  1.00  0.00     0.685 C 
HETATM    3  N   UNL     1     -51.409 -52.533  -1.877  1.00  0.00    -0.174 N 
ATOM      4  HN  UNL     1     -52.156 -53.007  -2.384  1.00  0.00     0.186 HD
HETATM    5  C   UNL     1     -51.545 -51.444  -1.047  1.00  0.00     0.160 A 
HETATM    6  N   UNL     1     -52.677 -50.699  -0.767  1.00  0.00    -0.287 N 
HETATM    7  C   UNL     1     -53.974 -50.979  -1.340  1.00  0.00     0.163 C 
HETATM    8  C   UNL     1     -52.583 -49.572   0.064  1.00  0.00     0.332 A 
HETATM    9  O   UNL     1     -53.569 -48.867   0.302  1.00  0.00    -0.246 OA
HETATM   10  N   UNL     1     -51.329 -49.275   0.607  1.00  0.00    -0.269 N 
HETATM   11  C   UNL     1     -51.170 -48.105   1.451  1.00  0.00     0.164 C 
HETATM   12  C   UNL     1     -50.179 -50.031   0.417  1.00  0.00     0.282 A 
HETATM   13  O   UNL     1     -49.127 -49.779   0.999  1.00  0.00    -0.265 OA
HETATM   14  C   UNL     1     -50.348 -51.101  -0.504  1.00  0.00     0.164 A 
ENDROOT
BRANCH   2  15
HETATM   15  N   UNL     1     -49.531 -53.838  -2.644  1.00  0.00    -0.214 N 
HETATM   16  C   UNL     1     -48.743 -53.597  -3.866  1.00  0.00     0.171 C 
HETATM   17  C   UNL     1     -48.863 -54.816  -4.808  1.00  0.00     0.290 C 
HETATM   18  N   UNL     1     -48.308 -56.039  -4.206  1.00  0.00     0.086 N 
HETATM   19  C   UNL     1     -48.972 -56.268  -2.902  1.00  0.00     0.290 C 
HETATM   20  H   UNL     1     -47.313 -55.891  -4.044  1.00  0.00     0.316 HD
HETATM   21  C   UNL     1     -49.021 -55.042  -1.939  1.00  0.00     0.171 C 
ENDBRANCH   2  15
BRANCH   1  22
HETATM   22  C   UNL     1     -48.008 -51.625  -1.099  1.00  0.00     0.174 C 
BRANCH  22  23
HETATM   23  C   UNL     1     -47.583 -50.587  -2.125  1.00  0.00     0.187 C 
BRANCH  23  24
HETATM   24  O   UNL     1     -46.822 -49.593  -1.438  1.00  0.00    -0.394 OA
HETATM   25  C   UNL     1     -47.304 -48.284  -1.700  1.00  0.00     0.201 C 
ENDBRANCH  23  24
ENDBRANCH  22  23
ENDBRANCH   1  22
TORSDOF 4
ENDMDL
