MODEL 1
REMARK VINA RESULT:      -6.2      0.000      0.000
REMARK  6 active torsions:
REMARK  status: ('A' for Active; 'I' for Inactive)
REMARK    1  A    between atoms: C_2  and  C_5 
REMARK    2  A    between atoms: C_8  and  C_9 
REMARK    3  A    between atoms: C_9  and  C_10 
REMARK    4  A    between atoms: C_10  and  N_11 
REMARK       I    between atoms: N_11  and  C_12 
REMARK    5  A    between atoms: C_12  and  C_14 
REMARK    6  A    between atoms: C_14  and  C_15 
ROOT
HETATM    1  C   UNL     1     -40.392 -49.895  11.159  1.00  0.00     0.084 C 
ENDROOT
BRANCH   1   2
HETATM    2  C   UNL     1     -41.347 -48.756  11.011  1.00  0.00     0.052 A 
HETATM    3  S   UNL     1     -41.405 -47.517  12.198  1.00  0.00    -0.087 SA
HETATM    4  C   UNL     1     -42.632 -46.736  11.300  1.00  0.00     0.077 A 
HETATM    5  C   UNL     1     -42.939 -47.458  10.158  1.00  0.00     0.024 A 
HETATM    6  N   UNL     1     -42.187 -48.620  10.009  1.00  0.00    -0.356 N 
ATOM      7  HN  UNL     1     -42.276 -49.274   9.231  1.00  0.00     0.166 HD
BRANCH   5   8
HETATM    8  C   UNL     1     -43.983 -47.094   9.113  1.00  0.00    -0.008 C 
HETATM    9  C   UNL     1     -43.634 -47.749   7.761  1.00  0.00     0.021 C 
HETATM   10  C   UNL     1     -44.035 -45.564   8.928  1.00  0.00     0.021 C 
HETATM   11  C   UNL     1     -45.390 -47.572   9.526  1.00  0.00     0.021 C 
ENDBRANCH   5   8
ENDBRANCH   1   2
BRANCH   1  12
HETATM   12  C   UNL     1     -40.763 -50.780  12.345  1.00  0.00     0.129 C 
BRANCH  12  13
HETATM   13  N   UNL     1     -42.187 -51.066  12.373  1.00  0.00    -0.361 N 
HETATM   14  C   UNL     1     -42.687 -52.143  13.075  1.00  0.00     0.218 C 
HETATM   15  O   UNL     1     -42.003 -52.868  13.789  1.00  0.00    -0.274 OA
HETATM   16  H   UNL     1     -42.761 -50.683  11.632  1.00  0.00     0.162 HD
BRANCH  14  17
HETATM   17  C   UNL     1     -44.171 -52.363  12.879  1.00  0.00     0.111 C 
BRANCH  17  18
HETATM   18  C   UNL     1     -44.996 -51.156  13.324  1.00  0.00     0.017 C 
HETATM   19  C   UNL     1     -44.737 -50.682  14.766  1.00  0.00     0.012 C 
HETATM   20  C   UNL     1     -45.752 -51.418  15.641  1.00  0.00     0.027 C 
HETATM   21  C   UNL     1     -46.856 -51.684  14.674  1.00  0.00    -0.030 C 
HETATM   22  C   UNL     1     -46.452 -51.530  13.407  1.00  0.00    -0.026 C 
ENDBRANCH  17  18
ENDBRANCH  14  17
ENDBRANCH  12  13
ENDBRANCH   1  12
TORSDOF 6
ENDMDL
MODEL 2
REMARK VINA RESULT:      -5.9      3.642      4.831
REMARK  6 active torsions:
REMARK  status: ('A' for Active; 'I' for Inactive)
REMARK    1  A    between atoms: C_2  and  C_5 
REMARK    2  A    between atoms: C_8  and  C_9 
REMARK    3  A    between atoms: C_9  and  C_10 
REMARK    4  A    between atoms: C_10  and  N_11 
REMARK       I    between atoms: N_11  and  C_12 
REMARK    5  A    between atoms: C_12  and  C_14 
REMARK    6  A    between atoms: C_14  and  C_15 
ROOT
HETATM    1  C   UNL     1     -40.367 -54.014  14.293  1.00  0.00     0.084 C 
ENDROOT
BRANCH   1   2
HETATM    2  C   UNL     1     -39.629 -52.720  14.397  1.00  0.00     0.052 A 
HETATM    3  S   UNL     1     -38.912 -52.250  15.885  1.00  0.00    -0.087 SA
HETATM    4  C   UNL     1     -38.352 -50.815  15.145  1.00  0.00     0.077 A 
HETATM    5  C   UNL     1     -38.746 -50.763  13.817  1.00  0.00     0.024 A 
HETATM    6  N   UNL     1     -39.480 -51.870  13.405  1.00  0.00    -0.356 N 
ATOM      7  HN  UNL     1     -39.852 -52.004  12.464  1.00  0.00     0.166 HD
BRANCH   5   8
HETATM    8  C   UNL     1     -38.450 -49.642  12.831  1.00  0.00    -0.008 C 
HETATM    9  C   UNL     1     -37.494 -50.142  11.728  1.00  0.00     0.021 C 
HETATM   10  C   UNL     1     -37.792 -48.454  13.562  1.00  0.00     0.021 C 
HETATM   11  C   UNL     1     -39.736 -49.130  12.151  1.00  0.00     0.021 C 
ENDBRANCH   5   8
ENDBRANCH   1   2
BRANCH   1  12
HETATM   12  C   UNL     1     -40.961 -54.203  12.901  1.00  0.00     0.129 C 
BRANCH  12  13
HETATM   13  N   UNL     1     -42.405 -54.040  12.910  1.00  0.00    -0.361 N 
HETATM   14  C   UNL     1     -42.991 -52.832  12.590  1.00  0.00     0.218 C 
HETATM   15  O   UNL     1     -42.364 -51.856  12.191  1.00  0.00    -0.274 OA
HETATM   16  H   UNL     1     -42.952 -54.695  13.454  1.00  0.00     0.162 HD
BRANCH  14  17
HETATM   17  C   UNL     1     -44.490 -52.811  12.785  1.00  0.00     0.111 C 
BRANCH  17  18
HETATM   18  C   UNL     1     -44.999 -51.425  13.183  1.00  0.00     0.017 C 
HETATM   19  C   UNL     1     -44.575 -50.952  14.586  1.00  0.00     0.012 C 
HETATM   20  C   UNL     1     -45.690 -51.391  15.535  1.00  0.00     0.027 C 
HETATM   21  C   UNL     1     -46.868 -51.445  14.621  1.00  0.00    -0.030 C 
HETATM   22  C   UNL     1     -46.497 -51.452  13.335  1.00  0.00    -0.026 C 
ENDBRANCH  17  18
ENDBRANCH  14  17
ENDBRANCH  12  13
ENDBRANCH   1  12
TORSDOF 6
ENDMDL
MODEL 3
REMARK VINA RESULT:      -5.8      2.034      2.566
REMARK  6 active torsions:
REMARK  status: ('A' for Active; 'I' for Inactive)
REMARK    1  A    between atoms: C_2  and  C_5 
REMARK    2  A    between atoms: C_8  and  C_9 
REMARK    3  A    between atoms: C_9  and  C_10 
REMARK    4  A    between atoms: C_10  and  N_11 
REMARK       I    between atoms: N_11  and  C_12 
REMARK    5  A    between atoms: C_12  and  C_14 
REMARK    6  A    between atoms: C_14  and  C_15 
ROOT
HETATM    1  C   UNL     1     -40.317 -49.181  11.994  1.00  0.00     0.084 C 
ENDROOT
BRANCH   1   2
HETATM    2  C   UNL     1     -41.030 -48.096  11.257  1.00  0.00     0.052 A 
HETATM    3  S   UNL     1     -40.429 -46.488  11.292  1.00  0.00    -0.087 SA
HETATM    4  C   UNL     1     -41.725 -45.998  10.291  1.00  0.00     0.077 A 
HETATM    5  C   UNL     1     -42.548 -47.073   9.993  1.00  0.00     0.024 A 
HETATM    6  N   UNL     1     -42.130 -48.273  10.559  1.00  0.00    -0.356 N 
ATOM      7  HN  UNL     1     -42.610 -49.167  10.448  1.00  0.00     0.166 HD
BRANCH   5   8
HETATM    8  C   UNL     1     -43.807 -47.037   9.139  1.00  0.00    -0.008 C 
HETATM    9  C   UNL     1     -44.968 -47.737   9.874  1.00  0.00     0.021 C 
HETATM   10  C   UNL     1     -43.557 -47.757   7.798  1.00  0.00     0.021 C 
HETATM   11  C   UNL     1     -44.241 -45.590   8.829  1.00  0.00     0.021 C 
ENDBRANCH   5   8
ENDBRANCH   1   2
BRANCH   1  12
HETATM   12  C   UNL     1     -40.161 -50.429  11.130  1.00  0.00     0.129 C 
BRANCH  12  13
HETATM   13  N   UNL     1     -41.038 -51.499  11.575  1.00  0.00    -0.361 N 
HETATM   14  C   UNL     1     -40.599 -52.464  12.458  1.00  0.00     0.218 C 
HETATM   15  O   UNL     1     -39.497 -52.444  12.997  1.00  0.00    -0.274 OA
HETATM   16  H   UNL     1     -41.842 -51.721  11.002  1.00  0.00     0.162 HD
BRANCH  14  17
HETATM   17  C   UNL     1     -41.601 -53.570  12.701  1.00  0.00     0.111 C 
BRANCH  17  18
HETATM   18  C   UNL     1     -42.525 -53.262  13.879  1.00  0.00     0.017 C 
HETATM   19  C   UNL     1     -42.162 -53.972  15.197  1.00  0.00     0.012 C 
HETATM   20  C   UNL     1     -42.954 -55.279  15.205  1.00  0.00     0.027 C 
HETATM   21  C   UNL     1     -44.119 -54.938  14.338  1.00  0.00    -0.030 C 
HETATM   22  C   UNL     1     -43.895 -53.830  13.621  1.00  0.00    -0.026 C 
ENDBRANCH  17  18
ENDBRANCH  14  17
ENDBRANCH  12  13
ENDBRANCH   1  12
TORSDOF 6
ENDMDL
MODEL 4
REMARK VINA RESULT:      -5.7      3.793      5.013
REMARK  6 active torsions:
REMARK  status: ('A' for Active; 'I' for Inactive)
REMARK    1  A    between atoms: C_2  and  C_5 
REMARK    2  A    between atoms: C_8  and  C_9 
REMARK    3  A    between atoms: C_9  and  C_10 
REMARK    4  A    between atoms: C_10  and  N_11 
REMARK       I    between atoms: N_11  and  C_12 
REMARK    5  A    between atoms: C_12  and  C_14 
REMARK    6  A    between atoms: C_14  and  C_15 
ROOT
HETATM    1  C   UNL     1     -41.430 -53.561  14.508  1.00  0.00     0.084 C 
ENDROOT
BRANCH   1   2
HETATM    2  C   UNL     1     -40.901 -52.484  13.618  1.00  0.00     0.052 A 
HETATM    3  S   UNL     1     -41.767 -52.022  12.210  1.00  0.00    -0.087 SA
HETATM    4  C   UNL     1     -40.559 -50.864  11.865  1.00  0.00     0.077 A 
HETATM    5  C   UNL     1     -39.561 -50.896  12.825  1.00  0.00     0.024 A 
HETATM    6  N   UNL     1     -39.776 -51.836  13.828  1.00  0.00    -0.356 N 
ATOM      7  HN  UNL     1     -39.148 -52.000  14.616  1.00  0.00     0.166 HD
BRANCH   5   8
HETATM    8  C   UNL     1     -38.313 -50.025  12.860  1.00  0.00    -0.008 C 
HETATM    9  C   UNL     1     -38.705 -48.536  12.937  1.00  0.00     0.021 C 
HETATM   10  C   UNL     1     -37.472 -50.256  11.588  1.00  0.00     0.021 C 
HETATM   11  C   UNL     1     -37.429 -50.350  14.082  1.00  0.00     0.021 C 
ENDBRANCH   5   8
ENDBRANCH   1   2
BRANCH   1  12
HETATM   12  C   UNL     1     -42.520 -54.369  13.812  1.00  0.00     0.129 C 
BRANCH  12  13
HETATM   13  N   UNL     1     -43.814 -54.176  14.444  1.00  0.00    -0.361 N 
HETATM   14  C   UNL     1     -44.976 -54.141  13.701  1.00  0.00     0.218 C 
HETATM   15  O   UNL     1     -45.020 -54.361  12.495  1.00  0.00    -0.274 OA
HETATM   16  H   UNL     1     -43.833 -53.748  15.362  1.00  0.00     0.162 HD
BRANCH  14  17
HETATM   17  C   UNL     1     -46.207 -53.796  14.508  1.00  0.00     0.111 C 
BRANCH  17  18
HETATM   18  C   UNL     1     -46.612 -52.331  14.343  1.00  0.00     0.017 C 
HETATM   19  C   UNL     1     -45.445 -51.351  14.122  1.00  0.00     0.012 C 
HETATM   20  C   UNL     1     -45.044 -50.852  15.510  1.00  0.00     0.027 C 
HETATM   21  C   UNL     1     -46.316 -51.008  16.272  1.00  0.00    -0.030 C 
HETATM   22  C   UNL     1     -47.181 -51.805  15.633  1.00  0.00    -0.026 C 
ENDBRANCH  17  18
ENDBRANCH  14  17
ENDBRANCH  12  13
ENDBRANCH   1  12
TORSDOF 6
ENDMDL
MODEL 5
REMARK VINA RESULT:      -5.7      1.888      5.944
REMARK  6 active torsions:
REMARK  status: ('A' for Active; 'I' for Inactive)
REMARK    1  A    between atoms: C_2  and  C_5 
REMARK    2  A    between atoms: C_8  and  C_9 
REMARK    3  A    between atoms: C_9  and  C_10 
REMARK    4  A    between atoms: C_10  and  N_11 
REMARK       I    between atoms: N_11  and  C_12 
REMARK    5  A    between atoms: C_12  and  C_14 
REMARK    6  A    between atoms: C_14  and  C_15 
ROOT
HETATM    1  C   UNL     1     -41.564 -52.014  11.802  1.00  0.00     0.084 C 
ENDROOT
BRANCH   1   2
HETATM    2  C   UNL     1     -42.638 -51.886  12.832  1.00  0.00     0.052 A 
HETATM    3  S   UNL     1     -42.258 -51.344  14.415  1.00  0.00    -0.087 SA
HETATM    4  C   UNL     1     -43.905 -51.489  14.845  1.00  0.00     0.077 A 
HETATM    5  C   UNL     1     -44.653 -51.949  13.772  1.00  0.00     0.024 A 
HETATM    6  N   UNL     1     -43.904 -52.172  12.621  1.00  0.00    -0.356 N 
ATOM      7  HN  UNL     1     -44.285 -52.510  11.736  1.00  0.00     0.166 HD
BRANCH   5   8
HETATM    8  C   UNL     1     -46.151 -52.215  13.764  1.00  0.00    -0.008 C 
HETATM    9  C   UNL     1     -46.732 -51.942  12.362  1.00  0.00     0.021 C 
HETATM   10  C   UNL     1     -46.857 -51.299  14.784  1.00  0.00     0.021 C 
HETATM   11  C   UNL     1     -46.469 -53.678  14.136  1.00  0.00     0.021 C 
ENDBRANCH   5   8
ENDBRANCH   1   2
BRANCH   1  12
HETATM   12  C   UNL     1     -40.551 -50.879  11.913  1.00  0.00     0.129 C 
BRANCH  12  13
HETATM   13  N   UNL     1     -40.865 -49.791  11.004  1.00  0.00    -0.361 N 
HETATM   14  C   UNL     1     -41.086 -48.511  11.469  1.00  0.00     0.218 C 
HETATM   15  O   UNL     1     -40.945 -48.178  12.641  1.00  0.00    -0.274 OA
HETATM   16  H   UNL     1     -41.238 -50.028  10.093  1.00  0.00     0.162 HD
BRANCH  14  17
HETATM   17  C   UNL     1     -41.534 -47.541  10.398  1.00  0.00     0.111 C 
BRANCH  17  18
HETATM   18  C   UNL     1     -42.846 -46.846  10.763  1.00  0.00     0.017 C 
HETATM   19  C   UNL     1     -44.117 -47.682  10.525  1.00  0.00     0.012 C 
HETATM   20  C   UNL     1     -44.587 -47.342   9.111  1.00  0.00     0.027 C 
HETATM   21  C   UNL     1     -44.034 -45.970   8.924  1.00  0.00    -0.030 C 
HETATM   22  C   UNL     1     -43.091 -45.689   9.831  1.00  0.00    -0.026 C 
ENDBRANCH  17  18
ENDBRANCH  14  17
ENDBRANCH  12  13
ENDBRANCH   1  12
TORSDOF 6
ENDMDL
MODEL 6
REMARK VINA RESULT:      -5.5      3.587      4.879
REMARK  6 active torsions:
REMARK  status: ('A' for Active; 'I' for Inactive)
REMARK    1  A    between atoms: C_2  and  C_5 
REMARK    2  A    between atoms: C_8  and  C_9 
REMARK    3  A    between atoms: C_9  and  C_10 
REMARK    4  A    between atoms: C_10  and  N_11 
REMARK       I    between atoms: N_11  and  C_12 
REMARK    5  A    between atoms: C_12  and  C_14 
REMARK    6  A    between atoms: C_14  and  C_15 
ROOT
HETATM    1  C   UNL     1     -41.783 -53.396  13.006  1.00  0.00     0.084 C 
ENDROOT
BRANCH   1   2
HETATM    2  C   UNL     1     -40.541 -52.593  13.219  1.00  0.00     0.052 A 
HETATM    3  S   UNL     1     -39.374 -53.095  14.374  1.00  0.00    -0.087 SA
HETATM    4  C   UNL     1     -38.415 -51.739  13.971  1.00  0.00     0.077 A 
HETATM    5  C   UNL     1     -39.033 -50.975  12.994  1.00  0.00     0.024 A 
HETATM    6  N   UNL     1     -40.257 -51.483  12.573  1.00  0.00    -0.356 N 
ATOM      7  HN  UNL     1     -40.852 -51.055  11.863  1.00  0.00     0.166 HD
BRANCH   5   8
HETATM    8  C   UNL     1     -38.498 -49.688  12.383  1.00  0.00    -0.008 C 
HETATM    9  C   UNL     1     -37.847 -48.811  13.471  1.00  0.00     0.021 C 
HETATM   10  C   UNL     1     -39.648 -48.898  11.725  1.00  0.00     0.021 C 
HETATM   11  C   UNL     1     -37.436 -49.973  11.301  1.00  0.00     0.021 C 
ENDBRANCH   5   8
ENDBRANCH   1   2
BRANCH   1  12
HETATM   12  C   UNL     1     -42.778 -52.654  12.120  1.00  0.00     0.129 C 
BRANCH  12  13
HETATM   13  N   UNL     1     -43.799 -51.985  12.908  1.00  0.00    -0.361 N 
HETATM   14  C   UNL     1     -45.110 -52.415  12.895  1.00  0.00     0.218 C 
HETATM   15  O   UNL     1     -45.491 -53.424  12.311  1.00  0.00    -0.274 OA
HETATM   16  H   UNL     1     -43.623 -51.031  13.200  1.00  0.00     0.162 HD
BRANCH  14  17
HETATM   17  C   UNL     1     -46.054 -51.518  13.665  1.00  0.00     0.111 C 
BRANCH  17  18
HETATM   18  C   UNL     1     -46.654 -52.223  14.882  1.00  0.00     0.017 C 
HETATM   19  C   UNL     1     -47.393 -51.303  15.871  1.00  0.00     0.012 C 
HETATM   20  C   UNL     1     -46.354 -50.878  16.908  1.00  0.00     0.027 C 
HETATM   21  C   UNL     1     -45.387 -52.012  16.859  1.00  0.00    -0.030 C 
HETATM   22  C   UNL     1     -45.555 -52.758  15.761  1.00  0.00    -0.026 C 
ENDBRANCH  17  18
ENDBRANCH  14  17
ENDBRANCH  12  13
ENDBRANCH   1  12
TORSDOF 6
ENDMDL
MODEL 7
REMARK VINA RESULT:      -5.5      2.239      2.731
REMARK  6 active torsions:
REMARK  status: ('A' for Active; 'I' for Inactive)
REMARK    1  A    between atoms: C_2  and  C_5 
REMARK    2  A    between atoms: C_8  and  C_9 
REMARK    3  A    between atoms: C_9  and  C_10 
REMARK    4  A    between atoms: C_10  and  N_11 
REMARK       I    between atoms: N_11  and  C_12 
REMARK    5  A    between atoms: C_12  and  C_14 
REMARK    6  A    between atoms: C_14  and  C_15 
ROOT
HETATM    1  C   UNL     1     -40.406 -50.054  10.997  1.00  0.00     0.084 C 
ENDROOT
BRANCH   1   2
HETATM    2  C   UNL     1     -40.137 -48.716  11.605  1.00  0.00     0.052 A 
HETATM    3  S   UNL     1     -39.451 -48.602  13.175  1.00  0.00    -0.087 SA
HETATM    4  C   UNL     1     -39.494 -46.898  13.053  1.00  0.00     0.077 A 
HETATM    5  C   UNL     1     -40.033 -46.507  11.838  1.00  0.00     0.024 A 
HETATM    6  N   UNL     1     -40.398 -47.569  11.017  1.00  0.00    -0.356 N 
ATOM      7  HN  UNL     1     -40.810 -47.472  10.089  1.00  0.00     0.166 HD
BRANCH   5   8
HETATM    8  C   UNL     1     -40.246 -45.077  11.363  1.00  0.00    -0.008 C 
HETATM    9  C   UNL     1     -39.492 -44.838  10.039  1.00  0.00     0.021 C 
HETATM   10  C   UNL     1     -39.724 -44.084  12.422  1.00  0.00     0.021 C 
HETATM   11  C   UNL     1     -41.740 -44.775  11.123  1.00  0.00     0.021 C 
ENDBRANCH   5   8
ENDBRANCH   1   2
BRANCH   1  12
HETATM   12  C   UNL     1     -40.760 -51.086  12.063  1.00  0.00     0.129 C 
BRANCH  12  13
HETATM   13  N   UNL     1     -42.194 -51.299  12.144  1.00  0.00    -0.361 N 
HETATM   14  C   UNL     1     -42.731 -52.245  12.994  1.00  0.00     0.218 C 
HETATM   15  O   UNL     1     -42.068 -52.896  13.795  1.00  0.00    -0.274 OA
HETATM   16  H   UNL     1     -42.764 -50.996  11.363  1.00  0.00     0.162 HD
BRANCH  14  17
HETATM   17  C   UNL     1     -44.226 -52.421  12.845  1.00  0.00     0.111 C 
BRANCH  17  18
HETATM   18  C   UNL     1     -44.999 -51.178  13.285  1.00  0.00     0.017 C 
HETATM   19  C   UNL     1     -44.693 -50.689  14.713  1.00  0.00     0.012 C 
HETATM   20  C   UNL     1     -45.715 -51.373  15.621  1.00  0.00     0.027 C 
HETATM   21  C   UNL     1     -46.847 -51.616  14.681  1.00  0.00    -0.030 C 
HETATM   22  C   UNL     1     -46.465 -51.498  13.404  1.00  0.00    -0.026 C 
ENDBRANCH  17  18
ENDBRANCH  14  17
ENDBRANCH  12  13
ENDBRANCH   1  12
TORSDOF 6
ENDMDL
MODEL 8
REMARK VINA RESULT:      -5.2      2.617      3.399
REMARK  6 active torsions:
REMARK  status: ('A' for Active; 'I' for Inactive)
REMARK    1  A    between atoms: C_2  and  C_5 
REMARK    2  A    between atoms: C_8  and  C_9 
REMARK    3  A    between atoms: C_9  and  C_10 
REMARK    4  A    between atoms: C_10  and  N_11 
REMARK       I    between atoms: N_11  and  C_12 
REMARK    5  A    between atoms: C_12  and  C_14 
REMARK    6  A    between atoms: C_14  and  C_15 
ROOT
HETATM    1  C   UNL     1     -40.204 -52.898  13.911  1.00  0.00     0.084 C 
ENDROOT
BRANCH   1   2
HETATM    2  C   UNL     1     -39.974 -51.524  13.374  1.00  0.00     0.052 A 
HETATM    3  S   UNL     1     -38.403 -51.040  12.881  1.00  0.00    -0.087 SA
HETATM    4  C   UNL     1     -39.025 -49.506  12.455  1.00  0.00     0.077 A 
HETATM    5  C   UNL     1     -40.384 -49.439  12.717  1.00  0.00     0.024 A 
HETATM    6  N   UNL     1     -40.913 -50.612  13.246  1.00  0.00    -0.356 N 
ATOM      7  HN  UNL     1     -41.892 -50.746  13.501  1.00  0.00     0.166 HD
BRANCH   5   8
HETATM    8  C   UNL     1     -41.291 -48.239  12.483  1.00  0.00    -0.008 C 
HETATM    9  C   UNL     1     -42.688 -48.708  12.029  1.00  0.00     0.021 C 
HETATM   10  C   UNL     1     -40.690 -47.327  11.394  1.00  0.00     0.021 C 
HETATM   11  C   UNL     1     -41.463 -47.399  13.766  1.00  0.00     0.021 C 
ENDBRANCH   5   8
ENDBRANCH   1   2
BRANCH   1  12
HETATM   12  C   UNL     1     -40.815 -53.812  12.853  1.00  0.00     0.129 C 
BRANCH  12  13
HETATM   13  N   UNL     1     -42.206 -53.479  12.599  1.00  0.00    -0.361 N 
HETATM   14  C   UNL     1     -43.218 -53.963  13.403  1.00  0.00     0.218 C 
HETATM   15  O   UNL     1     -43.023 -54.616  14.423  1.00  0.00    -0.274 OA
HETATM   16  H   UNL     1     -42.457 -53.171  11.667  1.00  0.00     0.162 HD
BRANCH  14  17
HETATM   17  C   UNL     1     -44.606 -53.624  12.908  1.00  0.00     0.111 C 
BRANCH  17  18
HETATM   18  C   UNL     1     -44.858 -52.117  12.885  1.00  0.00     0.017 C 
HETATM   19  C   UNL     1     -44.455 -51.367  14.168  1.00  0.00     0.012 C 
HETATM   20  C   UNL     1     -45.703 -51.337  15.049  1.00  0.00     0.027 C 
HETATM   21  C   UNL     1     -46.796 -51.430  14.039  1.00  0.00    -0.030 C 
HETATM   22  C   UNL     1     -46.338 -51.843  12.851  1.00  0.00    -0.026 C 
ENDBRANCH  17  18
ENDBRANCH  14  17
ENDBRANCH  12  13
ENDBRANCH   1  12
TORSDOF 6
ENDMDL
MODEL 9
REMARK VINA RESULT:      -5.2      3.165      6.573
REMARK  6 active torsions:
REMARK  status: ('A' for Active; 'I' for Inactive)
REMARK    1  A    between atoms: C_2  and  C_5 
REMARK    2  A    between atoms: C_8  and  C_9 
REMARK    3  A    between atoms: C_9  and  C_10 
REMARK    4  A    between atoms: C_10  and  N_11 
REMARK       I    between atoms: N_11  and  C_12 
REMARK    5  A    between atoms: C_12  and  C_14 
REMARK    6  A    between atoms: C_14  and  C_15 
ROOT
HETATM    1  C   UNL     1     -41.439 -52.010  11.813  1.00  0.00     0.084 C 
ENDROOT
BRANCH   1   2
HETATM    2  C   UNL     1     -42.520 -52.486  12.727  1.00  0.00     0.052 A 
HETATM    3  S   UNL     1     -42.235 -53.804  13.790  1.00  0.00    -0.087 SA
HETATM    4  C   UNL     1     -43.833 -53.655  14.378  1.00  0.00     0.077 A 
HETATM    5  C   UNL     1     -44.499 -52.625  13.734  1.00  0.00     0.024 A 
HETATM    6  N   UNL     1     -43.725 -51.963  12.785  1.00  0.00    -0.356 N 
ATOM      7  HN  UNL     1     -44.048 -51.181  12.215  1.00  0.00     0.166 HD
BRANCH   5   8
HETATM    8  C   UNL     1     -45.937 -52.190  13.973  1.00  0.00    -0.008 C 
HETATM    9  C   UNL     1     -46.537 -51.601  12.681  1.00  0.00     0.021 C 
HETATM   10  C   UNL     1     -45.988 -51.119  15.082  1.00  0.00     0.021 C 
HETATM   11  C   UNL     1     -46.822 -53.375  14.414  1.00  0.00     0.021 C 
ENDBRANCH   5   8
ENDBRANCH   1   2
BRANCH   1  12
HETATM   12  C   UNL     1     -40.143 -51.751  12.574  1.00  0.00     0.129 C 
BRANCH  12  13
HETATM   13  N   UNL     1     -39.985 -50.343  12.896  1.00  0.00    -0.361 N 
HETATM   14  C   UNL     1     -38.975 -49.589  12.336  1.00  0.00     0.218 C 
HETATM   15  O   UNL     1     -38.210 -50.008  11.473  1.00  0.00    -0.274 OA
HETATM   16  H   UNL     1     -40.398 -50.005  13.757  1.00  0.00     0.162 HD
BRANCH  14  17
HETATM   17  C   UNL     1     -38.881 -48.185  12.890  1.00  0.00     0.111 C 
BRANCH  17  18
HETATM   18  C   UNL     1     -40.167 -47.389  12.663  1.00  0.00     0.017 C 
HETATM   19  C   UNL     1     -40.567 -47.201  11.188  1.00  0.00     0.012 C 
HETATM   20  C   UNL     1     -39.936 -45.882  10.744  1.00  0.00     0.027 C 
HETATM   21  C   UNL     1     -39.830 -45.142  12.035  1.00  0.00    -0.030 C 
HETATM   22  C   UNL     1     -39.969 -45.959  13.086  1.00  0.00    -0.026 C 
ENDBRANCH  17  18
ENDBRANCH  14  17
ENDBRANCH  12  13
ENDBRANCH   1  12
TORSDOF 6
ENDMDL
