MODEL 1
REMARK VINA RESULT:      -6.4      0.000      0.000
REMARK  2 active torsions:
REMARK  status: ('A' for Active; 'I' for Inactive)
REMARK       I    between atoms: C_2  and  N_3 
REMARK       I    between atoms: C_2  and  N_13 
REMARK    1  A    between atoms: N_3  and  C_4 
REMARK    2  A    between atoms: N_13  and  C_14 
ROOT
HETATM    1  O   UNL     1     -40.721 -52.918  11.845  1.00  0.00    -0.247 OA
HETATM    2  C   UNL     1     -41.054 -51.738  11.902  1.00  0.00     0.322 C 
HETATM    3  N   UNL     1     -42.048 -51.265  12.696  1.00  0.00    -0.336 N 
HETATM    4  N   UNL     1     -40.386 -50.827  11.140  1.00  0.00    -0.295 N 
HETATM    5  H   UNL     1     -42.232 -50.267  12.611  1.00  0.00     0.164 HD
HETATM    6  H   UNL     1     -39.650 -51.245  10.591  1.00  0.00     0.172 HD
ENDROOT
BRANCH   3   7
HETATM    7  C   UNL     1     -42.794 -52.035  13.673  1.00  0.00     0.121 C 
HETATM    8  C   UNL     1     -42.161 -52.016  15.071  1.00  0.00     0.057 C 
HETATM    9  C   UNL     1     -43.255 -51.495  16.000  1.00  0.00     0.275 C 
HETATM   10  N   UNL     1     -44.489 -51.866  15.308  1.00  0.00     0.095 N 
HETATM   11  C   UNL     1     -45.677 -51.154  15.774  1.00  0.00     0.273 C 
HETATM   12  C   UNL     1     -44.223 -51.524  13.900  1.00  0.00     0.245 C 
HETATM   13  C   UNL     1     -46.895 -51.591  14.945  1.00  0.00     0.030 C 
HETATM   14  C   UNL     1     -46.655 -51.505  13.431  1.00  0.00     0.004 C 
HETATM   15  C   UNL     1     -45.316 -52.138  13.033  1.00  0.00     0.038 C 
ENDBRANCH   3   7
BRANCH   4  16
HETATM   16  C   UNL     1     -40.525 -49.437  11.113  1.00  0.00     0.108 A 
HETATM   17  C   UNL     1     -39.678 -48.687  11.918  1.00  0.00     0.049 A 
HETATM   18  C   UNL     1     -39.832 -47.302  11.952  1.00  0.00     0.005 A 
HETATM   19  C   UNL     1     -40.817 -46.708  11.175  1.00  0.00     0.017 A 
HETATM   20  C   UNL     1     -41.604 -47.524  10.387  1.00  0.00     0.089 A 
HETATM   21  N   UNL     1     -41.479 -48.868  10.342  1.00  0.00    -0.352 N 
ATOM     22  HN  UNL     1     -42.084 -49.434   9.746  1.00  0.00     0.166 HD
ENDBRANCH   4  16
TORSDOF 2
ENDMDL
MODEL 2
REMARK VINA RESULT:      -6.2      1.476      1.999
REMARK  2 active torsions:
REMARK  status: ('A' for Active; 'I' for Inactive)
REMARK       I    between atoms: C_2  and  N_3 
REMARK       I    between atoms: C_2  and  N_13 
REMARK    1  A    between atoms: N_3  and  C_4 
REMARK    2  A    between atoms: N_13  and  C_14 
ROOT
HETATM    1  O   UNL     1     -40.323 -50.673  11.782  1.00  0.00    -0.247 OA
HETATM    2  C   UNL     1     -41.265 -49.943  11.487  1.00  0.00     0.322 C 
HETATM    3  N   UNL     1     -42.490 -50.010  12.067  1.00  0.00    -0.336 N 
HETATM    4  N   UNL     1     -41.085 -48.988  10.531  1.00  0.00    -0.295 N 
HETATM    5  H   UNL     1     -43.181 -49.361  11.694  1.00  0.00     0.164 HD
HETATM    6  H   UNL     1     -40.147 -48.983  10.159  1.00  0.00     0.172 HD
ENDROOT
BRANCH   3   7
HETATM    7  C   UNL     1     -42.856 -50.860  13.185  1.00  0.00     0.121 C 
HETATM    8  C   UNL     1     -42.166 -50.463  14.497  1.00  0.00     0.057 C 
HETATM    9  C   UNL     1     -43.301 -50.224  15.491  1.00  0.00     0.275 C 
HETATM   10  N   UNL     1     -44.382 -51.063  14.975  1.00  0.00     0.095 N 
HETATM   11  C   UNL     1     -45.704 -50.732  15.503  1.00  0.00     0.273 C 
HETATM   12  C   UNL     1     -44.353 -50.826  13.521  1.00  0.00     0.245 C 
HETATM   13  C   UNL     1     -46.757 -51.644  14.856  1.00  0.00     0.030 C 
HETATM   14  C   UNL     1     -46.674 -51.668  13.323  1.00  0.00     0.004 C 
HETATM   15  C   UNL     1     -45.232 -51.866  12.838  1.00  0.00     0.038 C 
ENDBRANCH   3   7
BRANCH   4  16
HETATM   16  C   UNL     1     -41.973 -47.997  10.107  1.00  0.00     0.108 A 
HETATM   17  C   UNL     1     -42.060 -46.837  10.867  1.00  0.00     0.049 A 
HETATM   18  C   UNL     1     -42.977 -45.856  10.496  1.00  0.00     0.005 A 
HETATM   19  C   UNL     1     -43.770 -46.055   9.374  1.00  0.00     0.017 A 
HETATM   20  C   UNL     1     -43.607 -47.226   8.661  1.00  0.00     0.089 A 
HETATM   21  N   UNL     1     -42.731 -48.195   9.004  1.00  0.00    -0.352 N 
ATOM     22  HN  UNL     1     -42.643 -49.047   8.450  1.00  0.00     0.166 HD
ENDBRANCH   4  16
TORSDOF 2
ENDMDL
MODEL 3
REMARK VINA RESULT:      -6.1      1.828      6.529
REMARK  2 active torsions:
REMARK  status: ('A' for Active; 'I' for Inactive)
REMARK       I    between atoms: C_2  and  N_3 
REMARK       I    between atoms: C_2  and  N_13 
REMARK    1  A    between atoms: N_3  and  C_4 
REMARK    2  A    between atoms: N_13  and  C_14 
ROOT
HETATM    1  O   UNL     1     -39.871 -50.088  11.574  1.00  0.00    -0.247 OA
HETATM    2  C   UNL     1     -41.083 -50.195  11.736  1.00  0.00     0.322 C 
HETATM    3  N   UNL     1     -41.996 -49.309  11.261  1.00  0.00    -0.336 N 
HETATM    4  N   UNL     1     -41.565 -51.271  12.419  1.00  0.00    -0.295 N 
HETATM    5  H   UNL     1     -42.964 -49.513  11.503  1.00  0.00     0.164 HD
HETATM    6  H   UNL     1     -40.834 -51.896  12.725  1.00  0.00     0.172 HD
ENDROOT
BRANCH   3   7
HETATM    7  C   UNL     1     -41.711 -48.172  10.406  1.00  0.00     0.121 C 
HETATM    8  C   UNL     1     -42.896 -47.771   9.518  1.00  0.00     0.057 C 
HETATM    9  C   UNL     1     -43.158 -46.300   9.838  1.00  0.00     0.275 C 
HETATM   10  N   UNL     1     -41.854 -45.819  10.293  1.00  0.00     0.095 N 
HETATM   11  C   UNL     1     -41.903 -44.556  11.028  1.00  0.00     0.273 C 
HETATM   12  C   UNL     1     -41.367 -46.891  11.177  1.00  0.00     0.245 C 
HETATM   13  C   UNL     1     -40.488 -44.178  11.492  1.00  0.00     0.030 C 
HETATM   14  C   UNL     1     -39.772 -45.317  12.232  1.00  0.00     0.004 C 
HETATM   15  C   UNL     1     -39.893 -46.646  11.477  1.00  0.00     0.038 C 
ENDBRANCH   3   7
BRANCH   4  16
HETATM   16  C   UNL     1     -42.893 -51.645  12.640  1.00  0.00     0.108 A 
HETATM   17  C   UNL     1     -43.679 -50.807  13.422  1.00  0.00     0.049 A 
HETATM   18  C   UNL     1     -44.991 -51.184  13.704  1.00  0.00     0.005 A 
HETATM   19  C   UNL     1     -45.482 -52.377  13.189  1.00  0.00     0.017 A 
HETATM   20  C   UNL     1     -44.642 -53.141  12.404  1.00  0.00     0.089 A 
HETATM   21  N   UNL     1     -43.365 -52.801  12.123  1.00  0.00    -0.352 N 
ATOM     22  HN  UNL     1     -42.777 -53.397  11.540  1.00  0.00     0.166 HD
ENDBRANCH   4  16
TORSDOF 2
ENDMDL
MODEL 4
REMARK VINA RESULT:      -6.0      1.811      6.147
REMARK  2 active torsions:
REMARK  status: ('A' for Active; 'I' for Inactive)
REMARK       I    between atoms: C_2  and  N_3 
REMARK       I    between atoms: C_2  and  N_13 
REMARK    1  A    between atoms: N_3  and  C_4 
REMARK    2  A    between atoms: N_13  and  C_14 
ROOT
HETATM    1  O   UNL     1     -40.902 -53.059  11.743  1.00  0.00    -0.247 OA
HETATM    2  C   UNL     1     -41.876 -52.405  12.105  1.00  0.00     0.322 C 
HETATM    3  N   UNL     1     -41.913 -51.049  12.137  1.00  0.00    -0.336 N 
HETATM    4  N   UNL     1     -43.006 -53.063  12.488  1.00  0.00    -0.295 N 
HETATM    5  H   UNL     1     -42.779 -50.648  12.493  1.00  0.00     0.164 HD
HETATM    6  H   UNL     1     -42.913 -54.066  12.421  1.00  0.00     0.172 HD
ENDROOT
BRANCH   3   7
HETATM    7  C   UNL     1     -40.873 -50.159  11.655  1.00  0.00     0.121 C 
HETATM    8  C   UNL     1     -41.422 -48.857  11.055  1.00  0.00     0.057 C 
HETATM    9  C   UNL     1     -40.745 -47.736  11.840  1.00  0.00     0.275 C 
HETATM   10  N   UNL     1     -39.498 -48.350  12.295  1.00  0.00     0.095 N 
HETATM   11  C   UNL     1     -38.840 -47.636  13.387  1.00  0.00     0.273 C 
HETATM   12  C   UNL     1     -39.906 -49.689  12.750  1.00  0.00     0.245 C 
HETATM   13  C   UNL     1     -37.573 -48.397  13.808  1.00  0.00     0.030 C 
HETATM   14  C   UNL     1     -37.828 -49.885  14.084  1.00  0.00     0.004 C 
HETATM   15  C   UNL     1     -38.657 -50.534  12.969  1.00  0.00     0.038 C 
ENDBRANCH   3   7
BRANCH   4  16
HETATM   16  C   UNL     1     -44.249 -52.534  12.843  1.00  0.00     0.108 A 
HETATM   17  C   UNL     1     -44.401 -52.050  14.136  1.00  0.00     0.049 A 
HETATM   18  C   UNL     1     -45.647 -51.567  14.533  1.00  0.00     0.005 A 
HETATM   19  C   UNL     1     -46.698 -51.572  13.626  1.00  0.00     0.017 A 
HETATM   20  C   UNL     1     -46.459 -52.051  12.354  1.00  0.00     0.089 A 
HETATM   21  N   UNL     1     -45.263 -52.531  11.948  1.00  0.00    -0.352 N 
ATOM     22  HN  UNL     1     -45.129 -52.878  10.998  1.00  0.00     0.166 HD
ENDBRANCH   4  16
TORSDOF 2
ENDMDL
MODEL 5
REMARK VINA RESULT:      -5.9      2.910      4.679
REMARK  2 active torsions:
REMARK  status: ('A' for Active; 'I' for Inactive)
REMARK       I    between atoms: C_2  and  N_3 
REMARK       I    between atoms: C_2  and  N_13 
REMARK    1  A    between atoms: N_3  and  C_4 
REMARK    2  A    between atoms: N_13  and  C_14 
ROOT
HETATM    1  O   UNL     1     -42.811 -47.201  13.291  1.00  0.00    -0.247 OA
HETATM    2  C   UNL     1     -43.140 -47.750  12.243  1.00  0.00     0.322 C 
HETATM    3  N   UNL     1     -43.298 -49.091  12.103  1.00  0.00    -0.336 N 
HETATM    4  N   UNL     1     -43.380 -46.982  11.144  1.00  0.00    -0.295 N 
HETATM    5  H   UNL     1     -43.541 -49.403  11.165  1.00  0.00     0.164 HD
HETATM    6  H   UNL     1     -43.262 -45.996  11.325  1.00  0.00     0.172 HD
ENDROOT
BRANCH   3   7
HETATM    7  C   UNL     1     -43.218 -50.072  13.170  1.00  0.00     0.121 C 
HETATM    8  C   UNL     1     -44.512 -50.877  13.350  1.00  0.00     0.057 C 
HETATM    9  C   UNL     1     -44.096 -52.341  13.213  1.00  0.00     0.275 C 
HETATM   10  N   UNL     1     -42.690 -52.329  13.616  1.00  0.00     0.095 N 
HETATM   11  C   UNL     1     -41.940 -53.516  13.211  1.00  0.00     0.273 C 
HETATM   12  C   UNL     1     -42.139 -51.139  12.946  1.00  0.00     0.245 C 
HETATM   13  C   UNL     1     -40.474 -53.369  13.646  1.00  0.00     0.030 C 
HETATM   14  C   UNL     1     -39.846 -52.039  13.205  1.00  0.00     0.004 C 
HETATM   15  C   UNL     1     -40.758 -50.849  13.523  1.00  0.00     0.038 C 
ENDBRANCH   3   7
BRANCH   4  16
HETATM   16  C   UNL     1     -43.851 -47.374   9.888  1.00  0.00     0.108 A 
HETATM   17  C   UNL     1     -45.217 -47.587   9.747  1.00  0.00     0.049 A 
HETATM   18  C   UNL     1     -45.706 -48.031   8.519  1.00  0.00     0.005 A 
HETATM   19  C   UNL     1     -44.822 -48.238   7.469  1.00  0.00     0.017 A 
HETATM   20  C   UNL     1     -43.482 -47.983   7.686  1.00  0.00     0.089 A 
HETATM   21  N   UNL     1     -42.983 -47.559   8.868  1.00  0.00    -0.352 N 
ATOM     22  HN  UNL     1     -41.985 -47.384   8.986  1.00  0.00     0.166 HD
ENDBRANCH   4  16
TORSDOF 2
ENDMDL
MODEL 6
REMARK VINA RESULT:      -5.8      2.234      3.082
REMARK  2 active torsions:
REMARK  status: ('A' for Active; 'I' for Inactive)
REMARK       I    between atoms: C_2  and  N_3 
REMARK       I    between atoms: C_2  and  N_13 
REMARK    1  A    between atoms: N_3  and  C_4 
REMARK    2  A    between atoms: N_13  and  C_14 
ROOT
HETATM    1  O   UNL     1     -44.621 -54.197  12.264  1.00  0.00    -0.247 OA
HETATM    2  C   UNL     1     -43.829 -53.358  12.684  1.00  0.00     0.322 C 
HETATM    3  N   UNL     1     -43.765 -52.952  13.978  1.00  0.00    -0.336 N 
HETATM    4  N   UNL     1     -42.941 -52.797  11.816  1.00  0.00    -0.295 N 
HETATM    5  H   UNL     1     -43.079 -52.224  14.170  1.00  0.00     0.164 HD
HETATM    6  H   UNL     1     -43.032 -53.159  10.879  1.00  0.00     0.172 HD
ENDROOT
BRANCH   3   7
HETATM    7  C   UNL     1     -44.526 -53.508  15.081  1.00  0.00     0.121 C 
HETATM    8  C   UNL     1     -43.643 -54.053  16.211  1.00  0.00     0.057 C 
HETATM    9  C   UNL     1     -44.098 -53.315  17.469  1.00  0.00     0.275 C 
HETATM   10  N   UNL     1     -45.486 -52.965  17.168  1.00  0.00     0.095 N 
HETATM   11  C   UNL     1     -46.042 -51.923  18.029  1.00  0.00     0.273 C 
HETATM   12  C   UNL     1     -45.439 -52.489  15.776  1.00  0.00     0.245 C 
HETATM   13  C   UNL     1     -47.481 -51.609  17.590  1.00  0.00     0.030 C 
HETATM   14  C   UNL     1     -47.603 -51.325  16.087  1.00  0.00     0.004 C 
HETATM   15  C   UNL     1     -46.865 -52.376  15.249  1.00  0.00     0.038 C 
ENDBRANCH   3   7
BRANCH   4  16
HETATM   16  C   UNL     1     -41.900 -51.905  12.084  1.00  0.00     0.108 A 
HETATM   17  C   UNL     1     -40.713 -52.427  12.585  1.00  0.00     0.049 A 
HETATM   18  C   UNL     1     -39.678 -51.553  12.912  1.00  0.00     0.005 A 
HETATM   19  C   UNL     1     -39.852 -50.189  12.720  1.00  0.00     0.017 A 
HETATM   20  C   UNL     1     -41.055 -49.754  12.198  1.00  0.00     0.089 A 
HETATM   21  N   UNL     1     -42.075 -50.580  11.880  1.00  0.00    -0.352 N 
ATOM     22  HN  UNL     1     -42.949 -50.216  11.498  1.00  0.00     0.166 HD
ENDBRANCH   4  16
TORSDOF 2
ENDMDL
MODEL 7
REMARK VINA RESULT:      -5.8      3.795      5.656
REMARK  2 active torsions:
REMARK  status: ('A' for Active; 'I' for Inactive)
REMARK       I    between atoms: C_2  and  N_3 
REMARK       I    between atoms: C_2  and  N_13 
REMARK    1  A    between atoms: N_3  and  C_4 
REMARK    2  A    between atoms: N_13  and  C_14 
ROOT
HETATM    1  O   UNL     1     -41.158 -46.672  10.443  1.00  0.00    -0.247 OA
HETATM    2  C   UNL     1     -42.088 -47.395  10.098  1.00  0.00     0.322 C 
HETATM    3  N   UNL     1     -42.312 -48.637  10.599  1.00  0.00    -0.336 N 
HETATM    4  N   UNL     1     -42.971 -46.935   9.168  1.00  0.00    -0.295 N 
HETATM    5  H   UNL     1     -43.104 -49.131  10.192  1.00  0.00     0.164 HD
HETATM    6  H   UNL     1     -42.755 -46.000   8.856  1.00  0.00     0.172 HD
ENDROOT
BRANCH   3   7
HETATM    7  C   UNL     1     -41.575 -49.263  11.680  1.00  0.00     0.121 C 
HETATM    8  C   UNL     1     -40.188 -49.765  11.255  1.00  0.00     0.057 C 
HETATM    9  C   UNL     1     -39.205 -49.082  12.203  1.00  0.00     0.275 C 
HETATM   10  N   UNL     1     -40.013 -48.823  13.395  1.00  0.00     0.095 N 
HETATM   11  C   UNL     1     -39.438 -47.837  14.308  1.00  0.00     0.273 C 
HETATM   12  C   UNL     1     -41.289 -48.321  12.857  1.00  0.00     0.245 C 
HETATM   13  C   UNL     1     -40.394 -47.615  15.491  1.00  0.00     0.030 C 
HETATM   14  C   UNL     1     -41.834 -47.314  15.054  1.00  0.00     0.004 C 
HETATM   15  C   UNL     1     -42.318 -48.297  13.981  1.00  0.00     0.038 C 
ENDBRANCH   3   7
BRANCH   4  16
HETATM   16  C   UNL     1     -44.143 -47.536   8.701  1.00  0.00     0.108 A 
HETATM   17  C   UNL     1     -45.263 -47.495   9.523  1.00  0.00     0.049 A 
HETATM   18  C   UNL     1     -46.429 -48.135   9.104  1.00  0.00     0.005 A 
HETATM   19  C   UNL     1     -46.446 -48.784   7.877  1.00  0.00     0.017 A 
HETATM   20  C   UNL     1     -45.297 -48.760   7.112  1.00  0.00     0.089 A 
HETATM   21  N   UNL     1     -44.153 -48.154   7.498  1.00  0.00    -0.352 N 
ATOM     22  HN  UNL     1     -43.324 -48.162   6.903  1.00  0.00     0.166 HD
ENDBRANCH   4  16
TORSDOF 2
ENDMDL
MODEL 8
REMARK VINA RESULT:      -5.7      2.072      2.457
REMARK  2 active torsions:
REMARK  status: ('A' for Active; 'I' for Inactive)
REMARK       I    between atoms: C_2  and  N_3 
REMARK       I    between atoms: C_2  and  N_13 
REMARK    1  A    between atoms: N_3  and  C_4 
REMARK    2  A    between atoms: N_13  and  C_14 
ROOT
HETATM    1  O   UNL     1     -39.441 -51.501  12.363  1.00  0.00    -0.247 OA
HETATM    2  C   UNL     1     -40.448 -50.949  11.930  1.00  0.00     0.322 C 
HETATM    3  N   UNL     1     -41.634 -51.579  11.729  1.00  0.00    -0.336 N 
HETATM    4  N   UNL     1     -40.399 -49.619  11.641  1.00  0.00    -0.295 N 
HETATM    5  H   UNL     1     -42.371 -50.998  11.332  1.00  0.00     0.164 HD
HETATM    6  H   UNL     1     -39.495 -49.213  11.833  1.00  0.00     0.172 HD
ENDROOT
BRANCH   3   7
HETATM    7  C   UNL     1     -41.939 -52.952  12.087  1.00  0.00     0.121 C 
HETATM    8  C   UNL     1     -40.797 -53.647  12.841  1.00  0.00     0.057 C 
HETATM    9  C   UNL     1     -41.417 -54.131  14.151  1.00  0.00     0.275 C 
HETATM   10  N   UNL     1     -42.831 -54.292  13.814  1.00  0.00     0.095 N 
HETATM   11  C   UNL     1     -43.719 -54.370  14.972  1.00  0.00     0.273 C 
HETATM   12  C   UNL     1     -43.147 -53.091  13.023  1.00  0.00     0.245 C 
HETATM   13  C   UNL     1     -45.175 -54.490  14.493  1.00  0.00     0.030 C 
HETATM   14  C   UNL     1     -45.562 -53.417  13.467  1.00  0.00     0.004 C 
HETATM   15  C   UNL     1     -44.506 -53.284  12.362  1.00  0.00     0.038 C 
ENDBRANCH   3   7
BRANCH   4  16
HETATM   16  C   UNL     1     -41.433 -48.772  11.233  1.00  0.00     0.108 A 
HETATM   17  C   UNL     1     -42.241 -48.218  12.218  1.00  0.00     0.049 A 
HETATM   18  C   UNL     1     -43.313 -47.413  11.835  1.00  0.00     0.005 A 
HETATM   19  C   UNL     1     -43.540 -47.179  10.485  1.00  0.00     0.017 A 
HETATM   20  C   UNL     1     -42.677 -47.751   9.571  1.00  0.00     0.089 A 
HETATM   21  N   UNL     1     -41.636 -48.539   9.917  1.00  0.00    -0.352 N 
ATOM     22  HN  UNL     1     -41.023 -48.944   9.208  1.00  0.00     0.166 HD
ENDBRANCH   4  16
TORSDOF 2
ENDMDL
MODEL 9
REMARK VINA RESULT:      -5.6      2.632      6.617
REMARK  2 active torsions:
REMARK  status: ('A' for Active; 'I' for Inactive)
REMARK       I    between atoms: C_2  and  N_3 
REMARK       I    between atoms: C_2  and  N_13 
REMARK    1  A    between atoms: N_3  and  C_4 
REMARK    2  A    between atoms: N_13  and  C_14 
ROOT
HETATM    1  O   UNL     1     -38.697 -53.582  13.576  1.00  0.00    -0.247 OA
HETATM    2  C   UNL     1     -39.891 -53.310  13.482  1.00  0.00     0.322 C 
HETATM    3  N   UNL     1     -40.367 -52.129  13.011  1.00  0.00    -0.336 N 
HETATM    4  N   UNL     1     -40.811 -54.242  13.856  1.00  0.00    -0.295 N 
HETATM    5  H   UNL     1     -41.381 -52.036  13.024  1.00  0.00     0.164 HD
HETATM    6  H   UNL     1     -40.387 -55.100  14.177  1.00  0.00     0.172 HD
ENDROOT
BRANCH   3   7
HETATM    7  C   UNL     1     -39.570 -51.057  12.445  1.00  0.00     0.121 C 
HETATM    8  C   UNL     1     -40.358 -50.163  11.478  1.00  0.00     0.057 C 
HETATM    9  C   UNL     1     -40.212 -48.747  12.030  1.00  0.00     0.275 C 
HETATM   10  N   UNL     1     -38.950 -48.801  12.767  1.00  0.00     0.095 N 
HETATM   11  C   UNL     1     -38.759 -47.705  13.714  1.00  0.00     0.273 C 
HETATM   12  C   UNL     1     -39.017 -50.081  13.493  1.00  0.00     0.245 C 
HETATM   13  C   UNL     1     -37.427 -47.896  14.456  1.00  0.00     0.030 C 
HETATM   14  C   UNL     1     -37.273 -49.296  15.066  1.00  0.00     0.004 C 
HETATM   15  C   UNL     1     -37.638 -50.394  14.060  1.00  0.00     0.038 C 
ENDBRANCH   3   7
BRANCH   4  16
HETATM   16  C   UNL     1     -42.203 -54.190  13.749  1.00  0.00     0.108 A 
HETATM   17  C   UNL     1     -42.952 -54.566  14.858  1.00  0.00     0.049 A 
HETATM   18  C   UNL     1     -44.342 -54.575  14.760  1.00  0.00     0.005 A 
HETATM   19  C   UNL     1     -44.943 -54.200  13.566  1.00  0.00     0.017 A 
HETATM   20  C   UNL     1     -44.127 -53.820  12.518  1.00  0.00     0.089 A 
HETATM   21  N   UNL     1     -42.778 -53.809  12.586  1.00  0.00    -0.352 N 
ATOM     22  HN  UNL     1     -42.212 -53.523  11.786  1.00  0.00     0.166 HD
ENDBRANCH   4  16
TORSDOF 2
ENDMDL
