MODEL 1
REMARK VINA RESULT:      -6.7      0.000      0.000
REMARK  4 active torsions:
REMARK  status: ('A' for Active; 'I' for Inactive)
REMARK    1  A    between atoms: N_2  and  C_4 
REMARK    2  A    between atoms: C_6  and  C_20 
REMARK    3  A    between atoms: C_9  and  N_10 
REMARK    4  A    between atoms: N_10  and  C_11 
ROOT
HETATM    1  C   UNL     1     -41.210 -46.096  10.416  1.00  0.00     0.106 A 
HETATM    2  C   UNL     1     -42.475 -46.035   9.862  1.00  0.00     0.082 A 
HETATM    3  C   UNL     1     -43.148 -47.225   9.652  1.00  0.00     0.122 A 
HETATM    4  N   UNL     1     -42.589 -48.421   9.951  1.00  0.00    -0.329 N 
ATOM      5  HN  UNL     1     -43.087 -49.295   9.785  1.00  0.00     0.168 HD
HETATM    6  C   UNL     1     -41.363 -48.411  10.473  1.00  0.00     0.159 A 
HETATM    7  N   UNL     1     -40.671 -47.293  10.725  1.00  0.00    -0.319 N 
ATOM      8  HN  UNL     1     -39.744 -47.347  11.147  1.00  0.00     0.170 HD
ENDROOT
BRANCH   6   9
HETATM    9  N   UNL     1     -40.720 -49.611  10.753  1.00  0.00    -0.257 NA
HETATM   10  H   UNL     1     -39.891 -49.594  10.168  1.00  0.00     0.131 HD
BRANCH   9  11
HETATM   11  C   UNL     1     -40.449 -49.860  12.167  1.00  0.00     0.094 C 
HETATM   12  C   UNL     1     -39.285 -50.858  12.325  1.00  0.00     0.054 C 
HETATM   13  C   UNL     1     -39.903 -51.958  13.188  1.00  0.00     0.123 C 
HETATM   14  C   UNL     1     -40.905 -52.788  12.388  1.00  0.00     0.034 C 
HETATM   15  O   UNL     1     -40.782 -51.189  14.038  1.00  0.00    -0.379 OA
HETATM   16  C   UNL     1     -42.087 -51.828  12.265  1.00  0.00     0.036 C 
HETATM   17  C   UNL     1     -41.559 -50.578  12.967  1.00  0.00     0.140 C 
ENDBRANCH   9  11
ENDBRANCH   6   9
BRANCH   3  18
HETATM   18  C   UNL     1     -44.551 -47.207   9.080  1.00  0.00     0.432 C 
HETATM   19  F   UNL     1     -45.502 -47.632   9.967  1.00  0.00    -0.165 F 
HETATM   20  F   UNL     1     -44.955 -45.966   8.687  1.00  0.00    -0.165 F 
HETATM   21  F   UNL     1     -44.693 -48.014   7.989  1.00  0.00    -0.165 F 
ENDBRANCH   3  18
BRANCH   1  22
HETATM   22  N   UNL     1     -40.496 -44.928  10.706  1.00  0.00    -0.376 N 
HETATM   23  C   UNL     1     -41.198 -43.778  11.263  1.00  0.00     0.150 C 
HETATM   24  C   UNL     1     -39.349 -44.657   9.846  1.00  0.00     0.150 C 
ENDBRANCH   1  22
TORSDOF 4
ENDMDL
MODEL 2
REMARK VINA RESULT:      -6.6      3.890      5.078
REMARK  4 active torsions:
REMARK  status: ('A' for Active; 'I' for Inactive)
REMARK    1  A    between atoms: N_2  and  C_4 
REMARK    2  A    between atoms: C_6  and  C_20 
REMARK    3  A    between atoms: C_9  and  N_10 
REMARK    4  A    between atoms: N_10  and  C_11 
ROOT
HETATM    1  C   UNL     1     -41.196 -48.742  11.321  1.00  0.00     0.106 A 
HETATM    2  C   UNL     1     -39.823 -48.737  11.476  1.00  0.00     0.082 A 
HETATM    3  C   UNL     1     -39.194 -49.944  11.719  1.00  0.00     0.122 A 
HETATM    4  N   UNL     1     -39.890 -51.099  11.830  1.00  0.00    -0.329 N 
ATOM      5  HN  UNL     1     -39.421 -51.985  12.020  1.00  0.00     0.168 HD
HETATM    6  C   UNL     1     -41.213 -51.035  11.681  1.00  0.00     0.159 A 
HETATM    7  N   UNL     1     -41.877 -49.902  11.417  1.00  0.00    -0.319 N 
ATOM      8  HN  UNL     1     -42.888 -49.918  11.291  1.00  0.00     0.170 HD
ENDROOT
BRANCH   6   9
HETATM    9  N   UNL     1     -41.984 -52.180  11.834  1.00  0.00    -0.257 NA
HETATM   10  H   UNL     1     -41.489 -52.890  11.303  1.00  0.00     0.131 HD
BRANCH   9  11
HETATM   11  C   UNL     1     -42.271 -52.561  13.216  1.00  0.00     0.094 C 
HETATM   12  C   UNL     1     -42.211 -54.094  13.376  1.00  0.00     0.054 C 
HETATM   13  C   UNL     1     -43.585 -54.422  13.960  1.00  0.00     0.123 C 
HETATM   14  C   UNL     1     -44.681 -54.273  12.907  1.00  0.00     0.034 C 
HETATM   15  O   UNL     1     -43.824 -53.264  14.789  1.00  0.00    -0.379 OA
HETATM   16  C   UNL     1     -44.788 -52.755  12.773  1.00  0.00     0.036 C 
HETATM   17  C   UNL     1     -43.699 -52.271  13.729  1.00  0.00     0.140 C 
ENDBRANCH   9  11
ENDBRANCH   6   9
BRANCH   3  18
HETATM   18  C   UNL     1     -37.686 -49.994  11.861  1.00  0.00     0.432 C 
HETATM   19  F   UNL     1     -37.025 -49.725  10.695  1.00  0.00    -0.165 F 
HETATM   20  F   UNL     1     -37.202 -49.096  12.765  1.00  0.00    -0.165 F 
HETATM   21  F   UNL     1     -37.227 -51.216  12.259  1.00  0.00    -0.165 F 
ENDBRANCH   3  18
BRANCH   1  22
HETATM   22  N   UNL     1     -41.890 -47.565  11.018  1.00  0.00    -0.376 N 
HETATM   23  C   UNL     1     -43.180 -47.647  10.343  1.00  0.00     0.150 C 
HETATM   24  C   UNL     1     -41.062 -46.398  10.734  1.00  0.00     0.150 C 
ENDBRANCH   1  22
TORSDOF 4
ENDMDL
MODEL 3
REMARK VINA RESULT:      -6.2      3.962      6.838
REMARK  4 active torsions:
REMARK  status: ('A' for Active; 'I' for Inactive)
REMARK    1  A    between atoms: N_2  and  C_4 
REMARK    2  A    between atoms: C_6  and  C_20 
REMARK    3  A    between atoms: C_9  and  N_10 
REMARK    4  A    between atoms: N_10  and  C_11 
ROOT
HETATM    1  C   UNL     1     -41.078 -51.499  12.329  1.00  0.00     0.106 A 
HETATM    2  C   UNL     1     -39.715 -51.461  12.551  1.00  0.00     0.082 A 
HETATM    3  C   UNL     1     -38.995 -50.424  11.985  1.00  0.00     0.122 A 
HETATM    4  N   UNL     1     -39.589 -49.482  11.216  1.00  0.00    -0.329 N 
ATOM      5  HN  UNL     1     -39.051 -48.726  10.793  1.00  0.00     0.168 HD
HETATM    6  C   UNL     1     -40.905 -49.582  11.032  1.00  0.00     0.159 A 
HETATM    7  N   UNL     1     -41.661 -50.545  11.574  1.00  0.00    -0.319 N 
ATOM      8  HN  UNL     1     -42.668 -50.557  11.417  1.00  0.00     0.170 HD
ENDROOT
BRANCH   6   9
HETATM    9  N   UNL     1     -41.561 -48.672  10.211  1.00  0.00    -0.257 NA
HETATM   10  H   UNL     1     -42.043 -49.251   9.530  1.00  0.00     0.131 HD
BRANCH   9  11
HETATM   11  C   UNL     1     -42.425 -47.716  10.901  1.00  0.00     0.094 C 
HETATM   12  C   UNL     1     -42.936 -46.645   9.917  1.00  0.00     0.054 C 
HETATM   13  C   UNL     1     -42.497 -45.342  10.585  1.00  0.00     0.123 C 
HETATM   14  C   UNL     1     -40.986 -45.151  10.479  1.00  0.00     0.034 C 
HETATM   15  O   UNL     1     -42.647 -45.677  11.982  1.00  0.00    -0.379 OA
HETATM   16  C   UNL     1     -40.464 -46.173  11.487  1.00  0.00     0.036 C 
HETATM   17  C   UNL     1     -41.755 -46.830  11.974  1.00  0.00     0.140 C 
ENDBRANCH   9  11
ENDBRANCH   6   9
BRANCH   3  18
HETATM   18  C   UNL     1     -37.503 -50.320  12.229  1.00  0.00     0.432 C 
HETATM   19  F   UNL     1     -36.811 -49.847  11.149  1.00  0.00    -0.165 F 
HETATM   20  F   UNL     1     -37.184 -49.482  13.256  1.00  0.00    -0.165 F 
HETATM   21  F   UNL     1     -36.926 -51.520  12.527  1.00  0.00    -0.165 F 
ENDBRANCH   3  18
BRANCH   1  22
HETATM   22  N   UNL     1     -41.875 -52.488  12.916  1.00  0.00    -0.376 N 
HETATM   23  C   UNL     1     -41.371 -53.853  13.008  1.00  0.00     0.150 C 
HETATM   24  C   UNL     1     -43.315 -52.319  12.758  1.00  0.00     0.150 C 
ENDBRANCH   1  22
TORSDOF 4
ENDMDL
MODEL 4
REMARK VINA RESULT:      -6.1      4.555      7.289
REMARK  4 active torsions:
REMARK  status: ('A' for Active; 'I' for Inactive)
REMARK    1  A    between atoms: N_2  and  C_4 
REMARK    2  A    between atoms: C_6  and  C_20 
REMARK    3  A    between atoms: C_9  and  N_10 
REMARK    4  A    between atoms: N_10  and  C_11 
ROOT
HETATM    1  C   UNL     1     -41.083 -54.388  14.652  1.00  0.00     0.106 A 
HETATM    2  C   UNL     1     -42.450 -54.448  14.455  1.00  0.00     0.082 A 
HETATM    3  C   UNL     1     -42.983 -53.735  13.396  1.00  0.00     0.122 A 
HETATM    4  N   UNL     1     -42.208 -52.979  12.585  1.00  0.00    -0.329 N 
ATOM      5  HN  UNL     1     -42.609 -52.448  11.812  1.00  0.00     0.168 HD
HETATM    6  C   UNL     1     -40.900 -52.956  12.835  1.00  0.00     0.159 A 
HETATM    7  N   UNL     1     -40.320 -53.644  13.826  1.00  0.00    -0.319 N 
ATOM      8  HN  UNL     1     -39.309 -53.605  13.955  1.00  0.00     0.170 HD
ENDROOT
BRANCH   6   9
HETATM    9  N   UNL     1     -40.062 -52.157  12.066  1.00  0.00    -0.257 NA
HETATM   10  H   UNL     1     -40.477 -52.176  11.140  1.00  0.00     0.131 HD
BRANCH   9  11
HETATM   11  C   UNL     1     -39.826 -50.813  12.588  1.00  0.00     0.094 C 
HETATM   12  C   UNL     1     -39.837 -49.781  11.442  1.00  0.00     0.054 C 
HETATM   13  C   UNL     1     -38.481 -49.093  11.601  1.00  0.00     0.123 C 
HETATM   14  C   UNL     1     -37.342 -50.014  11.165  1.00  0.00     0.034 C 
HETATM   15  O   UNL     1     -38.325 -49.103  13.036  1.00  0.00    -0.379 OA
HETATM   16  C   UNL     1     -37.286 -51.016  12.317  1.00  0.00     0.036 C 
HETATM   17  C   UNL     1     -38.436 -50.547  13.207  1.00  0.00     0.140 C 
ENDBRANCH   9  11
ENDBRANCH   6   9
BRANCH   3  18
HETATM   18  C   UNL     1     -44.473 -53.798  13.119  1.00  0.00     0.432 C 
HETATM   19  F   UNL     1     -44.959 -55.075  13.071  1.00  0.00    -0.165 F 
HETATM   20  F   UNL     1     -45.221 -53.162  14.063  1.00  0.00    -0.165 F 
HETATM   21  F   UNL     1     -44.817 -53.238  11.923  1.00  0.00    -0.165 F 
ENDBRANCH   3  18
BRANCH   1  22
HETATM   22  N   UNL     1     -40.471 -55.127  15.670  1.00  0.00    -0.376 N 
HETATM   23  C   UNL     1     -41.069 -55.149  16.999  1.00  0.00     0.150 C 
HETATM   24  C   UNL     1     -39.018 -55.231  15.591  1.00  0.00     0.150 C 
ENDBRANCH   1  22
TORSDOF 4
ENDMDL
MODEL 5
REMARK VINA RESULT:      -6.1      5.810      8.092
REMARK  4 active torsions:
REMARK  status: ('A' for Active; 'I' for Inactive)
REMARK    1  A    between atoms: N_2  and  C_4 
REMARK    2  A    between atoms: C_6  and  C_20 
REMARK    3  A    between atoms: C_9  and  N_10 
REMARK    4  A    between atoms: N_10  and  C_11 
ROOT
HETATM    1  C   UNL     1     -43.085 -53.925  13.309  1.00  0.00     0.106 A 
HETATM    2  C   UNL     1     -42.568 -54.620  14.386  1.00  0.00     0.082 A 
HETATM    3  C   UNL     1     -41.232 -54.438  14.693  1.00  0.00     0.122 A 
HETATM    4  N   UNL     1     -40.437 -53.629  13.957  1.00  0.00    -0.329 N 
ATOM      5  HN  UNL     1     -39.449 -53.507  14.182  1.00  0.00     0.168 HD
HETATM    6  C   UNL     1     -40.993 -52.996  12.925  1.00  0.00     0.159 A 
HETATM    7  N   UNL     1     -42.286 -53.109  12.593  1.00  0.00    -0.319 N 
ATOM      8  HN  UNL     1     -42.662 -52.581  11.805  1.00  0.00     0.170 HD
ENDROOT
BRANCH   6   9
HETATM    9  N   UNL     1     -40.214 -52.190  12.104  1.00  0.00    -0.257 NA
HETATM   10  H   UNL     1     -40.646 -52.271  11.189  1.00  0.00     0.131 HD
BRANCH   9  11
HETATM   11  C   UNL     1     -40.038 -50.814  12.561  1.00  0.00     0.094 C 
HETATM   12  C   UNL     1     -39.916 -49.857  11.358  1.00  0.00     0.054 C 
HETATM   13  C   UNL     1     -38.586 -49.152  11.626  1.00  0.00     0.123 C 
HETATM   14  C   UNL     1     -37.407 -50.092  11.383  1.00  0.00     0.034 C 
HETATM   15  O   UNL     1     -38.596 -49.069  13.068  1.00  0.00    -0.379 OA
HETATM   16  C   UNL     1     -37.483 -51.018  12.595  1.00  0.00     0.036 C 
HETATM   17  C   UNL     1     -38.727 -50.500  13.317  1.00  0.00     0.140 C 
ENDBRANCH   9  11
ENDBRANCH   6   9
BRANCH   3  18
HETATM   18  C   UNL     1     -40.629 -55.152  15.887  1.00  0.00     0.432 C 
HETATM   19  F   UNL     1     -41.389 -56.198  16.331  1.00  0.00    -0.165 F 
HETATM   20  F   UNL     1     -39.400 -55.683  15.629  1.00  0.00    -0.165 F 
HETATM   21  F   UNL     1     -40.470 -54.338  16.971  1.00  0.00    -0.165 F 
ENDBRANCH   3  18
BRANCH   1  22
HETATM   22  N   UNL     1     -44.441 -54.019  12.976  1.00  0.00    -0.376 N 
HETATM   23  C   UNL     1     -45.152 -52.831  12.520  1.00  0.00     0.150 C 
HETATM   24  C   UNL     1     -45.209 -55.009  13.724  1.00  0.00     0.150 C 
ENDBRANCH   1  22
TORSDOF 4
ENDMDL
MODEL 6
REMARK VINA RESULT:      -6.0      3.755      4.950
REMARK  4 active torsions:
REMARK  status: ('A' for Active; 'I' for Inactive)
REMARK    1  A    between atoms: N_2  and  C_4 
REMARK    2  A    between atoms: C_6  and  C_20 
REMARK    3  A    between atoms: C_9  and  N_10 
REMARK    4  A    between atoms: N_10  and  C_11 
ROOT
HETATM    1  C   UNL     1     -41.276 -48.810  11.468  1.00  0.00     0.106 A 
HETATM    2  C   UNL     1     -39.907 -48.751  11.645  1.00  0.00     0.082 A 
HETATM    3  C   UNL     1     -39.220 -49.944  11.777  1.00  0.00     0.122 A 
HETATM    4  N   UNL     1     -39.857 -51.138  11.761  1.00  0.00    -0.329 N 
ATOM      5  HN  UNL     1     -39.345 -52.014  11.869  1.00  0.00     0.168 HD
HETATM    6  C   UNL     1     -41.179 -51.125  11.597  1.00  0.00     0.159 A 
HETATM    7  N   UNL     1     -41.897 -50.006  11.437  1.00  0.00    -0.319 N 
ATOM      8  HN  UNL     1     -42.905 -50.059  11.293  1.00  0.00     0.170 HD
ENDROOT
BRANCH   6   9
HETATM    9  N   UNL     1     -41.892 -52.317  11.623  1.00  0.00    -0.257 NA
HETATM   10  H   UNL     1     -41.252 -53.001  11.232  1.00  0.00     0.131 HD
BRANCH   9  11
HETATM   11  C   UNL     1     -42.442 -52.690  12.924  1.00  0.00     0.094 C 
HETATM   12  C   UNL     1     -41.872 -51.780  14.031  1.00  0.00     0.054 C 
HETATM   13  C   UNL     1     -41.275 -52.786  15.015  1.00  0.00     0.123 C 
HETATM   14  C   UNL     1     -40.000 -53.414  14.455  1.00  0.00     0.034 C 
HETATM   15  O   UNL     1     -42.209 -53.882  14.900  1.00  0.00    -0.379 OA
HETATM   16  C   UNL     1     -40.553 -54.357  13.388  1.00  0.00     0.036 C 
HETATM   17  C   UNL     1     -42.054 -54.084  13.464  1.00  0.00     0.140 C 
ENDBRANCH   9  11
ENDBRANCH   6   9
BRANCH   3  18
HETATM   18  C   UNL     1     -37.712 -49.933  11.938  1.00  0.00     0.432 C 
HETATM   19  F   UNL     1     -37.048 -49.641  10.779  1.00  0.00    -0.165 F 
HETATM   20  F   UNL     1     -37.276 -49.013  12.844  1.00  0.00    -0.165 F 
HETATM   21  F   UNL     1     -37.210 -51.134  12.346  1.00  0.00    -0.165 F 
ENDBRANCH   3  18
BRANCH   1  22
HETATM   22  N   UNL     1     -42.026 -47.644  11.273  1.00  0.00    -0.376 N 
HETATM   23  C   UNL     1     -42.712 -47.438  10.003  1.00  0.00     0.150 C 
HETATM   24  C   UNL     1     -41.545 -46.458  11.971  1.00  0.00     0.150 C 
ENDBRANCH   1  22
TORSDOF 4
ENDMDL
MODEL 7
REMARK VINA RESULT:      -5.9      4.817      6.621
REMARK  4 active torsions:
REMARK  status: ('A' for Active; 'I' for Inactive)
REMARK    1  A    between atoms: N_2  and  C_4 
REMARK    2  A    between atoms: C_6  and  C_20 
REMARK    3  A    between atoms: C_9  and  N_10 
REMARK    4  A    between atoms: N_10  and  C_11 
ROOT
HETATM    1  C   UNL     1     -40.823 -50.542  12.027  1.00  0.00     0.106 A 
HETATM    2  C   UNL     1     -39.910 -51.330  12.701  1.00  0.00     0.082 A 
HETATM    3  C   UNL     1     -40.362 -52.512  13.259  1.00  0.00     0.122 A 
HETATM    4  N   UNL     1     -41.660 -52.887  13.177  1.00  0.00    -0.329 N 
ATOM      5  HN  UNL     1     -41.989 -53.755  13.599  1.00  0.00     0.168 HD
HETATM    6  C   UNL     1     -42.491 -52.077  12.522  1.00  0.00     0.159 A 
HETATM    7  N   UNL     1     -42.110 -50.934  11.938  1.00  0.00    -0.319 N 
ATOM      8  HN  UNL     1     -42.788 -50.366  11.431  1.00  0.00     0.170 HD
ENDROOT
BRANCH   6   9
HETATM    9  N   UNL     1     -43.844 -52.386  12.449  1.00  0.00    -0.257 NA
HETATM   10  H   UNL     1     -43.945 -52.863  11.559  1.00  0.00     0.131 HD
BRANCH   9  11
HETATM   11  C   UNL     1     -44.380 -53.126  13.589  1.00  0.00     0.094 C 
HETATM   12  C   UNL     1     -45.831 -53.566  13.312  1.00  0.00     0.054 C 
HETATM   13  C   UNL     1     -46.591 -52.978  14.502  1.00  0.00     0.123 C 
HETATM   14  C   UNL     1     -46.708 -51.460  14.384  1.00  0.00     0.034 C 
HETATM   15  O   UNL     1     -45.611 -53.109  15.555  1.00  0.00    -0.379 OA
HETATM   16  C   UNL     1     -45.286 -51.005  14.705  1.00  0.00     0.036 C 
HETATM   17  C   UNL     1     -44.560 -52.335  14.903  1.00  0.00     0.140 C 
ENDBRANCH   9  11
ENDBRANCH   6   9
BRANCH   3  18
HETATM   18  C   UNL     1     -39.391 -53.428  13.978  1.00  0.00     0.432 C 
HETATM   19  F   UNL     1     -39.439 -54.721  13.535  1.00  0.00    -0.165 F 
HETATM   20  F   UNL     1     -38.090 -53.047  13.836  1.00  0.00    -0.165 F 
HETATM   21  F   UNL     1     -39.621 -53.500  15.321  1.00  0.00    -0.165 F 
ENDBRANCH   3  18
BRANCH   1  22
HETATM   22  N   UNL     1     -40.422 -49.361  11.392  1.00  0.00    -0.376 N 
HETATM   23  C   UNL     1     -39.241 -48.654  11.873  1.00  0.00     0.150 C 
HETATM   24  C   UNL     1     -41.494 -48.555  10.819  1.00  0.00     0.150 C 
ENDBRANCH   1  22
TORSDOF 4
ENDMDL
MODEL 8
REMARK VINA RESULT:      -5.8      2.957      4.679
REMARK  4 active torsions:
REMARK  status: ('A' for Active; 'I' for Inactive)
REMARK    1  A    between atoms: N_2  and  C_4 
REMARK    2  A    between atoms: C_6  and  C_20 
REMARK    3  A    between atoms: C_9  and  N_10 
REMARK    4  A    between atoms: N_10  and  C_11 
ROOT
HETATM    1  C   UNL     1     -39.701 -50.362  12.113  1.00  0.00     0.106 A 
HETATM    2  C   UNL     1     -40.166 -49.325  11.327  1.00  0.00     0.082 A 
HETATM    3  C   UNL     1     -41.524 -49.064  11.336  1.00  0.00     0.122 A 
HETATM    4  N   UNL     1     -42.386 -49.808  12.067  1.00  0.00    -0.329 N 
ATOM      5  HN  UNL     1     -43.388 -49.617  12.062  1.00  0.00     0.168 HD
HETATM    6  C   UNL     1     -41.875 -50.800  12.795  1.00  0.00     0.159 A 
HETATM    7  N   UNL     1     -40.568 -51.085  12.850  1.00  0.00    -0.319 N 
ATOM      8  HN  UNL     1     -40.232 -51.842  13.444  1.00  0.00     0.170 HD
ENDROOT
BRANCH   6   9
HETATM    9  N   UNL     1     -42.718 -51.628  13.527  1.00  0.00    -0.257 NA
HETATM   10  H   UNL     1     -42.882 -51.120  14.390  1.00  0.00     0.131 HD
BRANCH   9  11
HETATM   11  C   UNL     1     -43.937 -52.046  12.838  1.00  0.00     0.094 C 
HETATM   12  C   UNL     1     -45.176 -51.742  13.703  1.00  0.00     0.054 C 
HETATM   13  C   UNL     1     -45.854 -53.109  13.806  1.00  0.00     0.123 C 
HETATM   14  C   UNL     1     -45.069 -54.046  14.722  1.00  0.00     0.034 C 
HETATM   15  O   UNL     1     -45.562 -53.667  12.506  1.00  0.00    -0.379 OA
HETATM   16  C   UNL     1     -43.859 -54.396  13.857  1.00  0.00     0.036 C 
HETATM   17  C   UNL     1     -44.110 -53.562  12.601  1.00  0.00     0.140 C 
ENDBRANCH   9  11
ENDBRANCH   6   9
BRANCH   3  18
HETATM   18  C   UNL     1     -42.078 -47.915  10.517  1.00  0.00     0.432 C 
HETATM   19  F   UNL     1     -43.263 -47.431  10.998  1.00  0.00    -0.165 F 
HETATM   20  F   UNL     1     -41.242 -46.839  10.469  1.00  0.00    -0.165 F 
HETATM   21  F   UNL     1     -42.330 -48.256   9.220  1.00  0.00    -0.165 F 
ENDBRANCH   3  18
BRANCH   1  22
HETATM   22  N   UNL     1     -38.332 -50.644  12.194  1.00  0.00    -0.376 N 
HETATM   23  C   UNL     1     -37.745 -50.981  13.485  1.00  0.00     0.150 C 
HETATM   24  C   UNL     1     -37.484 -49.941  11.238  1.00  0.00     0.150 C 
ENDBRANCH   1  22
TORSDOF 4
ENDMDL
MODEL 9
REMARK VINA RESULT:      -5.7      3.626      6.656
REMARK  4 active torsions:
REMARK  status: ('A' for Active; 'I' for Inactive)
REMARK    1  A    between atoms: N_2  and  C_4 
REMARK    2  A    between atoms: C_6  and  C_20 
REMARK    3  A    between atoms: C_9  and  N_10 
REMARK    4  A    between atoms: N_10  and  C_11 
ROOT
HETATM    1  C   UNL     1     -42.809 -52.998  13.485  1.00  0.00     0.106 A 
HETATM    2  C   UNL     1     -44.157 -52.946  13.786  1.00  0.00     0.082 A 
HETATM    3  C   UNL     1     -44.866 -51.827  13.387  1.00  0.00     0.122 A 
HETATM    4  N   UNL     1     -44.268 -50.797  12.744  1.00  0.00    -0.329 N 
ATOM      5  HN  UNL     1     -44.794 -49.971  12.462  1.00  0.00     0.168 HD
HETATM    6  C   UNL     1     -42.964 -50.906  12.494  1.00  0.00     0.159 A 
HETATM    7  N   UNL     1     -42.228 -51.973  12.829  1.00  0.00    -0.319 N 
ATOM      8  HN  UNL     1     -41.237 -52.010  12.591  1.00  0.00     0.170 HD
ENDROOT
BRANCH   6   9
HETATM    9  N   UNL     1     -42.286 -49.858  11.881  1.00  0.00    -0.257 NA
HETATM   10  H   UNL     1     -42.177 -50.159  10.918  1.00  0.00     0.131 HD
BRANCH   9  11
HETATM   11  C   UNL     1     -42.903 -48.542  12.030  1.00  0.00     0.094 C 
HETATM   12  C   UNL     1     -43.039 -47.852  10.658  1.00  0.00     0.054 C 
HETATM   13  C   UNL     1     -42.309 -46.527  10.878  1.00  0.00     0.123 C 
HETATM   14  C   UNL     1     -40.798 -46.737  10.960  1.00  0.00     0.034 C 
HETATM   15  O   UNL     1     -42.636 -46.249  12.257  1.00  0.00    -0.379 OA
HETATM   16  C   UNL     1     -40.642 -47.377  12.339  1.00  0.00     0.036 C 
HETATM   17  C   UNL     1     -42.091 -47.484  12.810  1.00  0.00     0.140 C 
ENDBRANCH   9  11
ENDBRANCH   6   9
BRANCH   3  18
HETATM   18  C   UNL     1     -46.354 -51.739  13.663  1.00  0.00     0.432 C 
HETATM   19  F   UNL     1     -46.930 -52.954  13.908  1.00  0.00    -0.165 F 
HETATM   20  F   UNL     1     -46.653 -50.973  14.750  1.00  0.00    -0.165 F 
HETATM   21  F   UNL     1     -47.059 -51.211  12.621  1.00  0.00    -0.165 F 
ENDBRANCH   3  18
BRANCH   1  22
HETATM   22  N   UNL     1     -42.044 -54.124  13.810  1.00  0.00    -0.376 N 
HETATM   23  C   UNL     1     -42.172 -54.721  15.134  1.00  0.00     0.150 C 
HETATM   24  C   UNL     1     -40.740 -54.212  13.163  1.00  0.00     0.150 C 
ENDBRANCH   1  22
TORSDOF 4
ENDMDL
