MODEL 1
REMARK VINA RESULT:      -5.4      0.000      0.000
REMARK  7 active torsions:
REMARK  status: ('A' for Active; 'I' for Inactive)
REMARK    1  A    between atoms: C_2  and  C_3 
REMARK    2  A    between atoms: C_3  and  N_5 
REMARK       I    between atoms: N_5  and  C_6 
REMARK    3  A    between atoms: C_6  and  C_8 
REMARK    4  A    between atoms: C_8  and  N_10 
REMARK    5  A    between atoms: N_10  and  C_11 
REMARK    6  A    between atoms: C_11  and  C_12 
REMARK    7  A    between atoms: C_12  and  N_13 
ROOT
HETATM    1  C   UNL     1     -42.536 -52.915  12.891  1.00  0.00     0.307 C 
HETATM    2  C   UNL     1     -41.804 -54.211  13.228  1.00  0.00     0.053 C 
ENDROOT
BRANCH   1   3
HETATM    3  C   UNL     1     -44.050 -53.202  12.839  1.00  0.00     0.251 C 
HETATM    4  N   UNL     1     -44.831 -52.164  13.303  1.00  0.00    -0.355 N 
HETATM    5  H   UNL     1     -44.391 -51.396  13.795  1.00  0.00     0.162 HD
HETATM    6  O   UNL     1     -44.509 -54.257  12.407  1.00  0.00    -0.271 OA
BRANCH   4   7
HETATM    7  C   UNL     1     -46.288 -52.220  13.271  1.00  0.00     0.080 C 
HETATM    8  C   UNL     1     -46.781 -51.679  11.930  1.00  0.00     0.032 C 
BRANCH   7   9
HETATM    9  C   UNL     1     -46.878 -51.459  14.469  1.00  0.00     0.020 C 
HETATM   10  C   UNL     1     -45.862 -51.185  15.570  1.00  0.00     0.007 C 
ENDBRANCH   7   9
ENDBRANCH   4   7
ENDBRANCH   1   3
BRANCH   1  11
HETATM   11  N   UNL     1     -42.045 -52.390  11.594  1.00  0.00     0.098 N 
HETATM   12  H   UNL     1     -42.871 -52.052  11.087  1.00  0.00     0.317 HD
BRANCH  11  13
HETATM   13  C   UNL     1     -41.130 -51.238  11.739  1.00  0.00     0.292 C 
BRANCH  13  14
HETATM   14  C   UNL     1     -41.683 -50.077  12.569  1.00  0.00     0.178 C 
BRANCH  14  15
HETATM   15  N   UNL     1     -42.190 -49.012  11.724  1.00  0.00    -0.302 N 
HETATM   16  C   UNL     1     -43.110 -48.063  12.061  1.00  0.00     0.111 A 
HETATM   17  C   UNL     1     -43.283 -47.288  10.939  1.00  0.00     0.037 A 
HETATM   18  C   UNL     1     -42.429 -47.856   9.976  1.00  0.00     0.108 A 
HETATM   19  N   UNL     1     -41.764 -48.912  10.449  1.00  0.00    -0.310 N 
ATOM     20  HN  UNL     1     -41.092 -49.505   9.961  1.00  0.00     0.186 HD
ENDBRANCH  14  15
ENDBRANCH  13  14
ENDBRANCH  11  13
ENDBRANCH   1  11
TORSDOF 7
ENDMDL
MODEL 2
REMARK VINA RESULT:      -5.4      1.895      2.802
REMARK  7 active torsions:
REMARK  status: ('A' for Active; 'I' for Inactive)
REMARK    1  A    between atoms: C_2  and  C_3 
REMARK    2  A    between atoms: C_3  and  N_5 
REMARK       I    between atoms: N_5  and  C_6 
REMARK    3  A    between atoms: C_6  and  C_8 
REMARK    4  A    between atoms: C_8  and  N_10 
REMARK    5  A    between atoms: N_10  and  C_11 
REMARK    6  A    between atoms: C_11  and  C_12 
REMARK    7  A    between atoms: C_12  and  N_13 
ROOT
HETATM    1  C   UNL     1     -42.525 -52.811  12.969  1.00  0.00     0.307 C 
HETATM    2  C   UNL     1     -41.740 -54.118  12.912  1.00  0.00     0.053 C 
ENDROOT
BRANCH   1   3
HETATM    3  C   UNL     1     -44.030 -53.135  12.893  1.00  0.00     0.251 C 
HETATM    4  N   UNL     1     -44.843 -52.133  13.384  1.00  0.00    -0.355 N 
HETATM    5  H   UNL     1     -44.427 -51.372  13.906  1.00  0.00     0.162 HD
HETATM    6  O   UNL     1     -44.458 -54.187  12.422  1.00  0.00    -0.271 OA
BRANCH   4   7
HETATM    7  C   UNL     1     -46.297 -52.226  13.336  1.00  0.00     0.080 C 
HETATM    8  C   UNL     1     -46.794 -51.638  12.016  1.00  0.00     0.032 C 
BRANCH   7   9
HETATM    9  C   UNL     1     -46.916 -51.537  14.562  1.00  0.00     0.020 C 
HETATM   10  C   UNL     1     -45.886 -51.105  15.596  1.00  0.00     0.007 C 
ENDBRANCH   7   9
ENDBRANCH   4   7
ENDBRANCH   1   3
BRANCH   1  11
HETATM   11  N   UNL     1     -42.109 -51.932  11.851  1.00  0.00     0.098 N 
HETATM   12  H   UNL     1     -42.937 -51.805  11.258  1.00  0.00     0.317 HD
BRANCH  11  13
HETATM   13  C   UNL     1     -41.688 -50.585  12.291  1.00  0.00     0.292 C 
BRANCH  13  14
HETATM   14  C   UNL     1     -40.742 -49.860  11.330  1.00  0.00     0.178 C 
BRANCH  14  15
HETATM   15  N   UNL     1     -39.352 -50.146  11.635  1.00  0.00    -0.302 N 
HETATM   16  C   UNL     1     -38.857 -50.674  12.792  1.00  0.00     0.111 A 
HETATM   17  C   UNL     1     -37.494 -50.746  12.621  1.00  0.00     0.037 A 
HETATM   18  C   UNL     1     -37.267 -50.230  11.333  1.00  0.00     0.108 A 
HETATM   19  N   UNL     1     -38.398 -49.857  10.729  1.00  0.00    -0.310 N 
ATOM     20  HN  UNL     1     -38.511 -49.449   9.801  1.00  0.00     0.186 HD
ENDBRANCH  14  15
ENDBRANCH  13  14
ENDBRANCH  11  13
ENDBRANCH   1  11
TORSDOF 7
ENDMDL
MODEL 3
REMARK VINA RESULT:      -5.4      1.429      1.989
REMARK  7 active torsions:
REMARK  status: ('A' for Active; 'I' for Inactive)
REMARK    1  A    between atoms: C_2  and  C_3 
REMARK    2  A    between atoms: C_3  and  N_5 
REMARK       I    between atoms: N_5  and  C_6 
REMARK    3  A    between atoms: C_6  and  C_8 
REMARK    4  A    between atoms: C_8  and  N_10 
REMARK    5  A    between atoms: N_10  and  C_11 
REMARK    6  A    between atoms: C_11  and  C_12 
REMARK    7  A    between atoms: C_12  and  N_13 
ROOT
HETATM    1  C   UNL     1     -42.319 -51.177  12.780  1.00  0.00     0.307 C 
HETATM    2  C   UNL     1     -41.155 -51.757  11.980  1.00  0.00     0.053 C 
ENDROOT
BRANCH   1   3
HETATM    3  C   UNL     1     -43.466 -52.206  12.799  1.00  0.00     0.251 C 
HETATM    4  N   UNL     1     -44.724 -51.641  12.749  1.00  0.00    -0.355 N 
HETATM    5  H   UNL     1     -44.822 -50.643  12.884  1.00  0.00     0.162 HD
HETATM    6  O   UNL     1     -43.267 -53.419  12.841  1.00  0.00    -0.271 OA
BRANCH   4   7
HETATM    7  C   UNL     1     -45.934 -52.454  12.690  1.00  0.00     0.080 C 
HETATM    8  C   UNL     1     -46.953 -51.770  11.780  1.00  0.00     0.032 C 
BRANCH   7   9
HETATM    9  C   UNL     1     -46.478 -52.703  14.106  1.00  0.00     0.020 C 
HETATM   10  C   UNL     1     -46.879 -51.426  14.832  1.00  0.00     0.007 C 
ENDBRANCH   7   9
ENDBRANCH   4   7
ENDBRANCH   1   3
BRANCH   1  11
HETATM   11  N   UNL     1     -42.754 -49.899  12.168  1.00  0.00     0.098 N 
HETATM   12  H   UNL     1     -43.035 -49.288  12.943  1.00  0.00     0.317 HD
BRANCH  11  13
HETATM   13  C   UNL     1     -41.674 -49.201  11.441  1.00  0.00     0.292 C 
BRANCH  13  14
HETATM   14  C   UNL     1     -41.995 -47.759  11.040  1.00  0.00     0.178 C 
BRANCH  14  15
HETATM   15  N   UNL     1     -42.956 -47.710   9.954  1.00  0.00    -0.302 N 
HETATM   16  C   UNL     1     -44.286 -47.417  10.047  1.00  0.00     0.111 A 
HETATM   17  C   UNL     1     -44.784 -47.509   8.769  1.00  0.00     0.037 A 
HETATM   18  C   UNL     1     -43.677 -47.869   7.979  1.00  0.00     0.108 A 
HETATM   19  N   UNL     1     -42.561 -47.999   8.699  1.00  0.00    -0.310 N 
ATOM     20  HN  UNL     1     -41.628 -48.256   8.375  1.00  0.00     0.186 HD
ENDBRANCH  14  15
ENDBRANCH  13  14
ENDBRANCH  11  13
ENDBRANCH   1  11
TORSDOF 7
ENDMDL
MODEL 4
REMARK VINA RESULT:      -5.2      4.078      7.360
REMARK  7 active torsions:
REMARK  status: ('A' for Active; 'I' for Inactive)
REMARK    1  A    between atoms: C_2  and  C_3 
REMARK    2  A    between atoms: C_3  and  N_5 
REMARK       I    between atoms: N_5  and  C_6 
REMARK    3  A    between atoms: C_6  and  C_8 
REMARK    4  A    between atoms: C_8  and  N_10 
REMARK    5  A    between atoms: N_10  and  C_11 
REMARK    6  A    between atoms: C_11  and  C_12 
REMARK    7  A    between atoms: C_12  and  N_13 
ROOT
HETATM    1  C   UNL     1     -42.716 -47.442   9.850  1.00  0.00     0.307 C 
HETATM    2  C   UNL     1     -43.476 -47.507   8.528  1.00  0.00     0.053 C 
ENDROOT
BRANCH   1   3
HETATM    3  C   UNL     1     -42.139 -46.023  10.019  1.00  0.00     0.251 C 
HETATM    4  N   UNL     1     -40.766 -45.990  10.147  1.00  0.00    -0.355 N 
HETATM    5  H   UNL     1     -40.264 -46.855  10.302  1.00  0.00     0.162 HD
HETATM    6  O   UNL     1     -42.846 -45.017  10.023  1.00  0.00    -0.271 OA
BRANCH   4   7
HETATM    7  C   UNL     1     -40.030 -44.735  10.249  1.00  0.00     0.080 C 
HETATM    8  C   UNL     1     -38.823 -44.784   9.313  1.00  0.00     0.032 C 
BRANCH   7   9
HETATM    9  C   UNL     1     -39.634 -44.466  11.710  1.00  0.00     0.020 C 
HETATM   10  C   UNL     1     -40.149 -43.135  12.239  1.00  0.00     0.007 C 
ENDBRANCH   7   9
ENDBRANCH   4   7
ENDBRANCH   1   3
BRANCH   1  11
HETATM   11  N   UNL     1     -41.641 -48.462   9.856  1.00  0.00     0.098 N 
HETATM   12  H   UNL     1     -40.765 -47.960   9.674  1.00  0.00     0.317 HD
BRANCH  11  13
HETATM   13  C   UNL     1     -41.485 -49.139  11.160  1.00  0.00     0.292 C 
BRANCH  13  14
HETATM   14  C   UNL     1     -40.195 -49.949  11.315  1.00  0.00     0.178 C 
BRANCH  14  15
HETATM   15  N   UNL     1     -40.436 -51.209  11.994  1.00  0.00    -0.302 N 
HETATM   16  C   UNL     1     -40.022 -51.559  13.246  1.00  0.00     0.111 A 
HETATM   17  C   UNL     1     -40.471 -52.843  13.448  1.00  0.00     0.037 A 
HETATM   18  C   UNL     1     -41.137 -53.180  12.255  1.00  0.00     0.108 A 
HETATM   19  N   UNL     1     -41.113 -52.188  11.363  1.00  0.00    -0.310 N 
ATOM     20  HN  UNL     1     -41.513 -52.175  10.424  1.00  0.00     0.186 HD
ENDBRANCH  14  15
ENDBRANCH  13  14
ENDBRANCH  11  13
ENDBRANCH   1  11
TORSDOF 7
ENDMDL
MODEL 5
REMARK VINA RESULT:      -5.1      2.579      3.824
REMARK  7 active torsions:
REMARK  status: ('A' for Active; 'I' for Inactive)
REMARK    1  A    between atoms: C_2  and  C_3 
REMARK    2  A    between atoms: C_3  and  N_5 
REMARK       I    between atoms: N_5  and  C_6 
REMARK    3  A    between atoms: C_6  and  C_8 
REMARK    4  A    between atoms: C_8  and  N_10 
REMARK    5  A    between atoms: N_10  and  C_11 
REMARK    6  A    between atoms: C_11  and  C_12 
REMARK    7  A    between atoms: C_12  and  N_13 
ROOT
HETATM    1  C   UNL     1     -41.676 -49.076  12.032  1.00  0.00     0.307 C 
HETATM    2  C   UNL     1     -40.187 -49.238  11.739  1.00  0.00     0.053 C 
ENDROOT
BRANCH   1   3
HETATM    3  C   UNL     1     -42.157 -50.301  12.835  1.00  0.00     0.251 C 
HETATM    4  N   UNL     1     -43.501 -50.575  12.684  1.00  0.00    -0.355 N 
HETATM    5  H   UNL     1     -44.097 -49.892  12.233  1.00  0.00     0.162 HD
HETATM    6  O   UNL     1     -41.401 -50.974  13.533  1.00  0.00    -0.271 OA
BRANCH   4   7
HETATM    7  C   UNL     1     -44.128 -51.733  13.310  1.00  0.00     0.080 C 
HETATM    8  C   UNL     1     -43.972 -52.945  12.393  1.00  0.00     0.032 C 
BRANCH   7   9
HETATM    9  C   UNL     1     -45.597 -51.428  13.644  1.00  0.00     0.020 C 
HETATM   10  C   UNL     1     -46.543 -51.663  12.475  1.00  0.00     0.007 C 
ENDBRANCH   7   9
ENDBRANCH   4   7
ENDBRANCH   1   3
BRANCH   1  11
HETATM   11  N   UNL     1     -42.422 -48.943  10.758  1.00  0.00     0.098 N 
HETATM   12  H   UNL     1     -43.292 -49.475  10.876  1.00  0.00     0.317 HD
BRANCH  11  13
HETATM   13  C   UNL     1     -42.808 -47.551  10.450  1.00  0.00     0.292 C 
BRANCH  13  14
HETATM   14  C   UNL     1     -43.232 -47.307   8.999  1.00  0.00     0.178 C 
BRANCH  14  15
HETATM   15  N   UNL     1     -44.604 -47.719   8.769  1.00  0.00    -0.302 N 
HETATM   16  C   UNL     1     -45.675 -47.502   9.588  1.00  0.00     0.111 A 
HETATM   17  C   UNL     1     -46.752 -48.084   8.963  1.00  0.00     0.037 A 
HETATM   18  C   UNL     1     -46.227 -48.631   7.779  1.00  0.00     0.108 A 
HETATM   19  N   UNL     1     -44.915 -48.416   7.659  1.00  0.00    -0.310 N 
ATOM     20  HN  UNL     1     -44.294 -48.710   6.905  1.00  0.00     0.186 HD
ENDBRANCH  14  15
ENDBRANCH  13  14
ENDBRANCH  11  13
ENDBRANCH   1  11
TORSDOF 7
ENDMDL
MODEL 6
REMARK VINA RESULT:      -5.0      2.725      5.853
REMARK  7 active torsions:
REMARK  status: ('A' for Active; 'I' for Inactive)
REMARK    1  A    between atoms: C_2  and  C_3 
REMARK    2  A    between atoms: C_3  and  N_5 
REMARK       I    between atoms: N_5  and  C_6 
REMARK    3  A    between atoms: C_6  and  C_8 
REMARK    4  A    between atoms: C_8  and  N_10 
REMARK    5  A    between atoms: N_10  and  C_11 
REMARK    6  A    between atoms: C_11  and  C_12 
REMARK    7  A    between atoms: C_12  and  N_13 
ROOT
HETATM    1  C   UNL     1     -39.987 -49.674  11.052  1.00  0.00     0.307 C 
HETATM    2  C   UNL     1     -39.105 -49.553  12.291  1.00  0.00     0.053 C 
ENDROOT
BRANCH   1   3
HETATM    3  C   UNL     1     -40.925 -48.453  10.992  1.00  0.00     0.251 C 
HETATM    4  N   UNL     1     -41.788 -48.463   9.915  1.00  0.00    -0.355 N 
HETATM    5  H   UNL     1     -41.640 -49.132   9.170  1.00  0.00     0.162 HD
HETATM    6  O   UNL     1     -40.908 -47.562  11.840  1.00  0.00    -0.271 OA
BRANCH   4   7
HETATM    7  C   UNL     1     -42.797 -47.428   9.724  1.00  0.00     0.080 C 
HETATM    8  C   UNL     1     -43.841 -47.534  10.834  1.00  0.00     0.032 C 
BRANCH   7   9
HETATM    9  C   UNL     1     -43.413 -47.536   8.320  1.00  0.00     0.020 C 
HETATM   10  C   UNL     1     -44.902 -47.855   8.337  1.00  0.00     0.007 C 
ENDBRANCH   7   9
ENDBRANCH   4   7
ENDBRANCH   1   3
BRANCH   1  11
HETATM   11  N   UNL     1     -40.757 -50.939  11.111  1.00  0.00     0.098 N 
HETATM   12  H   UNL     1     -40.226 -51.627  10.565  1.00  0.00     0.317 HD
BRANCH  11  13
HETATM   13  C   UNL     1     -40.884 -51.483  12.479  1.00  0.00     0.292 C 
BRANCH  13  14
HETATM   14  C   UNL     1     -41.001 -53.007  12.559  1.00  0.00     0.178 C 
BRANCH  14  15
HETATM   15  N   UNL     1     -42.362 -53.421  12.844  1.00  0.00    -0.302 N 
HETATM   16  C   UNL     1     -42.790 -54.160  13.909  1.00  0.00     0.111 A 
HETATM   17  C   UNL     1     -44.147 -54.312  13.744  1.00  0.00     0.037 A 
HETATM   18  C   UNL     1     -44.439 -53.635  12.546  1.00  0.00     0.108 A 
HETATM   19  N   UNL     1     -43.352 -53.095  11.990  1.00  0.00    -0.310 N 
ATOM     20  HN  UNL     1     -43.286 -52.561  11.123  1.00  0.00     0.186 HD
ENDBRANCH  14  15
ENDBRANCH  13  14
ENDBRANCH  11  13
ENDBRANCH   1  11
TORSDOF 7
ENDMDL
MODEL 7
REMARK VINA RESULT:      -4.9      1.964      5.784
REMARK  7 active torsions:
REMARK  status: ('A' for Active; 'I' for Inactive)
REMARK    1  A    between atoms: C_2  and  C_3 
REMARK    2  A    between atoms: C_3  and  N_5 
REMARK       I    between atoms: N_5  and  C_6 
REMARK    3  A    between atoms: C_6  and  C_8 
REMARK    4  A    between atoms: C_8  and  N_10 
REMARK    5  A    between atoms: N_10  and  C_11 
REMARK    6  A    between atoms: C_11  and  C_12 
REMARK    7  A    between atoms: C_12  and  N_13 
ROOT
HETATM    1  C   UNL     1     -41.437 -50.972  12.452  1.00  0.00     0.307 C 
HETATM    2  C   UNL     1     -42.221 -50.339  13.598  1.00  0.00     0.053 C 
ENDROOT
BRANCH   1   3
HETATM    3  C   UNL     1     -41.102 -49.877  11.419  1.00  0.00     0.251 C 
HETATM    4  N   UNL     1     -42.163 -49.048  11.119  1.00  0.00    -0.355 N 
HETATM    5  H   UNL     1     -43.092 -49.304  11.430  1.00  0.00     0.162 HD
HETATM    6  O   UNL     1     -39.982 -49.753  10.926  1.00  0.00    -0.271 OA
BRANCH   4   7
HETATM    7  C   UNL     1     -42.024 -47.912  10.215  1.00  0.00     0.080 C 
HETATM    8  C   UNL     1     -41.321 -46.772  10.949  1.00  0.00     0.032 C 
BRANCH   7   9
HETATM    9  C   UNL     1     -43.398 -47.501   9.660  1.00  0.00     0.020 C 
HETATM   10  C   UNL     1     -43.529 -47.711   8.158  1.00  0.00     0.007 C 
ENDBRANCH   7   9
ENDBRANCH   4   7
ENDBRANCH   1   3
BRANCH   1  11
HETATM   11  N   UNL     1     -42.240 -52.057  11.840  1.00  0.00     0.098 N 
HETATM   12  H   UNL     1     -41.573 -52.682  11.372  1.00  0.00     0.317 HD
BRANCH  11  13
HETATM   13  C   UNL     1     -42.969 -52.875  12.832  1.00  0.00     0.292 C 
BRANCH  13  14
HETATM   14  C   UNL     1     -44.350 -53.356  12.380  1.00  0.00     0.178 C 
BRANCH  14  15
HETATM   15  N   UNL     1     -45.400 -52.843  13.241  1.00  0.00    -0.302 N 
HETATM   16  C   UNL     1     -45.688 -51.534  13.494  1.00  0.00     0.111 A 
HETATM   17  C   UNL     1     -46.745 -51.542  14.373  1.00  0.00     0.037 A 
HETATM   18  C   UNL     1     -47.016 -52.904  14.595  1.00  0.00     0.108 A 
HETATM   19  N   UNL     1     -46.193 -53.702  13.910  1.00  0.00    -0.310 N 
ATOM     20  HN  UNL     1     -46.171 -54.722  13.897  1.00  0.00     0.186 HD
ENDBRANCH  14  15
ENDBRANCH  13  14
ENDBRANCH  11  13
ENDBRANCH   1  11
TORSDOF 7
ENDMDL
MODEL 8
REMARK VINA RESULT:      -4.8      2.716      6.098
REMARK  7 active torsions:
REMARK  status: ('A' for Active; 'I' for Inactive)
REMARK    1  A    between atoms: C_2  and  C_3 
REMARK    2  A    between atoms: C_3  and  N_5 
REMARK       I    between atoms: N_5  and  C_6 
REMARK    3  A    between atoms: C_6  and  C_8 
REMARK    4  A    between atoms: C_8  and  N_10 
REMARK    5  A    between atoms: N_10  and  C_11 
REMARK    6  A    between atoms: C_11  and  C_12 
REMARK    7  A    between atoms: C_12  and  N_13 
ROOT
HETATM    1  C   UNL     1     -41.730 -52.419  13.321  1.00  0.00     0.307 C 
HETATM    2  C   UNL     1     -42.086 -51.186  12.495  1.00  0.00     0.053 C 
ENDROOT
BRANCH   1   3
HETATM    3  C   UNL     1     -40.196 -52.566  13.354  1.00  0.00     0.251 C 
HETATM    4  N   UNL     1     -39.520 -51.363  13.380  1.00  0.00    -0.355 N 
HETATM    5  H   UNL     1     -40.029 -50.507  13.198  1.00  0.00     0.162 HD
HETATM    6  O   UNL     1     -39.636 -53.660  13.370  1.00  0.00    -0.271 OA
BRANCH   4   7
HETATM    7  C   UNL     1     -38.067 -51.296  13.481  1.00  0.00     0.080 C 
HETATM    8  C   UNL     1     -37.687 -50.491  14.723  1.00  0.00     0.032 C 
BRANCH   7   9
HETATM    9  C   UNL     1     -37.469 -50.712  12.191  1.00  0.00     0.020 C 
HETATM   10  C   UNL     1     -38.360 -49.667  11.533  1.00  0.00     0.007 C 
ENDBRANCH   7   9
ENDBRANCH   4   7
ENDBRANCH   1   3
BRANCH   1  11
HETATM   11  N   UNL     1     -42.371 -53.617  12.726  1.00  0.00     0.098 N 
HETATM   12  H   UNL     1     -41.613 -54.279  12.522  1.00  0.00     0.317 HD
BRANCH  11  13
HETATM   13  C   UNL     1     -43.301 -54.300  13.648  1.00  0.00     0.292 C 
BRANCH  13  14
HETATM   14  C   UNL     1     -44.732 -54.451  13.124  1.00  0.00     0.178 C 
BRANCH  14  15
HETATM   15  N   UNL     1     -45.482 -53.216  13.261  1.00  0.00    -0.302 N 
HETATM   16  C   UNL     1     -45.943 -52.659  14.418  1.00  0.00     0.111 A 
HETATM   17  C   UNL     1     -46.603 -51.511  14.048  1.00  0.00     0.037 A 
HETATM   18  C   UNL     1     -46.490 -51.469  12.646  1.00  0.00     0.108 A 
HETATM   19  N   UNL     1     -45.812 -52.511  12.161  1.00  0.00    -0.310 N 
ATOM     20  HN  UNL     1     -45.594 -52.723  11.187  1.00  0.00     0.186 HD
ENDBRANCH  14  15
ENDBRANCH  13  14
ENDBRANCH  11  13
ENDBRANCH   1  11
TORSDOF 7
ENDMDL
MODEL 9
REMARK VINA RESULT:      -4.8      2.106      2.720
REMARK  7 active torsions:
REMARK  status: ('A' for Active; 'I' for Inactive)
REMARK    1  A    between atoms: C_2  and  C_3 
REMARK    2  A    between atoms: C_3  and  N_5 
REMARK       I    between atoms: N_5  and  C_6 
REMARK    3  A    between atoms: C_6  and  C_8 
REMARK    4  A    between atoms: C_8  and  N_10 
REMARK    5  A    between atoms: N_10  and  C_11 
REMARK    6  A    between atoms: C_11  and  C_12 
REMARK    7  A    between atoms: C_12  and  N_13 
ROOT
HETATM    1  C   UNL     1     -41.910 -50.578  12.568  1.00  0.00     0.307 C 
HETATM    2  C   UNL     1     -40.640 -51.248  12.051  1.00  0.00     0.053 C 
ENDROOT
BRANCH   1   3
HETATM    3  C   UNL     1     -42.952 -51.669  12.884  1.00  0.00     0.251 C 
HETATM    4  N   UNL     1     -44.242 -51.193  12.995  1.00  0.00    -0.355 N 
HETATM    5  H   UNL     1     -44.398 -50.194  13.047  1.00  0.00     0.162 HD
HETATM    6  O   UNL     1     -42.651 -52.854  13.009  1.00  0.00    -0.271 OA
BRANCH   4   7
HETATM    7  C   UNL     1     -45.375 -52.082  13.225  1.00  0.00     0.080 C 
HETATM    8  C   UNL     1     -46.564 -51.604  12.391  1.00  0.00     0.032 C 
BRANCH   7   9
HETATM    9  C   UNL     1     -45.698 -52.159  14.726  1.00  0.00     0.020 C 
HETATM   10  C   UNL     1     -46.973 -51.421  15.108  1.00  0.00     0.007 C 
ENDBRANCH   7   9
ENDBRANCH   4   7
ENDBRANCH   1   3
BRANCH   1  11
HETATM   11  N   UNL     1     -42.420 -49.628  11.550  1.00  0.00     0.098 N 
HETATM   12  H   UNL     1     -43.204 -49.130  11.985  1.00  0.00     0.317 HD
BRANCH  11  13
HETATM   13  C   UNL     1     -41.428 -48.606  11.156  1.00  0.00     0.292 C 
BRANCH  13  14
HETATM   14  C   UNL     1     -41.986 -47.464  10.301  1.00  0.00     0.178 C 
BRANCH  14  15
HETATM   15  N   UNL     1     -41.278 -46.221  10.547  1.00  0.00    -0.302 N 
HETATM   16  C   UNL     1     -41.801 -45.063  11.045  1.00  0.00     0.111 A 
HETATM   17  C   UNL     1     -40.760 -44.165  11.085  1.00  0.00     0.037 A 
HETATM   18  C   UNL     1     -39.654 -44.876  10.584  1.00  0.00     0.108 A 
HETATM   19  N   UNL     1     -39.967 -46.130  10.249  1.00  0.00    -0.310 N 
ATOM     20  HN  UNL     1     -39.357 -46.849   9.859  1.00  0.00     0.186 HD
ENDBRANCH  14  15
ENDBRANCH  13  14
ENDBRANCH  11  13
ENDBRANCH   1  11
TORSDOF 7
ENDMDL
