MODEL 1
REMARK VINA RESULT:      -6.1      0.000      0.000
REMARK  6 active torsions:
REMARK  status: ('A' for Active; 'I' for Inactive)
REMARK    1  A    between atoms: O_1  and  C_2 
REMARK    2  A    between atoms: C_2  and  C_4 
REMARK    3  A    between atoms: C_4  and  N_5 
REMARK       I    between atoms: N_5  and  C_6 
REMARK    4  A    between atoms: C_6  and  C_8 
REMARK    5  A    between atoms: C_8  and  N_9 
REMARK    6  A    between atoms: C_11  and  C_17 
ROOT
HETATM    1  N   UNL     1     -45.043 -53.549  14.653  1.00  0.00    -0.314 N 
HETATM    2  C   UNL     1     -45.533 -52.883  15.765  1.00  0.00     0.111 A 
HETATM    3  C   UNL     1     -46.415 -51.873  15.656  1.00  0.00     0.065 A 
HETATM    4  C   UNL     1     -46.856 -51.473  14.329  1.00  0.00     0.047 A 
HETATM    5  C   UNL     1     -46.430 -52.113  13.232  1.00  0.00     0.102 A 
HETATM    6 CL   UNL     1     -46.925 -51.624  11.662  1.00  0.00    -0.078 Cl
HETATM    7  C   UNL     1     -45.489 -53.276  13.357  1.00  0.00     0.269 A 
HETATM    8  O   UNL     1     -45.145 -53.955  12.391  1.00  0.00    -0.266 OA
ENDROOT
BRANCH   1   9
HETATM    9  C   UNL     1     -44.028 -54.588  14.826  1.00  0.00     0.234 C 
BRANCH   9  10
HETATM   10  C   UNL     1     -42.634 -54.010  14.607  1.00  0.00     0.236 C 
HETATM   11  N   UNL     1     -42.057 -54.318  13.392  1.00  0.00    -0.350 N 
HETATM   12  H   UNL     1     -42.584 -54.857  12.706  1.00  0.00     0.163 HD
HETATM   13  O   UNL     1     -42.026 -53.417  15.494  1.00  0.00    -0.272 OA
BRANCH  11  14
HETATM   14  C   UNL     1     -40.743 -53.791  13.023  1.00  0.00     0.232 C 
BRANCH  14  15
HETATM   15  C   UNL     1     -40.826 -52.465  12.271  1.00  0.00     0.158 C 
HETATM   16  O   UNL     1     -40.597 -51.377  12.778  1.00  0.00    -0.649 OA
BRANCH  15  17
HETATM   17  O   UNL     1     -41.226 -52.597  10.982  1.00  0.00    -0.775 OA
HETATM   18  H   UNL     1     -41.739 -51.806  10.717  1.00  0.00     0.167 HD
ENDBRANCH  15  17
ENDBRANCH  14  15
ENDBRANCH  11  14
ENDBRANCH   9  10
ENDBRANCH   1   9
BRANCH   3  19
HETATM   19  C   UNL     1     -46.918 -51.129  16.863  1.00  0.00     0.418 C 
HETATM   20  F   UNL     1     -48.196 -50.691  16.721  1.00  0.00    -0.166 F 
HETATM   21  F   UNL     1     -46.889 -51.898  17.980  1.00  0.00    -0.166 F 
HETATM   22  F   UNL     1     -46.157 -50.034  17.118  1.00  0.00    -0.166 F 
ENDBRANCH   3  19
TORSDOF 6
ENDMDL
MODEL 2
REMARK VINA RESULT:      -5.9      4.538      5.548
REMARK  6 active torsions:
REMARK  status: ('A' for Active; 'I' for Inactive)
REMARK    1  A    between atoms: O_1  and  C_2 
REMARK    2  A    between atoms: C_2  and  C_4 
REMARK    3  A    between atoms: C_4  and  N_5 
REMARK       I    between atoms: N_5  and  C_6 
REMARK    4  A    between atoms: C_6  and  C_8 
REMARK    5  A    between atoms: C_8  and  N_9 
REMARK    6  A    between atoms: C_11  and  C_17 
ROOT
HETATM    1  N   UNL     1     -42.919 -50.237  13.013  1.00  0.00    -0.314 N 
HETATM    2  C   UNL     1     -44.290 -50.374  13.164  1.00  0.00     0.111 A 
HETATM    3  C   UNL     1     -44.877 -51.582  13.253  1.00  0.00     0.065 A 
HETATM    4  C   UNL     1     -44.040 -52.770  13.184  1.00  0.00     0.047 A 
HETATM    5  C   UNL     1     -42.709 -52.677  13.070  1.00  0.00     0.102 A 
HETATM    6 CL   UNL     1     -41.721 -54.078  12.957  1.00  0.00    -0.078 Cl
HETATM    7  C   UNL     1     -42.049 -51.330  13.026  1.00  0.00     0.269 A 
HETATM    8  O   UNL     1     -40.827 -51.192  13.020  1.00  0.00    -0.266 OA
ENDROOT
BRANCH   1   9
HETATM    9  C   UNL     1     -42.344 -48.902  12.844  1.00  0.00     0.234 C 
BRANCH   9  10
HETATM   10  C   UNL     1     -42.273 -48.539  11.364  1.00  0.00     0.236 C 
HETATM   11  N   UNL     1     -43.434 -48.011  10.836  1.00  0.00    -0.350 N 
HETATM   12  H   UNL     1     -44.237 -47.851  11.443  1.00  0.00     0.163 HD
HETATM   13  O   UNL     1     -41.297 -48.809  10.670  1.00  0.00    -0.272 OA
BRANCH  11  14
HETATM   14  C   UNL     1     -43.499 -47.570   9.442  1.00  0.00     0.232 C 
BRANCH  14  15
HETATM   15  C   UNL     1     -43.096 -46.108   9.264  1.00  0.00     0.158 C 
HETATM   16  O   UNL     1     -43.878 -45.217   8.969  1.00  0.00    -0.649 OA
BRANCH  15  17
HETATM   17  O   UNL     1     -41.767 -45.888   9.418  1.00  0.00    -0.775 OA
HETATM   18  H   UNL     1     -41.505 -45.100   8.899  1.00  0.00     0.167 HD
ENDBRANCH  15  17
ENDBRANCH  14  15
ENDBRANCH  11  14
ENDBRANCH   9  10
ENDBRANCH   1   9
BRANCH   3  19
HETATM   19  C   UNL     1     -46.369 -51.728  13.381  1.00  0.00     0.418 C 
HETATM   20  F   UNL     1     -46.889 -50.984  14.390  1.00  0.00    -0.166 F 
HETATM   21  F   UNL     1     -47.012 -51.356  12.247  1.00  0.00    -0.166 F 
HETATM   22  F   UNL     1     -46.716 -53.017  13.627  1.00  0.00    -0.166 F 
ENDBRANCH   3  19
TORSDOF 6
ENDMDL
MODEL 3
REMARK VINA RESULT:      -5.8      1.745      2.222
REMARK  6 active torsions:
REMARK  status: ('A' for Active; 'I' for Inactive)
REMARK    1  A    between atoms: O_1  and  C_2 
REMARK    2  A    between atoms: C_2  and  C_4 
REMARK    3  A    between atoms: C_4  and  N_5 
REMARK       I    between atoms: N_5  and  C_6 
REMARK    4  A    between atoms: C_6  and  C_8 
REMARK    5  A    between atoms: C_8  and  N_9 
REMARK    6  A    between atoms: C_11  and  C_17 
ROOT
HETATM    1  N   UNL     1     -44.612 -53.675  14.638  1.00  0.00    -0.314 N 
HETATM    2  C   UNL     1     -44.892 -52.878  15.737  1.00  0.00     0.111 A 
HETATM    3  C   UNL     1     -45.736 -51.833  15.659  1.00  0.00     0.065 A 
HETATM    4  C   UNL     1     -46.363 -51.537  14.380  1.00  0.00     0.047 A 
HETATM    5  C   UNL     1     -46.143 -52.303  13.304  1.00  0.00     0.102 A 
HETATM    6 CL   UNL     1     -46.858 -51.938  11.785  1.00  0.00    -0.078 Cl
HETATM    7  C   UNL     1     -45.245 -53.502  13.404  1.00  0.00     0.269 A 
HETATM    8  O   UNL     1     -45.087 -54.289  12.473  1.00  0.00    -0.266 OA
ENDROOT
BRANCH   1   9
HETATM    9  C   UNL     1     -43.629 -54.751  14.761  1.00  0.00     0.234 C 
BRANCH   9  10
HETATM   10  C   UNL     1     -42.228 -54.223  14.470  1.00  0.00     0.236 C 
HETATM   11  N   UNL     1     -41.362 -54.240  15.545  1.00  0.00    -0.350 N 
HETATM   12  H   UNL     1     -41.672 -54.629  16.435  1.00  0.00     0.163 HD
HETATM   13  O   UNL     1     -41.931 -53.712  13.394  1.00  0.00    -0.272 OA
BRANCH  11  14
HETATM   14  C   UNL     1     -39.971 -53.810  15.403  1.00  0.00     0.232 C 
BRANCH  14  15
HETATM   15  C   UNL     1     -39.085 -54.873  14.758  1.00  0.00     0.158 C 
HETATM   16  O   UNL     1     -38.586 -55.807  15.368  1.00  0.00    -0.649 OA
BRANCH  15  17
HETATM   17  O   UNL     1     -38.860 -54.664  13.437  1.00  0.00    -0.775 OA
HETATM   18  H   UNL     1     -39.116 -53.748  13.204  1.00  0.00     0.167 HD
ENDBRANCH  15  17
ENDBRANCH  14  15
ENDBRANCH  11  14
ENDBRANCH   9  10
ENDBRANCH   1   9
BRANCH   3  19
HETATM   19  C   UNL     1     -46.010 -50.948  16.845  1.00  0.00     0.418 C 
HETATM   20  F   UNL     1     -45.737 -51.552  18.030  1.00  0.00    -0.166 F 
HETATM   21  F   UNL     1     -45.275 -49.809  16.806  1.00  0.00    -0.166 F 
HETATM   22  F   UNL     1     -47.314 -50.575  16.888  1.00  0.00    -0.166 F 
ENDBRANCH   3  19
TORSDOF 6
ENDMDL
MODEL 4
REMARK VINA RESULT:      -5.8      5.947      7.341
REMARK  6 active torsions:
REMARK  status: ('A' for Active; 'I' for Inactive)
REMARK    1  A    between atoms: O_1  and  C_2 
REMARK    2  A    between atoms: C_2  and  C_4 
REMARK    3  A    between atoms: C_4  and  N_5 
REMARK       I    between atoms: N_5  and  C_6 
REMARK    4  A    between atoms: C_6  and  C_8 
REMARK    5  A    between atoms: C_8  and  N_9 
REMARK    6  A    between atoms: C_11  and  C_17 
ROOT
HETATM    1  N   UNL     1     -41.253 -47.894  10.796  1.00  0.00    -0.314 N 
HETATM    2  C   UNL     1     -42.435 -47.975  10.078  1.00  0.00     0.111 A 
HETATM    3  C   UNL     1     -43.216 -46.899   9.874  1.00  0.00     0.065 A 
HETATM    4  C   UNL     1     -42.801 -45.620  10.428  1.00  0.00     0.047 A 
HETATM    5  C   UNL     1     -41.649 -45.495  11.100  1.00  0.00     0.102 A 
HETATM    6 CL   UNL     1     -41.170 -43.993  11.783  1.00  0.00    -0.078 Cl
HETATM    7  C   UNL     1     -40.750 -46.684  11.282  1.00  0.00     0.269 A 
HETATM    8  O   UNL     1     -39.641 -46.600  11.805  1.00  0.00    -0.266 OA
ENDROOT
BRANCH   1   9
HETATM    9  C   UNL     1     -40.482 -49.110  11.054  1.00  0.00     0.234 C 
BRANCH   9  10
HETATM   10  C   UNL     1     -41.202 -49.988  12.072  1.00  0.00     0.236 C 
HETATM   11  N   UNL     1     -41.660 -51.195  11.584  1.00  0.00    -0.350 N 
HETATM   12  H   UNL     1     -41.464 -51.454  10.618  1.00  0.00     0.163 HD
HETATM   13  O   UNL     1     -41.460 -49.597  13.207  1.00  0.00    -0.272 OA
BRANCH  11  14
HETATM   14  C   UNL     1     -42.326 -52.162  12.458  1.00  0.00     0.232 C 
BRANCH  14  15
HETATM   15  C   UNL     1     -41.509 -53.435  12.664  1.00  0.00     0.158 C 
HETATM   16  O   UNL     1     -41.679 -54.211  13.592  1.00  0.00    -0.649 OA
BRANCH  15  17
HETATM   17  O   UNL     1     -40.533 -53.610  11.739  1.00  0.00    -0.775 OA
HETATM   18  H   UNL     1     -40.926 -53.587  10.842  1.00  0.00     0.167 HD
ENDBRANCH  15  17
ENDBRANCH  14  15
ENDBRANCH  11  14
ENDBRANCH   9  10
ENDBRANCH   1   9
BRANCH   3  19
HETATM   19  C   UNL     1     -44.518 -46.998   9.124  1.00  0.00     0.418 C 
HETATM   20  F   UNL     1     -45.509 -47.566   9.858  1.00  0.00    -0.166 F 
HETATM   21  F   UNL     1     -44.969 -45.780   8.732  1.00  0.00    -0.166 F 
HETATM   22  F   UNL     1     -44.383 -47.749   8.003  1.00  0.00    -0.166 F 
ENDBRANCH   3  19
TORSDOF 6
ENDMDL
MODEL 5
REMARK VINA RESULT:      -5.7      3.413      4.562
REMARK  6 active torsions:
REMARK  status: ('A' for Active; 'I' for Inactive)
REMARK    1  A    between atoms: O_1  and  C_2 
REMARK    2  A    between atoms: C_2  and  C_4 
REMARK    3  A    between atoms: C_4  and  N_5 
REMARK       I    between atoms: N_5  and  C_6 
REMARK    4  A    between atoms: C_6  and  C_8 
REMARK    5  A    between atoms: C_8  and  N_9 
REMARK    6  A    between atoms: C_11  and  C_17 
ROOT
HETATM    1  N   UNL     1     -42.105 -53.163  12.831  1.00  0.00    -0.314 N 
HETATM    2  C   UNL     1     -43.380 -52.652  12.645  1.00  0.00     0.111 A 
HETATM    3  C   UNL     1     -44.427 -53.074  13.377  1.00  0.00     0.065 A 
HETATM    4  C   UNL     1     -44.206 -54.099  14.385  1.00  0.00     0.047 A 
HETATM    5  C   UNL     1     -42.983 -54.595  14.616  1.00  0.00     0.102 A 
HETATM    6 CL   UNL     1     -42.723 -55.827  15.784  1.00  0.00    -0.078 Cl
HETATM    7  C   UNL     1     -41.805 -54.084  13.838  1.00  0.00     0.269 A 
HETATM    8  O   UNL     1     -40.652 -54.436  14.078  1.00  0.00    -0.266 OA
ENDROOT
BRANCH   1   9
HETATM    9  C   UNL     1     -41.019 -52.724  11.955  1.00  0.00     0.234 C 
BRANCH   9  10
HETATM   10  C   UNL     1     -40.722 -51.245  12.179  1.00  0.00     0.236 C 
HETATM   11  N   UNL     1     -40.820 -50.452  11.054  1.00  0.00    -0.350 N 
HETATM   12  H   UNL     1     -41.118 -50.865  10.171  1.00  0.00     0.163 HD
HETATM   13  O   UNL     1     -40.311 -50.816  13.254  1.00  0.00    -0.272 OA
BRANCH  11  14
HETATM   14  C   UNL     1     -40.612 -49.006  11.127  1.00  0.00     0.232 C 
BRANCH  14  15
HETATM   15  C   UNL     1     -41.808 -48.208  10.614  1.00  0.00     0.158 C 
HETATM   16  O   UNL     1     -42.573 -47.586  11.336  1.00  0.00    -0.649 OA
BRANCH  15  17
HETATM   17  O   UNL     1     -41.979 -48.287   9.271  1.00  0.00    -0.775 OA
HETATM   18  H   UNL     1     -42.424 -49.131   9.048  1.00  0.00     0.167 HD
ENDBRANCH  15  17
ENDBRANCH  14  15
ENDBRANCH  11  14
ENDBRANCH   9  10
ENDBRANCH   1   9
BRANCH   3  19
HETATM   19  C   UNL     1     -45.817 -52.543  13.148  1.00  0.00     0.418 C 
HETATM   20  F   UNL     1     -46.762 -53.211  13.857  1.00  0.00    -0.166 F 
HETATM   21  F   UNL     1     -45.920 -51.235  13.492  1.00  0.00    -0.166 F 
HETATM   22  F   UNL     1     -46.169 -52.636  11.841  1.00  0.00    -0.166 F 
ENDBRANCH   3  19
TORSDOF 6
ENDMDL
MODEL 6
REMARK VINA RESULT:      -5.6      5.794      7.209
REMARK  6 active torsions:
REMARK  status: ('A' for Active; 'I' for Inactive)
REMARK    1  A    between atoms: O_1  and  C_2 
REMARK    2  A    between atoms: C_2  and  C_4 
REMARK    3  A    between atoms: C_4  and  N_5 
REMARK       I    between atoms: N_5  and  C_6 
REMARK    4  A    between atoms: C_6  and  C_8 
REMARK    5  A    between atoms: C_8  and  N_9 
REMARK    6  A    between atoms: C_11  and  C_17 
ROOT
HETATM    1  N   UNL     1     -42.221 -48.005  11.796  1.00  0.00    -0.314 N 
HETATM    2  C   UNL     1     -43.350 -47.968  10.993  1.00  0.00     0.111 A 
HETATM    3  C   UNL     1     -43.481 -47.078   9.992  1.00  0.00     0.065 A 
HETATM    4  C   UNL     1     -42.403 -46.130   9.757  1.00  0.00     0.047 A 
HETATM    5  C   UNL     1     -41.282 -46.155  10.490  1.00  0.00     0.102 A 
HETATM    6 CL   UNL     1     -40.021 -45.018  10.235  1.00  0.00    -0.078 Cl
HETATM    7  C   UNL     1     -41.113 -47.183  11.571  1.00  0.00     0.269 A 
HETATM    8  O   UNL     1     -40.067 -47.309  12.206  1.00  0.00    -0.266 OA
ENDROOT
BRANCH   1   9
HETATM    9  C   UNL     1     -42.166 -48.942  12.918  1.00  0.00     0.234 C 
BRANCH   9  10
HETATM   10  C   UNL     1     -42.026 -50.372  12.408  1.00  0.00     0.236 C 
HETATM   11  N   UNL     1     -42.993 -51.250  12.856  1.00  0.00    -0.350 N 
HETATM   12  H   UNL     1     -43.750 -50.906  13.446  1.00  0.00     0.163 HD
HETATM   13  O   UNL     1     -41.059 -50.740  11.747  1.00  0.00    -0.272 OA
BRANCH  11  14
HETATM   14  C   UNL     1     -43.015 -52.643  12.411  1.00  0.00     0.232 C 
BRANCH  14  15
HETATM   15  C   UNL     1     -44.423 -53.232  12.378  1.00  0.00     0.158 C 
HETATM   16  O   UNL     1     -44.669 -54.419  12.529  1.00  0.00    -0.649 OA
BRANCH  15  17
HETATM   17  O   UNL     1     -45.388 -52.317  12.116  1.00  0.00    -0.775 OA
HETATM   18  H   UNL     1     -45.002 -51.568  11.618  1.00  0.00     0.167 HD
ENDBRANCH  15  17
ENDBRANCH  14  15
ENDBRANCH  11  14
ENDBRANCH   9  10
ENDBRANCH   1   9
BRANCH   3  19
HETATM   19  C   UNL     1     -44.723 -47.018   9.146  1.00  0.00     0.418 C 
HETATM   20  F   UNL     1     -45.001 -45.765   8.702  1.00  0.00    -0.166 F 
HETATM   21  F   UNL     1     -44.627 -47.810   8.049  1.00  0.00    -0.166 F 
HETATM   22  F   UNL     1     -45.812 -47.436   9.840  1.00  0.00    -0.166 F 
ENDBRANCH   3  19
TORSDOF 6
ENDMDL
MODEL 7
REMARK VINA RESULT:      -5.6      3.646      4.998
REMARK  6 active torsions:
REMARK  status: ('A' for Active; 'I' for Inactive)
REMARK    1  A    between atoms: O_1  and  C_2 
REMARK    2  A    between atoms: C_2  and  C_4 
REMARK    3  A    between atoms: C_4  and  N_5 
REMARK       I    between atoms: N_5  and  C_6 
REMARK    4  A    between atoms: C_6  and  C_8 
REMARK    5  A    between atoms: C_8  and  N_9 
REMARK    6  A    between atoms: C_11  and  C_17 
ROOT
HETATM    1  N   UNL     1     -41.714 -53.607  13.114  1.00  0.00    -0.314 N 
HETATM    2  C   UNL     1     -43.092 -53.752  13.084  1.00  0.00     0.111 A 
HETATM    3  C   UNL     1     -43.756 -54.420  14.044  1.00  0.00     0.065 A 
HETATM    4  C   UNL     1     -42.998 -55.006  15.138  1.00  0.00     0.047 A 
HETATM    5  C   UNL     1     -41.669 -54.860  15.220  1.00  0.00     0.102 A 
HETATM    6 CL   UNL     1     -40.767 -55.577  16.493  1.00  0.00    -0.078 Cl
HETATM    7  C   UNL     1     -40.933 -54.068  14.178  1.00  0.00     0.269 A 
HETATM    8  O   UNL     1     -39.731 -53.825  14.259  1.00  0.00    -0.266 OA
ENDROOT
BRANCH   1   9
HETATM    9  C   UNL     1     -41.036 -52.938  12.004  1.00  0.00     0.234 C 
BRANCH   9  10
HETATM   10  C   UNL     1     -40.966 -51.435  12.254  1.00  0.00     0.236 C 
HETATM   11  N   UNL     1     -42.041 -50.713  11.777  1.00  0.00    -0.350 N 
HETATM   12  H   UNL     1     -42.821 -51.201  11.339  1.00  0.00     0.163 HD
HETATM   13  O   UNL     1     -39.973 -50.897  12.735  1.00  0.00    -0.272 OA
BRANCH  11  14
HETATM   14  C   UNL     1     -42.135 -49.268  11.988  1.00  0.00     0.232 C 
BRANCH  14  15
HETATM   15  C   UNL     1     -41.497 -48.462  10.860  1.00  0.00     0.158 C 
HETATM   16  O   UNL     1     -42.104 -48.068   9.875  1.00  0.00    -0.649 OA
BRANCH  15  17
HETATM   17  O   UNL     1     -40.167 -48.256  11.024  1.00  0.00    -0.775 OA
HETATM   18  H   UNL     1     -39.914 -47.408  10.604  1.00  0.00     0.167 HD
ENDBRANCH  15  17
ENDBRANCH  14  15
ENDBRANCH  11  14
ENDBRANCH   9  10
ENDBRANCH   1   9
BRANCH   3  19
HETATM   19  C   UNL     1     -45.249 -54.606  13.989  1.00  0.00     0.418 C 
HETATM   20  F   UNL     1     -45.854 -53.774  13.103  1.00  0.00    -0.166 F 
HETATM   21  F   UNL     1     -45.588 -55.870  13.635  1.00  0.00    -0.166 F 
HETATM   22  F   UNL     1     -45.818 -54.369  15.198  1.00  0.00    -0.166 F 
ENDBRANCH   3  19
TORSDOF 6
ENDMDL
MODEL 8
REMARK VINA RESULT:      -5.5      5.483      7.277
REMARK  6 active torsions:
REMARK  status: ('A' for Active; 'I' for Inactive)
REMARK    1  A    between atoms: O_1  and  C_2 
REMARK    2  A    between atoms: C_2  and  C_4 
REMARK    3  A    between atoms: C_4  and  N_5 
REMARK       I    between atoms: N_5  and  C_6 
REMARK    4  A    between atoms: C_6  and  C_8 
REMARK    5  A    between atoms: C_8  and  N_9 
REMARK    6  A    between atoms: C_11  and  C_17 
ROOT
HETATM    1  N   UNL     1     -39.901 -50.525  12.320  1.00  0.00    -0.314 N 
HETATM    2  C   UNL     1     -40.615 -51.710  12.391  1.00  0.00     0.111 A 
HETATM    3  C   UNL     1     -40.508 -52.541  13.444  1.00  0.00     0.065 A 
HETATM    4  C   UNL     1     -39.612 -52.176  14.531  1.00  0.00     0.047 A 
HETATM    5  C   UNL     1     -38.930 -51.024  14.514  1.00  0.00     0.102 A 
HETATM    6 CL   UNL     1     -37.849 -50.605  15.780  1.00  0.00    -0.078 Cl
HETATM    7  C   UNL     1     -39.091 -50.071  13.364  1.00  0.00     0.269 A 
HETATM    8  O   UNL     1     -38.563 -48.961  13.347  1.00  0.00    -0.266 OA
ENDROOT
BRANCH   1   9
HETATM    9  C   UNL     1     -39.997 -49.698  11.116  1.00  0.00     0.234 C 
BRANCH   9  10
HETATM   10  C   UNL     1     -41.307 -48.919  11.112  1.00  0.00     0.236 C 
HETATM   11  N   UNL     1     -41.694 -48.433   9.879  1.00  0.00    -0.350 N 
HETATM   12  H   UNL     1     -41.134 -48.648   9.055  1.00  0.00     0.163 HD
HETATM   13  O   UNL     1     -41.908 -48.643  12.146  1.00  0.00    -0.272 OA
BRANCH  11  14
HETATM   14  C   UNL     1     -42.955 -47.709   9.712  1.00  0.00     0.232 C 
BRANCH  14  15
HETATM   15  C   UNL     1     -43.235 -47.332   8.260  1.00  0.00     0.158 C 
HETATM   16  O   UNL     1     -43.733 -48.092   7.442  1.00  0.00    -0.649 OA
BRANCH  15  17
HETATM   17  O   UNL     1     -42.834 -46.078   7.937  1.00  0.00    -0.775 OA
HETATM   18  H   UNL     1     -43.449 -45.700   7.275  1.00  0.00     0.167 HD
ENDBRANCH  15  17
ENDBRANCH  14  15
ENDBRANCH  11  14
ENDBRANCH   9  10
ENDBRANCH   1   9
BRANCH   3  19
HETATM   19  C   UNL     1     -41.257 -53.845  13.502  1.00  0.00     0.418 C 
HETATM   20  F   UNL     1     -41.021 -54.639  12.427  1.00  0.00    -0.166 F 
HETATM   21  F   UNL     1     -40.930 -54.567  14.603  1.00  0.00    -0.166 F 
HETATM   22  F   UNL     1     -42.597 -53.639  13.549  1.00  0.00    -0.166 F 
ENDBRANCH   3  19
TORSDOF 6
ENDMDL
MODEL 9
REMARK VINA RESULT:      -5.4      4.350      5.808
REMARK  6 active torsions:
REMARK  status: ('A' for Active; 'I' for Inactive)
REMARK    1  A    between atoms: O_1  and  C_2 
REMARK    2  A    between atoms: C_2  and  C_4 
REMARK    3  A    between atoms: C_4  and  N_5 
REMARK       I    between atoms: N_5  and  C_6 
REMARK    4  A    between atoms: C_6  and  C_8 
REMARK    5  A    between atoms: C_8  and  N_9 
REMARK    6  A    between atoms: C_11  and  C_17 
ROOT
HETATM    1  N   UNL     1     -41.120 -51.995  12.522  1.00  0.00    -0.314 N 
HETATM    2  C   UNL     1     -42.480 -52.262  12.498  1.00  0.00     0.111 A 
HETATM    3  C   UNL     1     -43.012 -53.297  13.174  1.00  0.00     0.065 A 
HETATM    4  C   UNL     1     -42.127 -54.155  13.945  1.00  0.00     0.047 A 
HETATM    5  C   UNL     1     -40.812 -53.911  14.020  1.00  0.00     0.102 A 
HETATM    6 CL   UNL     1     -39.760 -54.940  14.904  1.00  0.00    -0.078 Cl
HETATM    7  C   UNL     1     -40.226 -52.725  13.310  1.00  0.00     0.269 A 
HETATM    8  O   UNL     1     -39.045 -52.403  13.426  1.00  0.00    -0.266 OA
ENDROOT
BRANCH   1   9
HETATM    9  C   UNL     1     -40.586 -50.904  11.707  1.00  0.00     0.234 C 
BRANCH   9  10
HETATM   10  C   UNL     1     -41.351 -49.614  11.981  1.00  0.00     0.236 C 
HETATM   11  N   UNL     1     -42.021 -49.090  10.894  1.00  0.00    -0.350 N 
HETATM   12  H   UNL     1     -42.011 -49.592  10.007  1.00  0.00     0.163 HD
HETATM   13  O   UNL     1     -41.277 -49.025  13.056  1.00  0.00    -0.272 OA
BRANCH  11  14
HETATM   14  C   UNL     1     -42.837 -47.882  11.019  1.00  0.00     0.232 C 
BRANCH  14  15
HETATM   15  C   UNL     1     -43.580 -47.533   9.731  1.00  0.00     0.158 C 
HETATM   16  O   UNL     1     -44.766 -47.242   9.685  1.00  0.00    -0.649 OA
BRANCH  15  17
HETATM   17  O   UNL     1     -42.809 -47.620   8.619  1.00  0.00    -0.775 OA
HETATM   18  H   UNL     1     -42.110 -46.935   8.652  1.00  0.00     0.167 HD
ENDBRANCH  15  17
ENDBRANCH  14  15
ENDBRANCH  11  14
ENDBRANCH   9  10
ENDBRANCH   1   9
BRANCH   3  19
HETATM   19  C   UNL     1     -44.484 -53.604  13.116  1.00  0.00     0.418 C 
HETATM   20  F   UNL     1     -44.745 -54.936  13.072  1.00  0.00    -0.166 F 
HETATM   21  F   UNL     1     -45.146 -53.111  14.192  1.00  0.00    -0.166 F 
HETATM   22  F   UNL     1     -45.058 -53.057  12.015  1.00  0.00    -0.166 F 
ENDBRANCH   3  19
TORSDOF 6
ENDMDL
