MODEL 1
REMARK VINA RESULT:      -5.2      0.000      0.000
REMARK  3 active torsions:
REMARK  status: ('A' for Active; 'I' for Inactive)
REMARK    1  A    between atoms: N_4  and  C_8 
REMARK    2  A    between atoms: C_10  and  C_11 
REMARK    3  A    between atoms: C_11  and  N_12 
ROOT
HETATM    1  C   UNL     1     -43.267 -53.292  13.130  1.00  0.00     0.103 A 
HETATM    2  C   UNL     1     -42.324 -53.952  13.921  1.00  0.00     0.057 A 
HETATM    3  C   UNL     1     -40.957 -53.874  13.629  1.00  0.00    -0.026 A 
HETATM    4  C   UNL     1     -40.572 -53.110  12.532  1.00  0.00     0.026 A 
HETATM    5  C   UNL     1     -41.557 -52.495  11.782  1.00  0.00     0.090 A 
HETATM    6  N   UNL     1     -42.881 -52.581  12.052  1.00  0.00    -0.352 N 
ATOM      7  HN  UNL     1     -43.568 -52.120  11.455  1.00  0.00     0.166 HD
ENDROOT
BRANCH   1   8
HETATM    8  N   UNL     1     -44.604 -53.431  13.403  1.00  0.00    -0.363 N 
HETATM    9  C   UNL     1     -45.143 -54.709  13.870  1.00  0.00     0.155 C 
HETATM   10  C   UNL     1     -46.203 -54.401  14.958  1.00  0.00     0.135 C 
HETATM   11  C   UNL     1     -45.556 -53.908  16.256  1.00  0.00     0.041 C 
HETATM   12  O   UNL     1     -47.208 -53.470  14.491  1.00  0.00    -0.383 OA
HETATM   13  C   UNL     1     -46.652 -52.259  13.951  1.00  0.00     0.188 C 
HETATM   14  C   UNL     1     -45.620 -52.540  12.849  1.00  0.00     0.150 C 
ENDBRANCH   1   8
BRANCH   3  15
HETATM   15  C   UNL     1     -39.952 -54.583  14.492  1.00  0.00     0.305 C 
BRANCH  15  16
HETATM   16  N   UNL     1     -38.775 -54.997  13.735  1.00  0.00     0.082 N 
HETATM   17  H   UNL     1     -38.811 -56.008  13.605  1.00  0.00     0.313 HD
HETATM   18  H   UNL     1     -37.945 -54.809  14.290  1.00  0.00     0.313 HD
ENDBRANCH  15  16
ENDBRANCH   3  15
TORSDOF 3
ENDMDL
MODEL 2
REMARK VINA RESULT:      -5.0      5.439      7.734
REMARK  3 active torsions:
REMARK  status: ('A' for Active; 'I' for Inactive)
REMARK    1  A    between atoms: N_4  and  C_8 
REMARK    2  A    between atoms: C_10  and  C_11 
REMARK    3  A    between atoms: C_11  and  N_12 
ROOT
HETATM    1  C   UNL     1     -40.589 -48.867  11.362  1.00  0.00     0.103 A 
HETATM    2  C   UNL     1     -40.001 -47.602  11.305  1.00  0.00     0.057 A 
HETATM    3  C   UNL     1     -40.707 -46.499  10.810  1.00  0.00    -0.026 A 
HETATM    4  C   UNL     1     -42.016 -46.707  10.386  1.00  0.00     0.026 A 
HETATM    5  C   UNL     1     -42.533 -47.988  10.455  1.00  0.00     0.090 A 
HETATM    6  N   UNL     1     -41.847 -49.059  10.918  1.00  0.00    -0.352 N 
ATOM      7  HN  UNL     1     -42.272 -49.986  10.931  1.00  0.00     0.166 HD
ENDROOT
BRANCH   1   8
HETATM    8  N   UNL     1     -39.856 -49.942  11.797  1.00  0.00    -0.363 N 
HETATM    9  C   UNL     1     -38.419 -50.024  11.534  1.00  0.00     0.155 C 
HETATM   10  C   UNL     1     -37.742 -50.603  12.801  1.00  0.00     0.135 C 
HETATM   11  C   UNL     1     -37.734 -49.593  13.952  1.00  0.00     0.041 C 
HETATM   12  O   UNL     1     -38.340 -51.855  13.214  1.00  0.00    -0.383 OA
HETATM   13  C   UNL     1     -39.767 -51.776  13.377  1.00  0.00     0.188 C 
HETATM   14  C   UNL     1     -40.462 -51.231  12.121  1.00  0.00     0.150 C 
ENDBRANCH   1   8
BRANCH   3  15
HETATM   15  C   UNL     1     -40.065 -45.142  10.762  1.00  0.00     0.305 C 
BRANCH  15  16
HETATM   16  N   UNL     1     -39.255 -44.962   9.562  1.00  0.00     0.082 N 
HETATM   17  H   UNL     1     -39.440 -45.738   8.925  1.00  0.00     0.313 HD
HETATM   18  H   UNL     1     -38.273 -45.028   9.815  1.00  0.00     0.313 HD
ENDBRANCH  15  16
ENDBRANCH   3  15
TORSDOF 3
ENDMDL
MODEL 3
REMARK VINA RESULT:      -5.0      5.581      7.152
REMARK  3 active torsions:
REMARK  status: ('A' for Active; 'I' for Inactive)
REMARK    1  A    between atoms: N_4  and  C_8 
REMARK    2  A    between atoms: C_10  and  C_11 
REMARK    3  A    between atoms: C_11  and  N_12 
ROOT
HETATM    1  C   UNL     1     -41.548 -48.789  11.366  1.00  0.00     0.103 A 
HETATM    2  C   UNL     1     -40.153 -48.864  11.397  1.00  0.00     0.057 A 
HETATM    3  C   UNL     1     -39.503 -50.032  11.812  1.00  0.00    -0.026 A 
HETATM    4  C   UNL     1     -40.293 -51.116  12.182  1.00  0.00     0.026 A 
HETATM    5  C   UNL     1     -41.668 -50.970  12.142  1.00  0.00     0.090 A 
HETATM    6  N   UNL     1     -42.300 -49.837  11.757  1.00  0.00    -0.352 N 
ATOM      7  HN  UNL     1     -43.318 -49.777  11.763  1.00  0.00     0.166 HD
ENDROOT
BRANCH   1   8
HETATM    8  N   UNL     1     -42.160 -47.614  11.011  1.00  0.00    -0.363 N 
HETATM    9  C   UNL     1     -42.103 -46.445  11.889  1.00  0.00     0.155 C 
HETATM   10  C   UNL     1     -41.913 -45.195  10.994  1.00  0.00     0.135 C 
HETATM   11  C   UNL     1     -40.504 -45.133  10.396  1.00  0.00     0.041 C 
HETATM   12  O   UNL     1     -42.921 -45.107   9.959  1.00  0.00    -0.383 OA
HETATM   13  C   UNL     1     -43.024 -46.303   9.166  1.00  0.00     0.188 C 
HETATM   14  C   UNL     1     -43.242 -47.552  10.032  1.00  0.00     0.150 C 
ENDBRANCH   1   8
BRANCH   3  15
HETATM   15  C   UNL     1     -38.002 -50.102  11.834  1.00  0.00     0.305 C 
BRANCH  15  16
HETATM   16  N   UNL     1     -37.433 -50.067  10.492  1.00  0.00     0.082 N 
HETATM   17  H   UNL     1     -38.142 -50.382   9.829  1.00  0.00     0.313 HD
HETATM   18  H   UNL     1     -36.673 -50.739  10.438  1.00  0.00     0.313 HD
ENDBRANCH  15  16
ENDBRANCH   3  15
TORSDOF 3
ENDMDL
MODEL 4
REMARK VINA RESULT:      -4.9      2.648      5.762
REMARK  3 active torsions:
REMARK  status: ('A' for Active; 'I' for Inactive)
REMARK    1  A    between atoms: N_4  and  C_8 
REMARK    2  A    between atoms: C_10  and  C_11 
REMARK    3  A    between atoms: C_11  and  N_12 
ROOT
HETATM    1  C   UNL     1     -43.086 -53.403  13.312  1.00  0.00     0.103 A 
HETATM    2  C   UNL     1     -44.056 -52.493  12.885  1.00  0.00     0.057 A 
HETATM    3  C   UNL     1     -45.418 -52.744  13.083  1.00  0.00    -0.026 A 
HETATM    4  C   UNL     1     -45.772 -53.926  13.728  1.00  0.00     0.026 A 
HETATM    5  C   UNL     1     -44.763 -54.791  14.111  1.00  0.00     0.090 A 
HETATM    6  N   UNL     1     -43.445 -54.558  13.907  1.00  0.00    -0.352 N 
ATOM      7  HN  UNL     1     -42.743 -55.239  14.195  1.00  0.00     0.166 HD
ENDROOT
BRANCH   1   8
HETATM    8  N   UNL     1     -41.761 -53.160  13.054  1.00  0.00    -0.363 N 
HETATM    9  C   UNL     1     -41.363 -52.253  11.978  1.00  0.00     0.155 C 
HETATM   10  C   UNL     1     -40.154 -51.426  12.485  1.00  0.00     0.135 C 
HETATM   11  C   UNL     1     -40.573 -50.400  13.542  1.00  0.00     0.041 C 
HETATM   12  O   UNL     1     -39.084 -52.269  12.974  1.00  0.00    -0.383 OA
HETATM   13  C   UNL     1     -39.517 -53.217  13.966  1.00  0.00     0.188 C 
HETATM   14  C   UNL     1     -40.696 -54.068  13.472  1.00  0.00     0.150 C 
ENDBRANCH   1   8
BRANCH   3  15
HETATM   15  C   UNL     1     -46.450 -51.753  12.626  1.00  0.00     0.305 C 
BRANCH  15  16
HETATM   16  N   UNL     1     -47.008 -52.104  11.324  1.00  0.00     0.082 N 
HETATM   17  H   UNL     1     -46.471 -52.882  10.939  1.00  0.00     0.313 HD
HETATM   18  H   UNL     1     -46.876 -51.323  10.688  1.00  0.00     0.313 HD
ENDBRANCH  15  16
ENDBRANCH   3  15
TORSDOF 3
ENDMDL
MODEL 5
REMARK VINA RESULT:      -4.9      1.685      3.005
REMARK  3 active torsions:
REMARK  status: ('A' for Active; 'I' for Inactive)
REMARK    1  A    between atoms: N_4  and  C_8 
REMARK    2  A    between atoms: C_10  and  C_11 
REMARK    3  A    between atoms: C_11  and  N_12 
ROOT
HETATM    1  C   UNL     1     -42.949 -52.839  13.545  1.00  0.00     0.103 A 
HETATM    2  C   UNL     1     -42.683 -51.576  13.013  1.00  0.00     0.057 A 
HETATM    3  C   UNL     1     -41.498 -51.323  12.313  1.00  0.00    -0.026 A 
HETATM    4  C   UNL     1     -40.600 -52.375  12.158  1.00  0.00     0.026 A 
HETATM    5  C   UNL     1     -40.918 -53.597  12.722  1.00  0.00     0.090 A 
HETATM    6  N   UNL     1     -42.055 -53.840  13.414  1.00  0.00    -0.352 N 
ATOM      7  HN  UNL     1     -42.232 -54.757  13.825  1.00  0.00     0.166 HD
ENDROOT
BRANCH   1   8
HETATM    8  N   UNL     1     -44.091 -53.046  14.277  1.00  0.00    -0.363 N 
HETATM    9  C   UNL     1     -44.628 -51.992  15.138  1.00  0.00     0.155 C 
HETATM   10  C   UNL     1     -46.171 -52.019  15.005  1.00  0.00     0.135 C 
HETATM   11  C   UNL     1     -46.633 -51.494  13.643  1.00  0.00     0.041 C 
HETATM   12  O   UNL     1     -46.718 -53.333  15.269  1.00  0.00    -0.383 OA
HETATM   13  C   UNL     1     -46.110 -54.369  14.476  1.00  0.00     0.188 C 
HETATM   14  C   UNL     1     -44.581 -54.379  14.616  1.00  0.00     0.150 C 
ENDBRANCH   1   8
BRANCH   3  15
HETATM   15  C   UNL     1     -41.227 -49.961  11.739  1.00  0.00     0.305 C 
BRANCH  15  16
HETATM   16  N   UNL     1     -40.546 -50.035  10.452  1.00  0.00     0.082 N 
HETATM   17  H   UNL     1     -39.582 -49.723  10.575  1.00  0.00     0.313 HD
HETATM   18  H   UNL     1     -40.980 -49.375   9.811  1.00  0.00     0.313 HD
ENDBRANCH  15  16
ENDBRANCH   3  15
TORSDOF 3
ENDMDL
MODEL 6
REMARK VINA RESULT:      -4.8      2.690      5.612
REMARK  3 active torsions:
REMARK  status: ('A' for Active; 'I' for Inactive)
REMARK    1  A    between atoms: N_4  and  C_8 
REMARK    2  A    between atoms: C_10  and  C_11 
REMARK    3  A    between atoms: C_11  and  N_12 
ROOT
HETATM    1  C   UNL     1     -44.039 -52.432  13.287  1.00  0.00     0.103 A 
HETATM    2  C   UNL     1     -44.398 -51.959  14.552  1.00  0.00     0.057 A 
HETATM    3  C   UNL     1     -45.701 -51.523  14.817  1.00  0.00    -0.026 A 
HETATM    4  C   UNL     1     -46.628 -51.587  13.780  1.00  0.00     0.026 A 
HETATM    5  C   UNL     1     -46.204 -52.051  12.549  1.00  0.00     0.090 A 
HETATM    6  N   UNL     1     -44.940 -52.458  12.285  1.00  0.00    -0.352 N 
ATOM      7  HN  UNL     1     -44.677 -52.776  11.352  1.00  0.00     0.166 HD
ENDROOT
BRANCH   1   8
HETATM    8  N   UNL     1     -42.741 -52.799  13.038  1.00  0.00    -0.363 N 
HETATM    9  C   UNL     1     -41.925 -52.055  12.078  1.00  0.00     0.155 C 
HETATM   10  C   UNL     1     -40.495 -51.947  12.664  1.00  0.00     0.135 C 
HETATM   11  C   UNL     1     -40.439 -50.979  13.849  1.00  0.00     0.041 C 
HETATM   12  O   UNL     1     -39.954 -53.240  13.023  1.00  0.00    -0.383 OA
HETATM   13  C   UNL     1     -40.816 -53.994  13.894  1.00  0.00     0.188 C 
HETATM   14  C   UNL     1     -42.232 -54.139  13.318  1.00  0.00     0.150 C 
ENDBRANCH   1   8
BRANCH   3  15
HETATM   15  C   UNL     1     -46.075 -51.024  16.184  1.00  0.00     0.305 C 
BRANCH  15  16
HETATM   16  N   UNL     1     -47.487 -51.238  16.477  1.00  0.00     0.082 N 
HETATM   17  H   UNL     1     -47.602 -52.178  16.857  1.00  0.00     0.313 HD
HETATM   18  H   UNL     1     -48.011 -51.216  15.607  1.00  0.00     0.313 HD
ENDBRANCH  15  16
ENDBRANCH   3  15
TORSDOF 3
ENDMDL
MODEL 7
REMARK VINA RESULT:      -4.8      5.786      7.584
REMARK  3 active torsions:
REMARK  status: ('A' for Active; 'I' for Inactive)
REMARK    1  A    between atoms: N_4  and  C_8 
REMARK    2  A    between atoms: C_10  and  C_11 
REMARK    3  A    between atoms: C_11  and  N_12 
ROOT
HETATM    1  C   UNL     1     -40.272 -48.315  11.635  1.00  0.00     0.103 A 
HETATM    2  C   UNL     1     -40.975 -49.500  11.862  1.00  0.00     0.057 A 
HETATM    3  C   UNL     1     -40.303 -50.709  12.073  1.00  0.00    -0.026 A 
HETATM    4  C   UNL     1     -38.912 -50.687  12.058  1.00  0.00     0.026 A 
HETATM    5  C   UNL     1     -38.277 -49.483  11.812  1.00  0.00     0.090 A 
HETATM    6  N   UNL     1     -38.925 -48.316  11.592  1.00  0.00    -0.352 N 
ATOM      7  HN  UNL     1     -38.407 -47.458  11.398  1.00  0.00     0.166 HD
ENDROOT
BRANCH   1   8
HETATM    8  N   UNL     1     -40.955 -47.155  11.374  1.00  0.00    -0.363 N 
HETATM    9  C   UNL     1     -40.597 -45.907  12.049  1.00  0.00     0.155 C 
HETATM   10  C   UNL     1     -40.702 -44.764  11.009  1.00  0.00     0.135 C 
HETATM   11  C   UNL     1     -39.572 -44.829   9.977  1.00  0.00     0.041 C 
HETATM   12  O   UNL     1     -41.997 -44.734  10.361  1.00  0.00    -0.383 OA
HETATM   13  C   UNL     1     -42.370 -45.998   9.784  1.00  0.00     0.188 C 
HETATM   14  C   UNL     1     -42.301 -47.142  10.806  1.00  0.00     0.150 C 
ENDBRANCH   1   8
BRANCH   3  15
HETATM   15  C   UNL     1     -41.072 -51.975  12.324  1.00  0.00     0.305 C 
BRANCH  15  16
HETATM   16  N   UNL     1     -41.254 -52.756  11.105  1.00  0.00     0.082 N 
HETATM   17  H   UNL     1     -42.193 -53.155  11.111  1.00  0.00     0.313 HD
HETATM   18  H   UNL     1     -40.609 -53.542  11.118  1.00  0.00     0.313 HD
ENDBRANCH  15  16
ENDBRANCH   3  15
TORSDOF 3
ENDMDL
MODEL 8
REMARK VINA RESULT:      -4.7      6.097      8.017
REMARK  3 active torsions:
REMARK  status: ('A' for Active; 'I' for Inactive)
REMARK    1  A    between atoms: N_4  and  C_8 
REMARK    2  A    between atoms: C_10  and  C_11 
REMARK    3  A    between atoms: C_11  and  N_12 
ROOT
HETATM    1  C   UNL     1     -41.156 -47.798  11.313  1.00  0.00     0.103 A 
HETATM    2  C   UNL     1     -42.042 -48.193  10.309  1.00  0.00     0.057 A 
HETATM    3  C   UNL     1     -42.732 -47.248   9.541  1.00  0.00    -0.026 A 
HETATM    4  C   UNL     1     -42.496 -45.902   9.808  1.00  0.00     0.026 A 
HETATM    5  C   UNL     1     -41.618 -45.579  10.826  1.00  0.00     0.090 A 
HETATM    6  N   UNL     1     -40.962 -46.491  11.580  1.00  0.00    -0.352 N 
ATOM      7  HN  UNL     1     -40.337 -46.197  12.331  1.00  0.00     0.166 HD
ENDROOT
BRANCH   1   8
HETATM    8  N   UNL     1     -40.537 -48.745  12.089  1.00  0.00    -0.363 N 
HETATM    9  C   UNL     1     -40.231 -50.070  11.550  1.00  0.00     0.155 C 
HETATM   10  C   UNL     1     -38.837 -50.484  12.087  1.00  0.00     0.135 C 
HETATM   11  C   UNL     1     -37.714 -49.676  11.431  1.00  0.00     0.041 C 
HETATM   12  O   UNL     1     -38.763 -50.401  13.530  1.00  0.00    -0.383 OA
HETATM   13  C   UNL     1     -39.157 -49.117  14.045  1.00  0.00     0.188 C 
HETATM   14  C   UNL     1     -40.549 -48.700  13.549  1.00  0.00     0.150 C 
ENDBRANCH   1   8
BRANCH   3  15
HETATM   15  C   UNL     1     -43.677 -47.687   8.459  1.00  0.00     0.305 C 
BRANCH  15  16
HETATM   16  N   UNL     1     -42.971 -48.223   7.301  1.00  0.00     0.082 N 
HETATM   17  H   UNL     1     -43.642 -48.359   6.544  1.00  0.00     0.313 HD
HETATM   18  H   UNL     1     -42.612 -49.145   7.532  1.00  0.00     0.313 HD
ENDBRANCH  15  16
ENDBRANCH   3  15
TORSDOF 3
ENDMDL
MODEL 9
REMARK VINA RESULT:      -4.5      3.572      5.514
REMARK  3 active torsions:
REMARK  status: ('A' for Active; 'I' for Inactive)
REMARK    1  A    between atoms: N_4  and  C_8 
REMARK    2  A    between atoms: C_10  and  C_11 
REMARK    3  A    between atoms: C_11  and  N_12 
ROOT
HETATM    1  C   UNL     1     -41.500 -51.422  12.755  1.00  0.00     0.103 A 
HETATM    2  C   UNL     1     -40.637 -52.279  13.441  1.00  0.00     0.057 A 
HETATM    3  C   UNL     1     -41.014 -53.593  13.744  1.00  0.00    -0.026 A 
HETATM    4  C   UNL     1     -42.273 -54.016  13.330  1.00  0.00     0.026 A 
HETATM    5  C   UNL     1     -43.084 -53.113  12.668  1.00  0.00     0.090 A 
HETATM    6  N   UNL     1     -42.729 -51.837  12.388  1.00  0.00    -0.352 N 
ATOM      7  HN  UNL     1     -43.374 -51.206  11.912  1.00  0.00     0.166 HD
ENDROOT
BRANCH   1   8
HETATM    8  N   UNL     1     -41.129 -50.122  12.522  1.00  0.00    -0.363 N 
HETATM    9  C   UNL     1     -40.134 -49.465  13.369  1.00  0.00     0.155 C 
HETATM   10  C   UNL     1     -39.232 -48.602  12.451  1.00  0.00     0.135 C 
HETATM   11  C   UNL     1     -38.305 -49.466  11.592  1.00  0.00     0.041 C 
HETATM   12  O   UNL     1     -40.003 -47.692  11.630  1.00  0.00    -0.383 OA
HETATM   13  C   UNL     1     -41.037 -48.348  10.875  1.00  0.00     0.188 C 
HETATM   14  C   UNL     1     -41.961 -49.186  11.770  1.00  0.00     0.150 C 
ENDBRANCH   1   8
BRANCH   3  15
HETATM   15  C   UNL     1     -40.072 -54.507  14.476  1.00  0.00     0.305 C 
BRANCH  15  16
HETATM   16  N   UNL     1     -38.901 -54.842  13.673  1.00  0.00     0.082 N 
HETATM   17  H   UNL     1     -38.864 -54.212  12.871  1.00  0.00     0.313 HD
HETATM   18  H   UNL     1     -39.017 -55.779  13.297  1.00  0.00     0.313 HD
ENDBRANCH  15  16
ENDBRANCH   3  15
TORSDOF 3
ENDMDL
