MODEL 1
REMARK VINA RESULT:      -5.7      0.000      0.000
REMARK  5 active torsions:
REMARK  status: ('A' for Active; 'I' for Inactive)
REMARK    1  A    between atoms: C_2  and  N_4 
REMARK       I    between atoms: N_4  and  C_5 
REMARK    2  A    between atoms: C_5  and  C_7 
REMARK    3  A    between atoms: C_7  and  N_8 
REMARK       I    between atoms: N_8  and  C_9 
REMARK    4  A    between atoms: C_9  and  C_11 
REMARK    5  A    between atoms: C_11  and  N_12 
ROOT
HETATM    1  N   UNL     1     -42.485 -52.070  11.997  1.00  0.00    -0.351 N 
HETATM    2  C   UNL     1     -41.163 -51.685  12.000  1.00  0.00     0.237 C 
HETATM    3  O   UNL     1     -40.252 -52.473  12.250  1.00  0.00    -0.272 OA
HETATM    4  H   UNL     1     -43.211 -51.364  12.055  1.00  0.00     0.163 HD
ENDROOT
BRANCH   1   5
HETATM    5  C   UNL     1     -42.860 -53.424  12.369  1.00  0.00     0.225 C 
BRANCH   5   6
HETATM    6  C   UNL     1     -44.370 -53.525  12.586  1.00  0.00     0.235 C 
HETATM    7  N   UNL     1     -45.048 -52.334  12.433  1.00  0.00    -0.356 N 
HETATM    8  H   UNL     1     -44.518 -51.503  12.188  1.00  0.00     0.162 HD
HETATM    9  O   UNL     1     -44.921 -54.604  12.790  1.00  0.00    -0.272 OA
BRANCH   7  10
HETATM   10  C   UNL     1     -46.484 -52.220  12.648  1.00  0.00     0.076 C 
HETATM   11  C   UNL     1     -46.775 -51.426  13.920  1.00  0.00     0.032 C 
HETATM   12  C   UNL     1     -47.153 -51.567  11.442  1.00  0.00     0.032 C 
ENDBRANCH   7  10
ENDBRANCH   5   6
ENDBRANCH   1   5
BRANCH   2  13
HETATM   13  C   UNL     1     -40.905 -50.239  11.639  1.00  0.00     0.252 C 
BRANCH  13  14
HETATM   14  N   UNL     1     -39.518 -49.889  11.829  1.00  0.00    -0.278 N 
HETATM   15  C   UNL     1     -38.945 -49.270  12.897  1.00  0.00     0.201 A 
HETATM   16  N   UNL     1     -37.650 -49.174  12.705  1.00  0.00    -0.346 N 
HETATM   17  C   UNL     1     -37.475 -49.767  11.487  1.00  0.00     0.198 A 
ATOM     18  HN  UNL     1     -36.946 -48.757  13.315  1.00  0.00     0.167 HD
HETATM   19  N   UNL     1     -38.590 -50.235  10.916  1.00  0.00    -0.293 N 
ATOM     20  HN  UNL     1     -38.706 -50.722  10.028  1.00  0.00     0.188 HD
ENDBRANCH  13  14
ENDBRANCH   2  13
TORSDOF 5
ENDMDL
MODEL 2
REMARK VINA RESULT:      -5.7      3.947      4.999
REMARK  5 active torsions:
REMARK  status: ('A' for Active; 'I' for Inactive)
REMARK    1  A    between atoms: C_2  and  N_4 
REMARK       I    between atoms: N_4  and  C_5 
REMARK    2  A    between atoms: C_5  and  C_7 
REMARK    3  A    between atoms: C_7  and  N_8 
REMARK       I    between atoms: N_8  and  C_9 
REMARK    4  A    between atoms: C_9  and  C_11 
REMARK    5  A    between atoms: C_11  and  N_12 
ROOT
HETATM    1  N   UNL     1     -42.297 -49.628  11.553  1.00  0.00    -0.351 N 
HETATM    2  C   UNL     1     -42.746 -48.335  11.404  1.00  0.00     0.237 C 
HETATM    3  O   UNL     1     -43.126 -47.660  12.360  1.00  0.00    -0.272 OA
HETATM    4  H   UNL     1     -42.250 -50.237  10.743  1.00  0.00     0.163 HD
ENDROOT
BRANCH   1   5
HETATM    5  C   UNL     1     -42.328 -50.275  12.854  1.00  0.00     0.225 C 
BRANCH   5   6
HETATM    6  C   UNL     1     -43.404 -51.359  12.892  1.00  0.00     0.235 C 
HETATM    7  N   UNL     1     -44.678 -50.889  13.132  1.00  0.00    -0.356 N 
HETATM    8  H   UNL     1     -44.809 -49.889  13.255  1.00  0.00     0.162 HD
HETATM    9  O   UNL     1     -43.146 -52.534  12.639  1.00  0.00    -0.272 OA
BRANCH   7  10
HETATM   10  C   UNL     1     -45.827 -51.775  13.255  1.00  0.00     0.076 C 
HETATM   11  C   UNL     1     -46.650 -51.419  14.491  1.00  0.00     0.032 C 
HETATM   12  C   UNL     1     -46.689 -51.706  11.998  1.00  0.00     0.032 C 
ENDBRANCH   7  10
ENDBRANCH   5   6
ENDBRANCH   1   5
BRANCH   2  13
HETATM   13  C   UNL     1     -42.707 -47.790   9.993  1.00  0.00     0.252 C 
BRANCH  13  14
HETATM   14  N   UNL     1     -43.991 -47.263   9.597  1.00  0.00    -0.278 N 
HETATM   15  C   UNL     1     -44.258 -46.094   8.954  1.00  0.00     0.201 A 
HETATM   16  N   UNL     1     -45.550 -46.001   8.734  1.00  0.00    -0.346 N 
HETATM   17  C   UNL     1     -46.036 -47.162   9.262  1.00  0.00     0.198 A 
ATOM     18  HN  UNL     1     -46.063 -45.246   8.280  1.00  0.00     0.167 HD
HETATM   19  N   UNL     1     -45.117 -47.976   9.791  1.00  0.00    -0.293 N 
ATOM     20  HN  UNL     1     -45.236 -48.892  10.225  1.00  0.00     0.188 HD
ENDBRANCH  13  14
ENDBRANCH   2  13
TORSDOF 5
ENDMDL
MODEL 3
REMARK VINA RESULT:      -5.6      3.496      4.864
REMARK  5 active torsions:
REMARK  status: ('A' for Active; 'I' for Inactive)
REMARK    1  A    between atoms: C_2  and  N_4 
REMARK       I    between atoms: N_4  and  C_5 
REMARK    2  A    between atoms: C_5  and  C_7 
REMARK    3  A    between atoms: C_7  and  N_8 
REMARK       I    between atoms: N_8  and  C_9 
REMARK    4  A    between atoms: C_9  and  C_11 
REMARK    5  A    between atoms: C_11  and  N_12 
ROOT
HETATM    1  N   UNL     1     -42.034 -49.743  11.597  1.00  0.00    -0.351 N 
HETATM    2  C   UNL     1     -41.805 -48.449  11.187  1.00  0.00     0.237 C 
HETATM    3  O   UNL     1     -40.673 -48.027  10.956  1.00  0.00    -0.272 OA
HETATM    4  H   UNL     1     -42.921 -49.980  12.032  1.00  0.00     0.163 HD
ENDROOT
BRANCH   1   5
HETATM    5  C   UNL     1     -40.924 -50.646  11.847  1.00  0.00     0.225 C 
BRANCH   5   6
HETATM    6  C   UNL     1     -41.427 -52.073  12.064  1.00  0.00     0.235 C 
HETATM    7  N   UNL     1     -42.770 -52.165  12.362  1.00  0.00    -0.356 N 
HETATM    8  H   UNL     1     -43.315 -51.308  12.409  1.00  0.00     0.162 HD
HETATM    9  O   UNL     1     -40.697 -53.047  11.893  1.00  0.00    -0.272 OA
BRANCH   7  10
HETATM   10  C   UNL     1     -43.421 -53.435  12.651  1.00  0.00     0.076 C 
HETATM   11  C   UNL     1     -43.045 -53.927  14.047  1.00  0.00     0.032 C 
HETATM   12  C   UNL     1     -44.935 -53.299  12.519  1.00  0.00     0.032 C 
ENDBRANCH   7  10
ENDBRANCH   5   6
ENDBRANCH   1   5
BRANCH   2  13
HETATM   13  C   UNL     1     -43.040 -47.595  11.005  1.00  0.00     0.252 C 
BRANCH  13  14
HETATM   14  N   UNL     1     -43.569 -47.712   9.667  1.00  0.00    -0.278 N 
HETATM   15  C   UNL     1     -44.851 -47.530   9.250  1.00  0.00     0.201 A 
HETATM   16  N   UNL     1     -44.914 -47.684   7.948  1.00  0.00    -0.346 N 
HETATM   17  C   UNL     1     -43.619 -47.956   7.608  1.00  0.00     0.198 A 
ATOM     18  HN  UNL     1     -45.729 -47.618   7.339  1.00  0.00     0.167 HD
HETATM   19  N   UNL     1     -42.753 -47.970   8.626  1.00  0.00    -0.293 N 
ATOM     20  HN  UNL     1     -41.747 -48.132   8.618  1.00  0.00     0.188 HD
ENDBRANCH  13  14
ENDBRANCH   2  13
TORSDOF 5
ENDMDL
MODEL 4
REMARK VINA RESULT:      -5.5      2.190      2.932
REMARK  5 active torsions:
REMARK  status: ('A' for Active; 'I' for Inactive)
REMARK    1  A    between atoms: C_2  and  N_4 
REMARK       I    between atoms: N_4  and  C_5 
REMARK    2  A    between atoms: C_5  and  C_7 
REMARK    3  A    between atoms: C_7  and  N_8 
REMARK       I    between atoms: N_8  and  C_9 
REMARK    4  A    between atoms: C_9  and  C_11 
REMARK    5  A    between atoms: C_11  and  N_12 
ROOT
HETATM    1  N   UNL     1     -42.404 -51.188  12.161  1.00  0.00    -0.351 N 
HETATM    2  C   UNL     1     -41.163 -50.597  12.085  1.00  0.00     0.237 C 
HETATM    3  O   UNL     1     -40.130 -51.255  11.972  1.00  0.00    -0.272 OA
HETATM    4  H   UNL     1     -43.190 -50.655  12.518  1.00  0.00     0.163 HD
ENDROOT
BRANCH   1   5
HETATM    5  C   UNL     1     -42.532 -52.635  12.186  1.00  0.00     0.225 C 
BRANCH   5   6
HETATM    6  C   UNL     1     -43.989 -53.044  12.399  1.00  0.00     0.235 C 
HETATM    7  N   UNL     1     -44.864 -51.987  12.534  1.00  0.00    -0.356 N 
HETATM    8  H   UNL     1     -44.494 -51.042  12.478  1.00  0.00     0.162 HD
HETATM    9  O   UNL     1     -44.341 -54.221  12.360  1.00  0.00    -0.272 OA
BRANCH   7  10
HETATM   10  C   UNL     1     -46.284 -52.177  12.793  1.00  0.00     0.076 C 
HETATM   11  C   UNL     1     -46.697 -51.456  14.076  1.00  0.00     0.032 C 
HETATM   12  C   UNL     1     -47.112 -51.684  11.610  1.00  0.00     0.032 C 
ENDBRANCH   7  10
ENDBRANCH   5   6
ENDBRANCH   1   5
BRANCH   2  13
HETATM   13  C   UNL     1     -41.159 -49.084  12.113  1.00  0.00     0.252 C 
BRANCH  13  14
HETATM   14  N   UNL     1     -42.085 -48.538  11.150  1.00  0.00    -0.278 N 
HETATM   15  C   UNL     1     -43.343 -48.067  11.367  1.00  0.00     0.201 A 
HETATM   16  N   UNL     1     -43.841 -47.614  10.239  1.00  0.00    -0.346 N 
HETATM   17  C   UNL     1     -42.827 -47.825   9.349  1.00  0.00     0.198 A 
ATOM     18  HN  UNL     1     -44.759 -47.205  10.069  1.00  0.00     0.167 HD
HETATM   19  N   UNL     1     -41.723 -48.377   9.863  1.00  0.00    -0.293 N 
ATOM     20  HN  UNL     1     -40.843 -48.613   9.404  1.00  0.00     0.188 HD
ENDBRANCH  13  14
ENDBRANCH   2  13
TORSDOF 5
ENDMDL
MODEL 5
REMARK VINA RESULT:      -5.4      3.624      6.696
REMARK  5 active torsions:
REMARK  status: ('A' for Active; 'I' for Inactive)
REMARK    1  A    between atoms: C_2  and  N_4 
REMARK       I    between atoms: N_4  and  C_5 
REMARK    2  A    between atoms: C_5  and  C_7 
REMARK    3  A    between atoms: C_7  and  N_8 
REMARK       I    between atoms: N_8  and  C_9 
REMARK    4  A    between atoms: C_9  and  C_11 
REMARK    5  A    between atoms: C_11  and  N_12 
ROOT
HETATM    1  N   UNL     1     -41.939 -49.478  11.156  1.00  0.00    -0.351 N 
HETATM    2  C   UNL     1     -42.614 -48.297  11.370  1.00  0.00     0.237 C 
HETATM    3  O   UNL     1     -43.123 -48.022  12.456  1.00  0.00    -0.272 OA
HETATM    4  H   UNL     1     -41.771 -49.792  10.205  1.00  0.00     0.163 HD
ENDROOT
BRANCH   1   5
HETATM    5  C   UNL     1     -41.868 -50.488  12.198  1.00  0.00     0.225 C 
BRANCH   5   6
HETATM    6  C   UNL     1     -40.494 -51.158  12.207  1.00  0.00     0.235 C 
HETATM    7  N   UNL     1     -39.433 -50.282  12.277  1.00  0.00    -0.356 N 
HETATM    8  H   UNL     1     -39.630 -49.286  12.323  1.00  0.00     0.162 HD
HETATM    9  O   UNL     1     -40.374 -52.381  12.239  1.00  0.00    -0.272 OA
BRANCH   7  10
HETATM   10  C   UNL     1     -38.047 -50.729  12.246  1.00  0.00     0.076 C 
HETATM   11  C   UNL     1     -37.270 -49.992  11.157  1.00  0.00     0.032 C 
HETATM   12  C   UNL     1     -37.391 -50.523  13.608  1.00  0.00     0.032 C 
ENDBRANCH   7  10
ENDBRANCH   5   6
ENDBRANCH   1   5
BRANCH   2  13
HETATM   13  C   UNL     1     -42.656 -47.348  10.193  1.00  0.00     0.252 C 
BRANCH  13  14
HETATM   14  N   UNL     1     -43.780 -47.628   9.332  1.00  0.00    -0.278 N 
HETATM   15  C   UNL     1     -43.780 -47.825   7.986  1.00  0.00     0.201 A 
HETATM   16  N   UNL     1     -45.000 -48.099   7.583  1.00  0.00    -0.346 N 
HETATM   17  C   UNL     1     -45.720 -48.067   8.742  1.00  0.00     0.198 A 
ATOM     18  HN  UNL     1     -45.328 -48.289   6.636  1.00  0.00     0.167 HD
HETATM   19  N   UNL     1     -45.015 -47.796   9.845  1.00  0.00    -0.293 N 
ATOM     20  HN  UNL     1     -45.326 -47.733  10.814  1.00  0.00     0.188 HD
ENDBRANCH  13  14
ENDBRANCH   2  13
TORSDOF 5
ENDMDL
MODEL 6
REMARK VINA RESULT:      -5.2      1.655      2.077
REMARK  5 active torsions:
REMARK  status: ('A' for Active; 'I' for Inactive)
REMARK    1  A    between atoms: C_2  and  N_4 
REMARK       I    between atoms: N_4  and  C_5 
REMARK    2  A    between atoms: C_5  and  C_7 
REMARK    3  A    between atoms: C_7  and  N_8 
REMARK       I    between atoms: N_8  and  C_9 
REMARK    4  A    between atoms: C_9  and  C_11 
REMARK    5  A    between atoms: C_11  and  N_12 
ROOT
HETATM    1  N   UNL     1     -42.278 -53.822  12.937  1.00  0.00    -0.351 N 
HETATM    2  C   UNL     1     -41.793 -52.534  12.944  1.00  0.00     0.237 C 
HETATM    3  O   UNL     1     -42.035 -51.748  13.859  1.00  0.00    -0.272 OA
HETATM    4  H   UNL     1     -42.292 -54.346  12.068  1.00  0.00     0.163 HD
ENDROOT
BRANCH   1   5
HETATM    5  C   UNL     1     -43.167 -54.282  13.991  1.00  0.00     0.225 C 
BRANCH   5   6
HETATM    6  C   UNL     1     -44.625 -54.002  13.627  1.00  0.00     0.235 C 
HETATM    7  N   UNL     1     -45.086 -52.768  14.032  1.00  0.00    -0.356 N 
HETATM    8  H   UNL     1     -44.445 -52.148  14.520  1.00  0.00     0.162 HD
HETATM    9  O   UNL     1     -45.284 -54.790  12.952  1.00  0.00    -0.272 OA
BRANCH   7  10
HETATM   10  C   UNL     1     -46.462 -52.340  13.820  1.00  0.00     0.076 C 
HETATM   11  C   UNL     1     -46.930 -51.449  14.970  1.00  0.00     0.032 C 
HETATM   12  C   UNL     1     -46.594 -51.611  12.487  1.00  0.00     0.032 C 
ENDBRANCH   7  10
ENDBRANCH   5   6
ENDBRANCH   1   5
BRANCH   2  13
HETATM   13  C   UNL     1     -40.916 -52.162  11.769  1.00  0.00     0.252 C 
BRANCH  13  14
HETATM   14  N   UNL     1     -40.821 -50.730  11.616  1.00  0.00    -0.278 N 
HETATM   15  C   UNL     1     -39.699 -49.969  11.498  1.00  0.00     0.201 A 
HETATM   16  N   UNL     1     -40.039 -48.711  11.331  1.00  0.00    -0.346 N 
HETATM   17  C   UNL     1     -41.404 -48.757  11.343  1.00  0.00     0.198 A 
ATOM     18  HN  UNL     1     -39.432 -47.899  11.219  1.00  0.00     0.167 HD
HETATM   19  N   UNL     1     -41.931 -49.976  11.502  1.00  0.00    -0.293 N 
ATOM     20  HN  UNL     1     -42.911 -50.258  11.529  1.00  0.00     0.188 HD
ENDBRANCH  13  14
ENDBRANCH   2  13
TORSDOF 5
ENDMDL
MODEL 7
REMARK VINA RESULT:      -5.1      3.738      5.712
REMARK  5 active torsions:
REMARK  status: ('A' for Active; 'I' for Inactive)
REMARK    1  A    between atoms: C_2  and  N_4 
REMARK       I    between atoms: N_4  and  C_5 
REMARK    2  A    between atoms: C_5  and  C_7 
REMARK    3  A    between atoms: C_7  and  N_8 
REMARK       I    between atoms: N_8  and  C_9 
REMARK    4  A    between atoms: C_9  and  C_11 
REMARK    5  A    between atoms: C_11  and  N_12 
ROOT
HETATM    1  N   UNL     1     -41.694 -49.726  11.405  1.00  0.00    -0.351 N 
HETATM    2  C   UNL     1     -41.682 -48.362  11.219  1.00  0.00     0.237 C 
HETATM    3  O   UNL     1     -40.637 -47.729  11.080  1.00  0.00    -0.272 OA
HETATM    4  H   UNL     1     -42.525 -50.173  11.779  1.00  0.00     0.163 HD
ENDROOT
BRANCH   1   5
HETATM    5  C   UNL     1     -40.448 -50.465  11.520  1.00  0.00     0.225 C 
BRANCH   5   6
HETATM    6  C   UNL     1     -40.401 -51.242  12.836  1.00  0.00     0.235 C 
HETATM    7  N   UNL     1     -40.723 -52.578  12.721  1.00  0.00    -0.356 N 
HETATM    8  H   UNL     1     -40.953 -52.943  11.801  1.00  0.00     0.162 HD
HETATM    9  O   UNL     1     -40.020 -50.719  13.881  1.00  0.00    -0.272 OA
BRANCH   7  10
HETATM   10  C   UNL     1     -40.781 -53.469  13.871  1.00  0.00     0.076 C 
HETATM   11  C   UNL     1     -42.077 -54.279  13.857  1.00  0.00     0.032 C 
HETATM   12  C   UNL     1     -39.569 -54.395  13.890  1.00  0.00     0.032 C 
ENDBRANCH   7  10
ENDBRANCH   5   6
ENDBRANCH   1   5
BRANCH   2  13
HETATM   13  C   UNL     1     -43.042 -47.701  11.161  1.00  0.00     0.252 C 
BRANCH  13  14
HETATM   14  N   UNL     1     -43.583 -47.728   9.823  1.00  0.00    -0.278 N 
HETATM   15  C   UNL     1     -44.870 -47.521   9.432  1.00  0.00     0.201 A 
HETATM   16  N   UNL     1     -44.945 -47.586   8.122  1.00  0.00    -0.346 N 
HETATM   17  C   UNL     1     -43.653 -47.829   7.752  1.00  0.00     0.198 A 
ATOM     18  HN  UNL     1     -45.766 -47.480   7.527  1.00  0.00     0.167 HD
HETATM   19  N   UNL     1     -42.777 -47.911   8.759  1.00  0.00    -0.293 N 
ATOM     20  HN  UNL     1     -41.770 -48.070   8.730  1.00  0.00     0.188 HD
ENDBRANCH  13  14
ENDBRANCH   2  13
TORSDOF 5
ENDMDL
MODEL 8
REMARK VINA RESULT:      -5.1      2.936      5.913
REMARK  5 active torsions:
REMARK  status: ('A' for Active; 'I' for Inactive)
REMARK    1  A    between atoms: C_2  and  N_4 
REMARK       I    between atoms: N_4  and  C_5 
REMARK    2  A    between atoms: C_5  and  C_7 
REMARK    3  A    between atoms: C_7  and  N_8 
REMARK       I    between atoms: N_8  and  C_9 
REMARK    4  A    between atoms: C_9  and  C_11 
REMARK    5  A    between atoms: C_11  and  N_12 
ROOT
HETATM    1  N   UNL     1     -40.956 -50.494  11.116  1.00  0.00    -0.351 N 
HETATM    2  C   UNL     1     -41.226 -51.142  12.300  1.00  0.00     0.237 C 
HETATM    3  O   UNL     1     -41.008 -50.625  13.394  1.00  0.00    -0.272 OA
HETATM    4  H   UNL     1     -40.890 -51.029  10.256  1.00  0.00     0.163 HD
ENDROOT
BRANCH   1   5
HETATM    5  C   UNL     1     -40.325 -49.185  11.118  1.00  0.00     0.225 C 
BRANCH   5   6
HETATM    6  C   UNL     1     -41.335 -48.098  10.750  1.00  0.00     0.235 C 
HETATM    7  N   UNL     1     -42.168 -48.426   9.702  1.00  0.00    -0.356 N 
HETATM    8  H   UNL     1     -42.062 -49.338   9.267  1.00  0.00     0.162 HD
HETATM    9  O   UNL     1     -41.436 -47.063  11.405  1.00  0.00    -0.272 OA
BRANCH   7  10
HETATM   10  C   UNL     1     -43.162 -47.501   9.175  1.00  0.00     0.076 C 
HETATM   11  C   UNL     1     -43.436 -47.791   7.701  1.00  0.00     0.032 C 
HETATM   12  C   UNL     1     -44.450 -47.583   9.987  1.00  0.00     0.032 C 
ENDBRANCH   7  10
ENDBRANCH   5   6
ENDBRANCH   1   5
BRANCH   2  13
HETATM   13  C   UNL     1     -41.841 -52.518  12.164  1.00  0.00     0.252 C 
BRANCH  13  14
HETATM   14  N   UNL     1     -43.249 -52.498  12.483  1.00  0.00    -0.278 N 
HETATM   15  C   UNL     1     -44.124 -53.539  12.494  1.00  0.00     0.201 A 
HETATM   16  N   UNL     1     -45.304 -53.115  12.883  1.00  0.00    -0.346 N 
HETATM   17  C   UNL     1     -45.093 -51.786  13.112  1.00  0.00     0.198 A 
ATOM     18  HN  UNL     1     -46.167 -53.649  12.989  1.00  0.00     0.167 HD
HETATM   19  N   UNL     1     -43.844 -51.361  12.894  1.00  0.00    -0.293 N 
ATOM     20  HN  UNL     1     -43.449 -50.428  13.008  1.00  0.00     0.188 HD
ENDBRANCH  13  14
ENDBRANCH   2  13
TORSDOF 5
ENDMDL
MODEL 9
REMARK VINA RESULT:      -4.9      1.778      7.027
REMARK  5 active torsions:
REMARK  status: ('A' for Active; 'I' for Inactive)
REMARK    1  A    between atoms: C_2  and  N_4 
REMARK       I    between atoms: N_4  and  C_5 
REMARK    2  A    between atoms: C_5  and  C_7 
REMARK    3  A    between atoms: C_7  and  N_8 
REMARK       I    between atoms: N_8  and  C_9 
REMARK    4  A    between atoms: C_9  and  C_11 
REMARK    5  A    between atoms: C_11  and  N_12 
ROOT
HETATM    1  N   UNL     1     -42.538 -52.545  11.812  1.00  0.00    -0.351 N 
HETATM    2  C   UNL     1     -43.413 -53.285  12.575  1.00  0.00     0.237 C 
HETATM    3  O   UNL     1     -43.026 -54.137  13.374  1.00  0.00    -0.272 OA
HETATM    4  H   UNL     1     -42.881 -52.058  10.990  1.00  0.00     0.163 HD
ENDROOT
BRANCH   1   5
HETATM    5  C   UNL     1     -41.109 -52.800  11.871  1.00  0.00     0.225 C 
BRANCH   5   6
HETATM    6  C   UNL     1     -40.374 -51.612  12.492  1.00  0.00     0.235 C 
HETATM    7  N   UNL     1     -39.549 -50.935  11.620  1.00  0.00    -0.356 N 
HETATM    8  H   UNL     1     -39.493 -51.256  10.658  1.00  0.00     0.162 HD
HETATM    9  O   UNL     1     -40.586 -51.255  13.649  1.00  0.00    -0.272 OA
BRANCH   7  10
HETATM   10  C   UNL     1     -38.728 -49.806  12.039  1.00  0.00     0.076 C 
HETATM   11  C   UNL     1     -37.393 -49.810  11.297  1.00  0.00     0.032 C 
HETATM   12  C   UNL     1     -39.469 -48.493  11.806  1.00  0.00     0.032 C 
ENDBRANCH   7  10
ENDBRANCH   5   6
ENDBRANCH   1   5
BRANCH   2  13
HETATM   13  C   UNL     1     -44.878 -52.956  12.390  1.00  0.00     0.252 C 
BRANCH  13  14
HETATM   14  N   UNL     1     -45.649 -53.315  13.557  1.00  0.00    -0.278 N 
HETATM   15  C   UNL     1     -46.196 -52.489  14.490  1.00  0.00     0.201 A 
HETATM   16  N   UNL     1     -46.861 -53.203  15.370  1.00  0.00    -0.346 N 
HETATM   17  C   UNL     1     -46.695 -54.480  14.917  1.00  0.00     0.198 A 
ATOM     18  HN  UNL     1     -47.375 -52.881  16.190  1.00  0.00     0.167 HD
HETATM   19  N   UNL     1     -45.971 -54.600  13.800  1.00  0.00    -0.293 N 
ATOM     20  HN  UNL     1     -45.727 -55.438  13.273  1.00  0.00     0.188 HD
ENDBRANCH  13  14
ENDBRANCH   2  13
TORSDOF 5
ENDMDL
