MODEL 1
REMARK VINA RESULT:      -7.0      0.000      0.000
REMARK  5 active torsions:
REMARK  status: ('A' for Active; 'I' for Inactive)
REMARK    1  A    between atoms: C_2  and  C_5 
REMARK    2  A    between atoms: C_10  and  N_11 
REMARK       I    between atoms: N_11  and  C_12 
REMARK       I    between atoms: C_12  and  N_14 
REMARK    3  A    between atoms: N_14  and  C_15 
REMARK    4  A    between atoms: C_15  and  C_16 
REMARK    5  A    between atoms: C_15  and  C_19 
ROOT
HETATM    1  N   UNL     1     -41.733 -48.368   9.831  1.00  0.00    -0.304 N 
HETATM    2  C   UNL     1     -41.404 -49.005  11.007  1.00  0.00     0.321 C 
HETATM    3  O   UNL     1     -42.055 -48.917  12.045  1.00  0.00    -0.247 OA
HETATM    4  N   UNL     1     -40.275 -49.775  10.934  1.00  0.00    -0.338 N 
HETATM    5  H   UNL     1     -41.090 -48.430   9.047  1.00  0.00     0.171 HD
HETATM    6  H   UNL     1     -39.780 -49.885  10.065  1.00  0.00     0.164 HD
ENDROOT
BRANCH   1   7
HETATM    7  C   UNL     1     -42.872 -47.620   9.600  1.00  0.00     0.105 A 
HETATM    8  C   UNL     1     -42.714 -46.117   9.549  1.00  0.00     0.272 A 
HETATM    9  N   UNL     1     -43.864 -45.388   9.317  1.00  0.00    -0.331 N 
HETATM   10  O   UNL     1     -41.618 -45.583   9.705  1.00  0.00    -0.266 OA
HETATM   11  C   UNL     1     -45.101 -45.947   9.101  1.00  0.00     0.107 A 
HETATM   12  H   UNL     1     -43.753 -44.381   9.289  1.00  0.00     0.168 HD
HETATM   13  C   UNL     1     -45.264 -47.281   9.122  1.00  0.00     0.065 A 
HETATM   14  C   UNL     1     -44.105 -48.110   9.403  1.00  0.00     0.052 A 
BRANCH  13  15
HETATM   15  C   UNL     1     -46.578 -47.958   8.844  1.00  0.00     0.418 C 
HETATM   16  F   UNL     1     -46.849 -48.984   9.691  1.00  0.00    -0.166 F 
HETATM   17  F   UNL     1     -46.609 -48.477   7.588  1.00  0.00    -0.166 F 
HETATM   18  F   UNL     1     -47.618 -47.092   8.935  1.00  0.00    -0.166 F 
ENDBRANCH  13  15
ENDBRANCH   1   7
BRANCH   4  19
HETATM   19  C   UNL     1     -39.904 -50.609  12.065  1.00  0.00     0.094 C 
BRANCH  19  20
HETATM   20  C   UNL     1     -40.497 -51.984  11.894  1.00  0.00     0.009 A 
HETATM   21  C   UNL     1     -41.910 -52.291  12.330  1.00  0.00     0.007 A 
HETATM   22  C   UNL     1     -40.756 -52.823  13.127  1.00  0.00     0.007 A 
ENDBRANCH  19  20
BRANCH  19  23
HETATM   23  C   UNL     1     -38.406 -50.656  12.203  1.00  0.00     0.009 A 
HETATM   24  C   UNL     1     -37.678 -49.505  12.859  1.00  0.00     0.007 A 
HETATM   25  C   UNL     1     -37.534 -49.732  11.383  1.00  0.00     0.007 A 
ENDBRANCH  19  23
ENDBRANCH   4  19
TORSDOF 5
ENDMDL
MODEL 2
REMARK VINA RESULT:      -6.6      3.736      6.860
REMARK  5 active torsions:
REMARK  status: ('A' for Active; 'I' for Inactive)
REMARK    1  A    between atoms: C_2  and  C_5 
REMARK    2  A    between atoms: C_10  and  N_11 
REMARK       I    between atoms: N_11  and  C_12 
REMARK       I    between atoms: C_12  and  N_14 
REMARK    3  A    between atoms: N_14  and  C_15 
REMARK    4  A    between atoms: C_15  and  C_16 
REMARK    5  A    between atoms: C_15  and  C_19 
ROOT
HETATM    1  N   UNL     1     -41.986 -51.777  11.825  1.00  0.00    -0.304 N 
HETATM    2  C   UNL     1     -42.035 -50.429  12.106  1.00  0.00     0.321 C 
HETATM    3  O   UNL     1     -42.488 -49.956  13.145  1.00  0.00    -0.247 OA
HETATM    4  N   UNL     1     -41.516 -49.630  11.123  1.00  0.00    -0.338 N 
HETATM    5  H   UNL     1     -41.673 -52.071  10.905  1.00  0.00     0.171 HD
HETATM    6  H   UNL     1     -41.096 -50.029  10.301  1.00  0.00     0.164 HD
ENDROOT
BRANCH   1   7
HETATM    7  C   UNL     1     -42.342 -52.800  12.682  1.00  0.00     0.105 A 
HETATM    8  C   UNL     1     -41.227 -53.499  13.429  1.00  0.00     0.272 A 
HETATM    9  N   UNL     1     -41.605 -54.518  14.281  1.00  0.00    -0.331 N 
HETATM   10  O   UNL     1     -40.052 -53.168  13.280  1.00  0.00    -0.266 OA
HETATM   11  C   UNL     1     -42.908 -54.893  14.504  1.00  0.00     0.107 A 
HETATM   12  H   UNL     1     -40.853 -54.985  14.775  1.00  0.00     0.168 HD
HETATM   13  C   UNL     1     -43.918 -54.276  13.868  1.00  0.00     0.065 A 
HETATM   14  C   UNL     1     -43.593 -53.222  12.924  1.00  0.00     0.052 A 
BRANCH  13  15
HETATM   15  C   UNL     1     -45.367 -54.603  14.103  1.00  0.00     0.418 C 
HETATM   16  F   UNL     1     -45.729 -54.549  15.410  1.00  0.00    -0.166 F 
HETATM   17  F   UNL     1     -45.665 -55.858  13.674  1.00  0.00    -0.166 F 
HETATM   18  F   UNL     1     -46.189 -53.755  13.435  1.00  0.00    -0.166 F 
ENDBRANCH  13  15
ENDBRANCH   1   7
BRANCH   4  19
HETATM   19  C   UNL     1     -41.380 -48.203  11.361  1.00  0.00     0.094 C 
BRANCH  19  20
HETATM   20  C   UNL     1     -39.924 -47.859  11.548  1.00  0.00     0.009 A 
HETATM   21  C   UNL     1     -39.070 -48.581  12.564  1.00  0.00     0.007 A 
HETATM   22  C   UNL     1     -39.498 -47.166  12.825  1.00  0.00     0.007 A 
ENDBRANCH  19  20
BRANCH  19  23
HETATM   23  C   UNL     1     -41.998 -47.429  10.228  1.00  0.00     0.009 A 
HETATM   24  C   UNL     1     -42.888 -46.243  10.528  1.00  0.00     0.007 A 
HETATM   25  C   UNL     1     -43.487 -47.503   9.975  1.00  0.00     0.007 A 
ENDBRANCH  19  23
ENDBRANCH   4  19
TORSDOF 5
ENDMDL
MODEL 3
REMARK VINA RESULT:      -6.5      2.613      3.923
REMARK  5 active torsions:
REMARK  status: ('A' for Active; 'I' for Inactive)
REMARK    1  A    between atoms: C_2  and  C_5 
REMARK    2  A    between atoms: C_10  and  N_11 
REMARK       I    between atoms: N_11  and  C_12 
REMARK       I    between atoms: C_12  and  N_14 
REMARK    3  A    between atoms: N_14  and  C_15 
REMARK    4  A    between atoms: C_15  and  C_16 
REMARK    5  A    between atoms: C_15  and  C_19 
ROOT
HETATM    1  N   UNL     1     -41.319 -50.212  11.129  1.00  0.00    -0.304 N 
HETATM    2  C   UNL     1     -41.845 -50.918  12.189  1.00  0.00     0.321 C 
HETATM    3  O   UNL     1     -42.347 -50.399  13.182  1.00  0.00    -0.247 OA
HETATM    4  N   UNL     1     -41.779 -52.278  12.048  1.00  0.00    -0.338 N 
HETATM    5  H   UNL     1     -40.847 -50.723  10.389  1.00  0.00     0.171 HD
HETATM    6  H   UNL     1     -41.417 -52.693  11.206  1.00  0.00     0.164 HD
ENDROOT
BRANCH   1   7
HETATM    7  C   UNL     1     -41.353 -48.840  10.967  1.00  0.00     0.105 A 
HETATM    8  C   UNL     1     -40.192 -48.048  11.527  1.00  0.00     0.272 A 
HETATM    9  N   UNL     1     -40.245 -46.679  11.354  1.00  0.00    -0.331 N 
HETATM   10  O   UNL     1     -39.257 -48.603  12.101  1.00  0.00    -0.266 OA
HETATM   11  C   UNL     1     -41.252 -46.024  10.687  1.00  0.00     0.107 A 
HETATM   12  H   UNL     1     -39.467 -46.153  11.736  1.00  0.00     0.168 HD
HETATM   13  C   UNL     1     -42.285 -46.707  10.163  1.00  0.00     0.065 A 
HETATM   14  C   UNL     1     -42.318 -48.147  10.344  1.00  0.00     0.052 A 
BRANCH  13  15
HETATM   15  C   UNL     1     -43.392 -46.059   9.379  1.00  0.00     0.418 C 
HETATM   16  F   UNL     1     -43.184 -46.068   8.037  1.00  0.00    -0.166 F 
HETATM   17  F   UNL     1     -43.551 -44.756   9.734  1.00  0.00    -0.166 F 
HETATM   18  F   UNL     1     -44.584 -46.670   9.593  1.00  0.00    -0.166 F 
ENDBRANCH  13  15
ENDBRANCH   1   7
BRANCH   4  19
HETATM   19  C   UNL     1     -42.427 -53.130  13.030  1.00  0.00     0.094 C 
BRANCH  19  20
HETATM   20  C   UNL     1     -43.724 -53.653  12.467  1.00  0.00     0.009 A 
HETATM   21  C   UNL     1     -45.014 -52.879  12.613  1.00  0.00     0.007 A 
HETATM   22  C   UNL     1     -44.797 -54.122  13.425  1.00  0.00     0.007 A 
ENDBRANCH  19  20
BRANCH  19  23
HETATM   23  C   UNL     1     -41.502 -54.246  13.437  1.00  0.00     0.009 A 
HETATM   24  C   UNL     1     -41.017 -54.331  14.867  1.00  0.00     0.007 A 
HETATM   25  C   UNL     1     -40.058 -53.954  13.777  1.00  0.00     0.007 A 
ENDBRANCH  19  23
ENDBRANCH   4  19
TORSDOF 5
ENDMDL
MODEL 4
REMARK VINA RESULT:      -6.5      3.442      7.061
REMARK  5 active torsions:
REMARK  status: ('A' for Active; 'I' for Inactive)
REMARK    1  A    between atoms: C_2  and  C_5 
REMARK    2  A    between atoms: C_10  and  N_11 
REMARK       I    between atoms: N_11  and  C_12 
REMARK       I    between atoms: C_12  and  N_14 
REMARK    3  A    between atoms: N_14  and  C_15 
REMARK    4  A    between atoms: C_15  and  C_16 
REMARK    5  A    between atoms: C_15  and  C_19 
ROOT
HETATM    1  N   UNL     1     -40.638 -49.639  10.802  1.00  0.00    -0.304 N 
HETATM    2  C   UNL     1     -41.591 -48.658  10.966  1.00  0.00     0.321 C 
HETATM    3  O   UNL     1     -42.315 -48.556  11.953  1.00  0.00    -0.247 OA
HETATM    4  N   UNL     1     -41.669 -47.769   9.928  1.00  0.00    -0.338 N 
HETATM    5  H   UNL     1     -40.145 -49.696   9.916  1.00  0.00     0.171 HD
HETATM    6  H   UNL     1     -41.033 -47.827   9.150  1.00  0.00     0.164 HD
ENDROOT
BRANCH   1   7
HETATM    7  C   UNL     1     -40.282 -50.593  11.737  1.00  0.00     0.105 A 
HETATM    8  C   UNL     1     -39.059 -50.312  12.582  1.00  0.00     0.272 A 
HETATM    9  N   UNL     1     -38.721 -51.277  13.510  1.00  0.00    -0.331 N 
HETATM   10  O   UNL     1     -38.410 -49.277  12.442  1.00  0.00    -0.266 OA
HETATM   11  C   UNL     1     -39.441 -52.428  13.723  1.00  0.00     0.107 A 
HETATM   12  H   UNL     1     -37.898 -51.085  14.070  1.00  0.00     0.168 HD
HETATM   13  C   UNL     1     -40.543 -52.691  12.999  1.00  0.00     0.065 A 
HETATM   14  C   UNL     1     -40.934 -51.741  11.974  1.00  0.00     0.052 A 
BRANCH  13  15
HETATM   15  C   UNL     1     -41.403 -53.906  13.215  1.00  0.00     0.418 C 
HETATM   16  F   UNL     1     -41.429 -54.330  14.505  1.00  0.00    -0.166 F 
HETATM   17  F   UNL     1     -40.966 -54.958  12.474  1.00  0.00    -0.166 F 
HETATM   18  F   UNL     1     -42.691 -53.681  12.853  1.00  0.00    -0.166 F 
ENDBRANCH  13  15
ENDBRANCH   1   7
BRANCH   4  19
HETATM   19  C   UNL     1     -42.533 -46.607  10.046  1.00  0.00     0.094 C 
BRANCH  19  20
HETATM   20  C   UNL     1     -41.694 -45.374  10.260  1.00  0.00     0.009 A 
HETATM   21  C   UNL     1     -40.694 -45.289  11.390  1.00  0.00     0.007 A 
HETATM   22  C   UNL     1     -41.972 -44.506  11.468  1.00  0.00     0.007 A 
ENDBRANCH  19  20
BRANCH  19  23
HETATM   23  C   UNL     1     -43.406 -46.487   8.825  1.00  0.00     0.009 A 
HETATM   24  C   UNL     1     -44.809 -47.050   8.850  1.00  0.00     0.007 A 
HETATM   25  C   UNL     1     -43.755 -47.714   8.013  1.00  0.00     0.007 A 
ENDBRANCH  19  23
ENDBRANCH   4  19
TORSDOF 5
ENDMDL
MODEL 5
REMARK VINA RESULT:      -6.5      3.981      6.058
REMARK  5 active torsions:
REMARK  status: ('A' for Active; 'I' for Inactive)
REMARK    1  A    between atoms: C_2  and  C_5 
REMARK    2  A    between atoms: C_10  and  N_11 
REMARK       I    between atoms: N_11  and  C_12 
REMARK       I    between atoms: C_12  and  N_14 
REMARK    3  A    between atoms: N_14  and  C_15 
REMARK    4  A    between atoms: C_15  and  C_16 
REMARK    5  A    between atoms: C_15  and  C_19 
ROOT
HETATM    1  N   UNL     1     -41.983 -51.100  11.825  1.00  0.00    -0.304 N 
HETATM    2  C   UNL     1     -42.669 -51.540  12.936  1.00  0.00     0.321 C 
HETATM    3  O   UNL     1     -42.448 -51.153  14.081  1.00  0.00    -0.247 OA
HETATM    4  N   UNL     1     -43.651 -52.454  12.666  1.00  0.00    -0.338 N 
HETATM    5  H   UNL     1     -42.175 -51.537  10.929  1.00  0.00     0.171 HD
HETATM    6  H   UNL     1     -43.861 -52.721  11.719  1.00  0.00     0.164 HD
ENDROOT
BRANCH   1   7
HETATM    7  C   UNL     1     -41.021 -50.107  11.802  1.00  0.00     0.105 A 
HETATM    8  C   UNL     1     -39.608 -50.503  12.170  1.00  0.00     0.272 A 
HETATM    9  N   UNL     1     -38.663 -49.496  12.139  1.00  0.00    -0.331 N 
HETATM   10  O   UNL     1     -39.327 -51.660  12.476  1.00  0.00    -0.266 OA
HETATM   11  C   UNL     1     -38.928 -48.200  11.767  1.00  0.00     0.107 A 
HETATM   12  H   UNL     1     -37.719 -49.766  12.391  1.00  0.00     0.168 HD
HETATM   13  C   UNL     1     -40.172 -47.828  11.417  1.00  0.00     0.065 A 
HETATM   14  C   UNL     1     -41.226 -48.824  11.466  1.00  0.00     0.052 A 
BRANCH  13  15
HETATM   15  C   UNL     1     -40.519 -46.440  10.952  1.00  0.00     0.418 C 
HETATM   16  F   UNL     1     -41.604 -46.398  10.137  1.00  0.00    -0.166 F 
HETATM   17  F   UNL     1     -39.494 -45.882  10.257  1.00  0.00    -0.166 F 
HETATM   18  F   UNL     1     -40.782 -45.612  11.994  1.00  0.00    -0.166 F 
ENDBRANCH  13  15
ENDBRANCH   1   7
BRANCH   4  19
HETATM   19  C   UNL     1     -44.538 -52.885  13.733  1.00  0.00     0.094 C 
BRANCH  19  20
HETATM   20  C   UNL     1     -45.971 -52.699  13.304  1.00  0.00     0.009 A 
HETATM   21  C   UNL     1     -46.401 -51.494  12.501  1.00  0.00     0.007 A 
HETATM   22  C   UNL     1     -46.786 -51.599  13.947  1.00  0.00     0.007 A 
ENDBRANCH  19  20
BRANCH  19  23
HETATM   23  C   UNL     1     -44.244 -54.314  14.104  1.00  0.00     0.009 A 
HETATM   24  C   UNL     1     -43.824 -54.650  15.517  1.00  0.00     0.007 A 
HETATM   25  C   UNL     1     -42.826 -54.749  14.400  1.00  0.00     0.007 A 
ENDBRANCH  19  23
ENDBRANCH   4  19
TORSDOF 5
ENDMDL
MODEL 6
REMARK VINA RESULT:      -6.3      4.292      5.949
REMARK  5 active torsions:
REMARK  status: ('A' for Active; 'I' for Inactive)
REMARK    1  A    between atoms: C_2  and  C_5 
REMARK    2  A    between atoms: C_10  and  N_11 
REMARK       I    between atoms: N_11  and  C_12 
REMARK       I    between atoms: C_12  and  N_14 
REMARK    3  A    between atoms: N_14  and  C_15 
REMARK    4  A    between atoms: C_15  and  C_16 
REMARK    5  A    between atoms: C_15  and  C_19 
ROOT
HETATM    1  N   UNL     1     -41.624 -51.377  13.919  1.00  0.00    -0.304 N 
HETATM    2  C   UNL     1     -40.989 -50.609  12.967  1.00  0.00     0.321 C 
HETATM    3  O   UNL     1     -41.356 -50.514  11.799  1.00  0.00    -0.247 OA
HETATM    4  N   UNL     1     -39.895 -49.929  13.430  1.00  0.00    -0.338 N 
HETATM    5  H   UNL     1     -41.200 -51.463  14.837  1.00  0.00     0.171 HD
HETATM    6  H   UNL     1     -39.636 -49.969  14.402  1.00  0.00     0.164 HD
ENDROOT
BRANCH   1   7
HETATM    7  C   UNL     1     -42.804 -52.075  13.746  1.00  0.00     0.105 A 
HETATM    8  C   UNL     1     -42.702 -53.483  13.201  1.00  0.00     0.272 A 
HETATM    9  N   UNL     1     -43.893 -54.163  13.037  1.00  0.00    -0.331 N 
HETATM   10  O   UNL     1     -41.615 -53.984  12.923  1.00  0.00    -0.266 OA
HETATM   11  C   UNL     1     -45.124 -53.654  13.370  1.00  0.00     0.107 A 
HETATM   12  H   UNL     1     -43.819 -55.104  12.667  1.00  0.00     0.168 HD
HETATM   13  C   UNL     1     -45.240 -52.413  13.875  1.00  0.00     0.065 A 
HETATM   14  C   UNL     1     -44.033 -51.622  14.035  1.00  0.00     0.052 A 
BRANCH  13  15
HETATM   15  C   UNL     1     -46.551 -51.814  14.306  1.00  0.00     0.418 C 
HETATM   16  F   UNL     1     -47.181 -51.124  13.322  1.00  0.00    -0.166 F 
HETATM   17  F   UNL     1     -46.381 -50.945  15.337  1.00  0.00    -0.166 F 
HETATM   18  F   UNL     1     -47.420 -52.764  14.734  1.00  0.00    -0.166 F 
ENDBRANCH  13  15
ENDBRANCH   1   7
BRANCH   4  19
HETATM   19  C   UNL     1     -39.226 -48.975  12.562  1.00  0.00     0.094 C 
BRANCH  19  20
HETATM   20  C   UNL     1     -39.365 -47.588  13.134  1.00  0.00     0.009 A 
HETATM   21  C   UNL     1     -40.721 -46.993  13.435  1.00  0.00     0.007 A 
HETATM   22  C   UNL     1     -39.936 -46.494  12.258  1.00  0.00     0.007 A 
ENDBRANCH  19  20
BRANCH  19  23
HETATM   23  C   UNL     1     -37.784 -49.366  12.380  1.00  0.00     0.009 A 
HETATM   24  C   UNL     1     -37.345 -50.027  11.093  1.00  0.00     0.007 A 
HETATM   25  C   UNL     1     -37.385 -50.825  12.364  1.00  0.00     0.007 A 
ENDBRANCH  19  23
ENDBRANCH   4  19
TORSDOF 5
ENDMDL
MODEL 7
REMARK VINA RESULT:      -6.1      4.432      5.791
REMARK  5 active torsions:
REMARK  status: ('A' for Active; 'I' for Inactive)
REMARK    1  A    between atoms: C_2  and  C_5 
REMARK    2  A    between atoms: C_10  and  N_11 
REMARK       I    between atoms: N_11  and  C_12 
REMARK       I    between atoms: C_12  and  N_14 
REMARK    3  A    between atoms: N_14  and  C_15 
REMARK    4  A    between atoms: C_15  and  C_16 
REMARK    5  A    between atoms: C_15  and  C_19 
ROOT
HETATM    1  N   UNL     1     -41.754 -49.893  11.427  1.00  0.00    -0.304 N 
HETATM    2  C   UNL     1     -42.261 -50.616  12.484  1.00  0.00     0.321 C 
HETATM    3  O   UNL     1     -42.251 -50.232  13.651  1.00  0.00    -0.247 OA
HETATM    4  N   UNL     1     -42.806 -51.821  12.133  1.00  0.00    -0.338 N 
HETATM    5  H   UNL     1     -41.729 -50.325  10.509  1.00  0.00     0.171 HD
HETATM    6  H   UNL     1     -42.860 -52.101  11.168  1.00  0.00     0.164 HD
ENDROOT
BRANCH   1   7
HETATM    7  C   UNL     1     -41.248 -48.608  11.488  1.00  0.00     0.105 A 
HETATM    8  C   UNL     1     -41.683 -47.640  10.409  1.00  0.00     0.272 A 
HETATM    9  N   UNL     1     -41.165 -46.363  10.489  1.00  0.00    -0.331 N 
HETATM   10  O   UNL     1     -42.456 -47.983   9.517  1.00  0.00    -0.266 OA
HETATM   11  C   UNL     1     -40.329 -45.930  11.490  1.00  0.00     0.107 A 
HETATM   12  H   UNL     1     -41.457 -45.720   9.761  1.00  0.00     0.168 HD
HETATM   13  C   UNL     1     -39.944 -46.764  12.470  1.00  0.00     0.065 A 
HETATM   14  C   UNL     1     -40.415 -48.137  12.428  1.00  0.00     0.052 A 
BRANCH  13  15
HETATM   15  C   UNL     1     -39.072 -46.342  13.621  1.00  0.00     0.418 C 
HETATM   16  F   UNL     1     -39.750 -46.192  14.788  1.00  0.00    -0.166 F 
HETATM   17  F   UNL     1     -38.468 -45.151  13.371  1.00  0.00    -0.166 F 
HETATM   18  F   UNL     1     -38.083 -47.240  13.858  1.00  0.00    -0.166 F 
ENDBRANCH  13  15
ENDBRANCH   1   7
BRANCH   4  19
HETATM   19  C   UNL     1     -43.500 -52.611  13.135  1.00  0.00     0.094 C 
BRANCH  19  20
HETATM   20  C   UNL     1     -44.967 -52.679  12.798  1.00  0.00     0.009 A 
HETATM   21  C   UNL     1     -45.850 -51.455  12.876  1.00  0.00     0.007 A 
HETATM   22  C   UNL     1     -45.978 -52.531  13.914  1.00  0.00     0.007 A 
ENDBRANCH  19  20
BRANCH  19  23
HETATM   23  C   UNL     1     -42.883 -53.981  13.232  1.00  0.00     0.009 A 
HETATM   24  C   UNL     1     -42.176 -54.395  14.503  1.00  0.00     0.007 A 
HETATM   25  C   UNL     1     -41.379 -54.140  13.256  1.00  0.00     0.007 A 
ENDBRANCH  19  23
ENDBRANCH   4  19
TORSDOF 5
ENDMDL
MODEL 8
REMARK VINA RESULT:      -6.1      4.177      7.044
REMARK  5 active torsions:
REMARK  status: ('A' for Active; 'I' for Inactive)
REMARK    1  A    between atoms: C_2  and  C_5 
REMARK    2  A    between atoms: C_10  and  N_11 
REMARK       I    between atoms: N_11  and  C_12 
REMARK       I    between atoms: C_12  and  N_14 
REMARK    3  A    between atoms: N_14  and  C_15 
REMARK    4  A    between atoms: C_15  and  C_16 
REMARK    5  A    between atoms: C_15  and  C_19 
ROOT
HETATM    1  N   UNL     1     -41.433 -51.746  14.274  1.00  0.00    -0.304 N 
HETATM    2  C   UNL     1     -40.816 -51.381  13.097  1.00  0.00     0.321 C 
HETATM    3  O   UNL     1     -40.688 -52.123  12.127  1.00  0.00    -0.247 OA
HETATM    4  N   UNL     1     -40.355 -50.093  13.079  1.00  0.00    -0.338 N 
HETATM    5  H   UNL     1     -41.418 -51.096  15.054  1.00  0.00     0.171 HD
HETATM    6  H   UNL     1     -40.516 -49.476  13.858  1.00  0.00     0.164 HD
ENDROOT
BRANCH   1   7
HETATM    7  C   UNL     1     -42.076 -52.945  14.519  1.00  0.00     0.105 A 
HETATM    8  C   UNL     1     -41.306 -54.001  15.281  1.00  0.00     0.272 A 
HETATM    9  N   UNL     1     -41.968 -55.191  15.515  1.00  0.00    -0.331 N 
HETATM   10  O   UNL     1     -40.156 -53.801  15.666  1.00  0.00    -0.266 OA
HETATM   11  C   UNL     1     -43.263 -55.441  15.134  1.00  0.00     0.107 A 
HETATM   12  H   UNL     1     -41.445 -55.896  16.022  1.00  0.00     0.168 HD
HETATM   13  C   UNL     1     -43.976 -54.512  14.473  1.00  0.00     0.065 A 
HETATM   14  C   UNL     1     -43.330 -53.251  14.154  1.00  0.00     0.052 A 
BRANCH  13  15
HETATM   15  C   UNL     1     -45.413 -54.702  14.072  1.00  0.00     0.418 C 
HETATM   16  F   UNL     1     -45.814 -53.865  13.082  1.00  0.00    -0.166 F 
HETATM   17  F   UNL     1     -46.250 -54.488  15.120  1.00  0.00    -0.166 F 
HETATM   18  F   UNL     1     -45.649 -55.964  13.634  1.00  0.00    -0.166 F 
ENDBRANCH  13  15
ENDBRANCH   1   7
BRANCH   4  19
HETATM   19  C   UNL     1     -39.815 -49.545  11.847  1.00  0.00     0.094 C 
BRANCH  19  20
HETATM   20  C   UNL     1     -40.529 -48.260  11.511  1.00  0.00     0.009 A 
HETATM   21  C   UNL     1     -41.977 -48.044  11.882  1.00  0.00     0.007 A 
HETATM   22  C   UNL     1     -41.606 -48.283  10.448  1.00  0.00     0.007 A 
ENDBRANCH  19  20
BRANCH  19  23
HETATM   23  C   UNL     1     -38.329 -49.344  11.978  1.00  0.00     0.009 A 
HETATM   24  C   UNL     1     -37.392 -50.031  11.011  1.00  0.00     0.007 A 
HETATM   25  C   UNL     1     -37.444 -50.478  12.442  1.00  0.00     0.007 A 
ENDBRANCH  19  23
ENDBRANCH   4  19
TORSDOF 5
ENDMDL
MODEL 9
REMARK VINA RESULT:      -6.0      1.662      2.797
REMARK  5 active torsions:
REMARK  status: ('A' for Active; 'I' for Inactive)
REMARK    1  A    between atoms: C_2  and  C_5 
REMARK    2  A    between atoms: C_10  and  N_11 
REMARK       I    between atoms: N_11  and  C_12 
REMARK       I    between atoms: C_12  and  N_14 
REMARK    3  A    between atoms: N_14  and  C_15 
REMARK    4  A    between atoms: C_15  and  C_16 
REMARK    5  A    between atoms: C_15  and  C_19 
ROOT
HETATM    1  N   UNL     1     -42.436 -47.896  12.265  1.00  0.00    -0.304 N 
HETATM    2  C   UNL     1     -41.706 -49.045  12.476  1.00  0.00     0.321 C 
HETATM    3  O   UNL     1     -41.531 -49.917  11.629  1.00  0.00    -0.247 OA
HETATM    4  N   UNL     1     -41.162 -49.145  13.728  1.00  0.00    -0.338 N 
HETATM    5  H   UNL     1     -42.599 -47.272  13.049  1.00  0.00     0.171 HD
HETATM    6  H   UNL     1     -41.264 -48.400  14.396  1.00  0.00     0.164 HD
ENDROOT
BRANCH   1   7
HETATM    7  C   UNL     1     -43.000 -47.497  11.068  1.00  0.00     0.105 A 
HETATM    8  C   UNL     1     -42.158 -46.626  10.162  1.00  0.00     0.272 A 
HETATM    9  N   UNL     1     -42.740 -46.239   8.971  1.00  0.00    -0.331 N 
HETATM   10  O   UNL     1     -41.019 -46.287  10.479  1.00  0.00    -0.266 OA
HETATM   11  C   UNL     1     -43.994 -46.626   8.564  1.00  0.00     0.107 A 
HETATM   12  H   UNL     1     -42.173 -45.651   8.371  1.00  0.00     0.168 HD
HETATM   13  C   UNL     1     -44.754 -47.417   9.341  1.00  0.00     0.065 A 
HETATM   14  C   UNL     1     -44.224 -47.828  10.629  1.00  0.00     0.052 A 
BRANCH  13  15
HETATM   15  C   UNL     1     -46.113 -47.917   8.934  1.00  0.00     0.418 C 
HETATM   16  F   UNL     1     -46.606 -48.876   9.758  1.00  0.00    -0.166 F 
HETATM   17  F   UNL     1     -46.087 -48.457   7.687  1.00  0.00    -0.166 F 
HETATM   18  F   UNL     1     -47.029 -46.916   8.908  1.00  0.00    -0.166 F 
ENDBRANCH  13  15
ENDBRANCH   1   7
BRANCH   4  19
HETATM   19  C   UNL     1     -40.254 -50.240  14.027  1.00  0.00     0.094 C 
BRANCH  19  20
HETATM   20  C   UNL     1     -38.895 -49.687  14.374  1.00  0.00     0.009 A 
HETATM   21  C   UNL     1     -38.141 -48.795  13.417  1.00  0.00     0.007 A 
HETATM   22  C   UNL     1     -37.686 -50.209  13.630  1.00  0.00     0.007 A 
ENDBRANCH  19  20
BRANCH  19  23
HETATM   23  C   UNL     1     -40.816 -51.088  15.136  1.00  0.00     0.009 A 
HETATM   24  C   UNL     1     -41.115 -52.549  14.883  1.00  0.00     0.007 A 
HETATM   25  C   UNL     1     -42.245 -51.580  15.073  1.00  0.00     0.007 A 
ENDBRANCH  19  23
ENDBRANCH   4  19
TORSDOF 5
ENDMDL
