MODEL 1
REMARK VINA RESULT:      -5.9      0.000      0.000
REMARK  3 active torsions:
REMARK  status: ('A' for Active; 'I' for Inactive)
REMARK    1  A    between atoms: C_4  and  N_5 
REMARK       I    between atoms: N_5  and  C_6 
REMARK       I    between atoms: C_6  and  N_8 
REMARK    2  A    between atoms: N_8  and  C_9 
REMARK    3  A    between atoms: C_9  and  C_10 
ROOT
HETATM    1  N   UNL     1     -40.936 -49.446  10.308  1.00  0.00    -0.293 N 
HETATM    2  C   UNL     1     -41.705 -48.270  10.537  1.00  0.00     0.321 C 
HETATM    3  O   UNL     1     -41.765 -47.727  11.623  1.00  0.00    -0.247 OA
HETATM    4  N   UNL     1     -42.339 -47.850   9.405  1.00  0.00    -0.342 N 
HETATM    5  H   UNL     1     -40.937 -49.856   9.388  1.00  0.00     0.172 HD
HETATM    6  H   UNL     1     -42.262 -48.340   8.529  1.00  0.00     0.164 HD
ENDROOT
BRANCH   1   7
HETATM    7  C   UNL     1     -40.187 -50.058  11.318  1.00  0.00     0.127 A 
HETATM    8  C   UNL     1     -38.897 -49.757  11.707  1.00  0.00     0.076 A 
HETATM    9  C   UNL     1     -38.582 -50.647  12.753  1.00  0.00     0.025 A 
HETATM   10  C   UNL     1     -37.309 -50.728  13.509  1.00  0.00     0.070 C 
HETATM   11  N   UNL     1     -39.602 -51.467  13.017  1.00  0.00    -0.302 N 
HETATM   12  N   UNL     1     -40.560 -51.096  12.142  1.00  0.00    -0.281 N 
ATOM     13  HN  UNL     1     -39.647 -52.206  13.720  1.00  0.00     0.186 HD
HETATM   14  C   UNL     1     -41.812 -51.811  12.186  1.00  0.00     0.179 C 
ENDBRANCH   1   7
BRANCH   4  15
HETATM   15  C   UNL     1     -43.185 -46.671   9.469  1.00  0.00     0.129 C 
BRANCH  15  16
HETATM   16  C   UNL     1     -44.505 -47.006   8.801  1.00  0.00     0.003 C 
HETATM   17  C   UNL     1     -45.650 -45.955   8.840  1.00  0.00     0.006 C 
HETATM   18  C   UNL     1     -46.628 -47.125   9.060  1.00  0.00     0.001 C 
HETATM   19  C   UNL     1     -45.442 -47.918   9.643  1.00  0.00     0.006 C 
ENDBRANCH  15  16
ENDBRANCH   4  15
TORSDOF 3
ENDMDL
MODEL 2
REMARK VINA RESULT:      -5.6      3.146      6.023
REMARK  3 active torsions:
REMARK  status: ('A' for Active; 'I' for Inactive)
REMARK    1  A    between atoms: C_4  and  N_5 
REMARK       I    between atoms: N_5  and  C_6 
REMARK       I    between atoms: C_6  and  N_8 
REMARK    2  A    between atoms: N_8  and  C_9 
REMARK    3  A    between atoms: C_9  and  C_10 
ROOT
HETATM    1  N   UNL     1     -40.879 -51.290  11.292  1.00  0.00    -0.293 N 
HETATM    2  C   UNL     1     -41.100 -52.008  12.501  1.00  0.00     0.321 C 
HETATM    3  O   UNL     1     -40.980 -51.497  13.598  1.00  0.00    -0.247 OA
HETATM    4  N   UNL     1     -41.457 -53.303  12.265  1.00  0.00    -0.342 N 
HETATM    5  H   UNL     1     -40.982 -51.773  10.415  1.00  0.00     0.172 HD
HETATM    6  H   UNL     1     -41.538 -53.680  11.334  1.00  0.00     0.164 HD
ENDROOT
BRANCH   1   7
HETATM    7  C   UNL     1     -40.514 -49.940  11.279  1.00  0.00     0.127 A 
HETATM    8  C   UNL     1     -41.337 -48.849  11.085  1.00  0.00     0.076 A 
HETATM    9  C   UNL     1     -40.508 -47.712  11.155  1.00  0.00     0.025 A 
HETATM   10  C   UNL     1     -40.916 -46.294  11.008  1.00  0.00     0.070 C 
HETATM   11  N   UNL     1     -39.236 -48.051  11.379  1.00  0.00    -0.302 N 
HETATM   12  N   UNL     1     -39.260 -49.398  11.452  1.00  0.00    -0.281 N 
ATOM     13  HN  UNL     1     -38.430 -47.432  11.473  1.00  0.00     0.186 HD
HETATM   14  C   UNL     1     -38.008 -50.072  11.696  1.00  0.00     0.179 C 
ENDBRANCH   1   7
BRANCH   4  15
HETATM   15  C   UNL     1     -41.701 -54.183  13.394  1.00  0.00     0.129 C 
BRANCH  15  16
HETATM   16  C   UNL     1     -43.137 -53.983  13.842  1.00  0.00     0.003 C 
HETATM   17  C   UNL     1     -43.875 -55.163  14.533  1.00  0.00     0.006 C 
HETATM   18  C   UNL     1     -45.133 -54.752  13.745  1.00  0.00     0.001 C 
HETATM   19  C   UNL     1     -44.191 -54.114  12.706  1.00  0.00     0.006 C 
ENDBRANCH  15  16
ENDBRANCH   4  15
TORSDOF 3
ENDMDL
MODEL 3
REMARK VINA RESULT:      -5.6      1.127      2.211
REMARK  3 active torsions:
REMARK  status: ('A' for Active; 'I' for Inactive)
REMARK    1  A    between atoms: C_4  and  N_5 
REMARK       I    between atoms: N_5  and  C_6 
REMARK       I    between atoms: C_6  and  N_8 
REMARK    2  A    between atoms: N_8  and  C_9 
REMARK    3  A    between atoms: C_9  and  C_10 
ROOT
HETATM    1  N   UNL     1     -40.759 -49.844  10.675  1.00  0.00    -0.293 N 
HETATM    2  C   UNL     1     -41.429 -48.632  11.007  1.00  0.00     0.321 C 
HETATM    3  O   UNL     1     -41.806 -48.381  12.136  1.00  0.00    -0.247 OA
HETATM    4  N   UNL     1     -41.579 -47.820   9.922  1.00  0.00    -0.342 N 
HETATM    5  H   UNL     1     -40.482 -49.999   9.719  1.00  0.00     0.172 HD
HETATM    6  H   UNL     1     -41.253 -48.079   9.005  1.00  0.00     0.164 HD
ENDROOT
BRANCH   1   7
HETATM    7  C   UNL     1     -40.480 -50.830  11.626  1.00  0.00     0.127 A 
HETATM    8  C   UNL     1     -41.213 -51.968  11.897  1.00  0.00     0.076 A 
HETATM    9  C   UNL     1     -40.534 -52.638  12.933  1.00  0.00     0.025 A 
HETATM   10  C   UNL     1     -40.922 -53.913  13.582  1.00  0.00     0.070 C 
HETATM   11  N   UNL     1     -39.437 -51.973  13.305  1.00  0.00    -0.302 N 
HETATM   12  N   UNL     1     -39.421 -50.887  12.505  1.00  0.00    -0.281 N 
ATOM     13  HN  UNL     1     -38.764 -52.228  14.028  1.00  0.00     0.186 HD
HETATM   14  C   UNL     1     -38.329 -49.958  12.668  1.00  0.00     0.179 C 
ENDBRANCH   1   7
BRANCH   4  15
HETATM   15  C   UNL     1     -42.263 -46.549  10.084  1.00  0.00     0.129 C 
BRANCH  15  16
HETATM   16  C   UNL     1     -43.544 -46.601   9.273  1.00  0.00     0.003 C 
HETATM   17  C   UNL     1     -44.747 -47.412   9.829  1.00  0.00     0.006 C 
HETATM   18  C   UNL     1     -45.014 -47.881   8.387  1.00  0.00     0.001 C 
HETATM   19  C   UNL     1     -43.524 -47.620   8.098  1.00  0.00     0.006 C 
ENDBRANCH  15  16
ENDBRANCH   4  15
TORSDOF 3
ENDMDL
MODEL 4
REMARK VINA RESULT:      -5.5      1.330      7.005
REMARK  3 active torsions:
REMARK  status: ('A' for Active; 'I' for Inactive)
REMARK    1  A    between atoms: C_4  and  N_5 
REMARK       I    between atoms: N_5  and  C_6 
REMARK       I    between atoms: C_6  and  N_8 
REMARK    2  A    between atoms: N_8  and  C_9 
REMARK    3  A    between atoms: C_9  and  C_10 
ROOT
HETATM    1  N   UNL     1     -41.714 -48.347   9.704  1.00  0.00    -0.293 N 
HETATM    2  C   UNL     1     -41.484 -49.105  10.887  1.00  0.00     0.321 C 
HETATM    3  O   UNL     1     -42.193 -49.016  11.871  1.00  0.00    -0.247 OA
HETATM    4  N   UNL     1     -40.398 -49.920  10.765  1.00  0.00    -0.342 N 
HETATM    5  H   UNL     1     -41.084 -48.457   8.927  1.00  0.00     0.172 HD
HETATM    6  H   UNL     1     -39.838 -49.953   9.928  1.00  0.00     0.164 HD
ENDROOT
BRANCH   1   7
HETATM    7  C   UNL     1     -42.779 -47.449   9.586  1.00  0.00     0.127 A 
HETATM    8  C   UNL     1     -44.033 -47.696   9.062  1.00  0.00     0.076 A 
HETATM    9  C   UNL     1     -44.746 -46.485   9.158  1.00  0.00     0.025 A 
HETATM   10  C   UNL     1     -46.141 -46.229   8.727  1.00  0.00     0.070 C 
HETATM   11  N   UNL     1     -43.999 -45.523   9.706  1.00  0.00    -0.302 N 
HETATM   12  N   UNL     1     -42.818 -46.123   9.958  1.00  0.00    -0.281 N 
ATOM     13  HN  UNL     1     -44.262 -44.554   9.892  1.00  0.00     0.186 HD
HETATM   14  C   UNL     1     -41.783 -45.325  10.568  1.00  0.00     0.179 C 
ENDBRANCH   1   7
BRANCH   4  15
HETATM   15  C   UNL     1     -40.010 -50.750  11.892  1.00  0.00     0.129 C 
BRANCH  15  16
HETATM   16  C   UNL     1     -38.868 -50.057  12.611  1.00  0.00     0.003 C 
HETATM   17  C   UNL     1     -37.499 -50.786  12.714  1.00  0.00     0.006 C 
HETATM   18  C   UNL     1     -37.390 -50.239  14.151  1.00  0.00     0.001 C 
HETATM   19  C   UNL     1     -38.928 -50.154  14.163  1.00  0.00     0.006 C 
ENDBRANCH  15  16
ENDBRANCH   4  15
TORSDOF 3
ENDMDL
MODEL 5
REMARK VINA RESULT:      -5.5      1.894      6.317
REMARK  3 active torsions:
REMARK  status: ('A' for Active; 'I' for Inactive)
REMARK    1  A    between atoms: C_4  and  N_5 
REMARK       I    between atoms: N_5  and  C_6 
REMARK       I    between atoms: C_6  and  N_8 
REMARK    2  A    between atoms: N_8  and  C_9 
REMARK    3  A    between atoms: C_9  and  C_10 
ROOT
HETATM    1  N   UNL     1     -41.194 -49.155  10.317  1.00  0.00    -0.293 N 
HETATM    2  C   UNL     1     -41.254 -49.866  11.550  1.00  0.00     0.321 C 
HETATM    3  O   UNL     1     -41.827 -49.431  12.530  1.00  0.00    -0.247 OA
HETATM    4  N   UNL     1     -40.605 -51.063  11.478  1.00  0.00    -0.342 N 
HETATM    5  H   UNL     1     -40.693 -49.564   9.545  1.00  0.00     0.172 HD
HETATM    6  H   UNL     1     -40.140 -51.376  10.642  1.00  0.00     0.164 HD
ENDROOT
BRANCH   1   7
HETATM    7  C   UNL     1     -41.797 -47.907  10.144  1.00  0.00     0.127 A 
HETATM    8  C   UNL     1     -42.997 -47.633   9.516  1.00  0.00     0.076 A 
HETATM    9  C   UNL     1     -43.172 -46.237   9.592  1.00  0.00     0.025 A 
HETATM   10  C   UNL     1     -44.308 -45.446   9.061  1.00  0.00     0.070 C 
HETATM   11  N   UNL     1     -42.152 -45.652  10.225  1.00  0.00    -0.302 N 
HETATM   12  N   UNL     1     -41.334 -46.675  10.551  1.00  0.00    -0.281 N 
ATOM     13  HN  UNL     1     -42.021 -44.659  10.419  1.00  0.00     0.186 HD
HETATM   14  C   UNL     1     -40.122 -46.355  11.263  1.00  0.00     0.179 C 
ENDBRANCH   1   7
BRANCH   4  15
HETATM   15  C   UNL     1     -40.553 -51.908  12.659  1.00  0.00     0.129 C 
BRANCH  15  16
HETATM   16  C   UNL     1     -41.633 -52.965  12.525  1.00  0.00     0.003 C 
HETATM   17  C   UNL     1     -43.011 -52.714  13.197  1.00  0.00     0.006 C 
HETATM   18  C   UNL     1     -43.021 -54.205  13.584  1.00  0.00     0.001 C 
HETATM   19  C   UNL     1     -41.483 -54.168  13.500  1.00  0.00     0.006 C 
ENDBRANCH  15  16
ENDBRANCH   4  15
TORSDOF 3
ENDMDL
MODEL 6
REMARK VINA RESULT:      -5.5      3.608      6.229
REMARK  3 active torsions:
REMARK  status: ('A' for Active; 'I' for Inactive)
REMARK    1  A    between atoms: C_4  and  N_5 
REMARK       I    between atoms: N_5  and  C_6 
REMARK       I    between atoms: C_6  and  N_8 
REMARK    2  A    between atoms: N_8  and  C_9 
REMARK    3  A    between atoms: C_9  and  C_10 
ROOT
HETATM    1  N   UNL     1     -41.763 -52.813  12.030  1.00  0.00    -0.293 N 
HETATM    2  C   UNL     1     -41.643 -51.398  12.123  1.00  0.00     0.321 C 
HETATM    3  O   UNL     1     -42.289 -50.736  12.913  1.00  0.00    -0.247 OA
HETATM    4  N   UNL     1     -40.732 -50.905  11.236  1.00  0.00    -0.342 N 
HETATM    5  H   UNL     1     -41.210 -53.303  11.346  1.00  0.00     0.172 HD
HETATM    6  H   UNL     1     -40.226 -51.497  10.597  1.00  0.00     0.164 HD
ENDROOT
BRANCH   1   7
HETATM    7  C   UNL     1     -42.629 -53.546  12.847  1.00  0.00     0.127 A 
HETATM    8  C   UNL     1     -43.973 -53.791  12.642  1.00  0.00     0.076 A 
HETATM    9  C   UNL     1     -44.404 -54.566  13.737  1.00  0.00     0.025 A 
HETATM   10  C   UNL     1     -45.769 -55.087  13.984  1.00  0.00     0.070 C 
HETATM   11  N   UNL     1     -43.403 -54.803  14.589  1.00  0.00    -0.302 N 
HETATM   12  N   UNL     1     -42.342 -54.181  14.036  1.00  0.00    -0.281 N 
ATOM     13  HN  UNL     1     -43.434 -55.333  15.461  1.00  0.00     0.186 HD
HETATM   14  C   UNL     1     -41.084 -54.262  14.737  1.00  0.00     0.179 C 
ENDBRANCH   1   7
BRANCH   4  15
HETATM   15  C   UNL     1     -40.502 -49.472  11.186  1.00  0.00     0.129 C 
BRANCH  15  16
HETATM   16  C   UNL     1     -39.129 -49.198  11.771  1.00  0.00     0.003 C 
HETATM   17  C   UNL     1     -38.134 -50.382  11.927  1.00  0.00     0.006 C 
HETATM   18  C   UNL     1     -37.713 -49.765  13.274  1.00  0.00     0.001 C 
HETATM   19  C   UNL     1     -39.098 -49.093  13.322  1.00  0.00     0.006 C 
ENDBRANCH  15  16
ENDBRANCH   4  15
TORSDOF 3
ENDMDL
MODEL 7
REMARK VINA RESULT:      -5.4      2.827      4.997
REMARK  3 active torsions:
REMARK  status: ('A' for Active; 'I' for Inactive)
REMARK    1  A    between atoms: C_4  and  N_5 
REMARK       I    between atoms: N_5  and  C_6 
REMARK       I    between atoms: C_6  and  N_8 
REMARK    2  A    between atoms: N_8  and  C_9 
REMARK    3  A    between atoms: C_9  and  C_10 
ROOT
HETATM    1  N   UNL     1     -42.074 -52.357  11.655  1.00  0.00    -0.293 N 
HETATM    2  C   UNL     1     -41.440 -51.169  12.116  1.00  0.00     0.321 C 
HETATM    3  O   UNL     1     -41.480 -50.813  13.279  1.00  0.00    -0.247 OA
HETATM    4  N   UNL     1     -40.799 -50.510  11.109  1.00  0.00    -0.342 N 
HETATM    5  H   UNL     1     -42.014 -52.591  10.678  1.00  0.00     0.172 HD
HETATM    6  H   UNL     1     -40.800 -50.845  10.158  1.00  0.00     0.164 HD
ENDROOT
BRANCH   1   7
HETATM    7  C   UNL     1     -42.783 -53.206  12.509  1.00  0.00     0.127 A 
HETATM    8  C   UNL     1     -44.149 -53.410  12.547  1.00  0.00     0.076 A 
HETATM    9  C   UNL     1     -44.379 -54.347  13.574  1.00  0.00     0.025 A 
HETATM   10  C   UNL     1     -45.686 -54.894  14.012  1.00  0.00     0.070 C 
HETATM   11  N   UNL     1     -43.238 -54.719  14.158  1.00  0.00    -0.302 N 
HETATM   12  N   UNL     1     -42.287 -54.022  13.502  1.00  0.00    -0.281 N 
ATOM     13  HN  UNL     1     -43.113 -55.380  14.925  1.00  0.00     0.186 HD
HETATM   14  C   UNL     1     -40.918 -54.218  13.911  1.00  0.00     0.179 C 
ENDBRANCH   1   7
BRANCH   4  15
HETATM   15  C   UNL     1     -40.116 -49.263  11.405  1.00  0.00     0.129 C 
BRANCH  15  16
HETATM   16  C   UNL     1     -41.147 -48.150  11.390  1.00  0.00     0.003 C 
HETATM   17  C   UNL     1     -42.074 -48.007  10.151  1.00  0.00     0.006 C 
HETATM   18  C   UNL     1     -41.918 -46.481  10.292  1.00  0.00     0.001 C 
HETATM   19  C   UNL     1     -40.583 -46.752  11.011  1.00  0.00     0.006 C 
ENDBRANCH  15  16
ENDBRANCH   4  15
TORSDOF 3
ENDMDL
MODEL 8
REMARK VINA RESULT:      -5.4      2.862      5.325
REMARK  3 active torsions:
REMARK  status: ('A' for Active; 'I' for Inactive)
REMARK    1  A    between atoms: C_4  and  N_5 
REMARK       I    between atoms: N_5  and  C_6 
REMARK       I    between atoms: C_6  and  N_8 
REMARK    2  A    between atoms: N_8  and  C_9 
REMARK    3  A    between atoms: C_9  and  C_10 
ROOT
HETATM    1  N   UNL     1     -41.874 -49.322  11.115  1.00  0.00    -0.293 N 
HETATM    2  C   UNL     1     -42.541 -49.660  12.327  1.00  0.00     0.321 C 
HETATM    3  O   UNL     1     -42.873 -48.825  13.147  1.00  0.00    -0.247 OA
HETATM    4  N   UNL     1     -42.752 -51.003  12.434  1.00  0.00    -0.342 N 
HETATM    5  H   UNL     1     -41.614 -50.061  10.483  1.00  0.00     0.172 HD
HETATM    6  H   UNL     1     -42.451 -51.655  11.728  1.00  0.00     0.164 HD
ENDROOT
BRANCH   1   7
HETATM    7  C   UNL     1     -41.558 -48.003  10.777  1.00  0.00     0.127 A 
HETATM    8  C   UNL     1     -40.468 -47.266  11.196  1.00  0.00     0.076 A 
HETATM    9  C   UNL     1     -40.594 -45.999  10.592  1.00  0.00     0.025 A 
HETATM   10  C   UNL     1     -39.674 -44.845  10.730  1.00  0.00     0.070 C 
HETATM   11  N   UNL     1     -41.693 -45.927   9.837  1.00  0.00    -0.302 N 
HETATM   12  N   UNL     1     -42.260 -47.144   9.961  1.00  0.00    -0.281 N 
ATOM     13  HN  UNL     1     -42.027 -45.132   9.291  1.00  0.00     0.186 HD
HETATM   14  C   UNL     1     -43.487 -47.381   9.241  1.00  0.00     0.179 C 
ENDBRANCH   1   7
BRANCH   4  15
HETATM   15  C   UNL     1     -43.405 -51.520  13.624  1.00  0.00     0.129 C 
BRANCH  15  16
HETATM   16  C   UNL     1     -44.904 -51.395  13.425  1.00  0.00     0.003 C 
HETATM   17  C   UNL     1     -45.810 -51.220  14.676  1.00  0.00     0.006 C 
HETATM   18  C   UNL     1     -46.823 -52.159  13.992  1.00  0.00     0.001 C 
HETATM   19  C   UNL     1     -45.641 -52.746  13.199  1.00  0.00     0.006 C 
ENDBRANCH  15  16
ENDBRANCH   4  15
TORSDOF 3
ENDMDL
MODEL 9
REMARK VINA RESULT:      -5.2      2.113      2.997
REMARK  3 active torsions:
REMARK  status: ('A' for Active; 'I' for Inactive)
REMARK    1  A    between atoms: C_4  and  N_5 
REMARK       I    between atoms: N_5  and  C_6 
REMARK       I    between atoms: C_6  and  N_8 
REMARK    2  A    between atoms: N_8  and  C_9 
REMARK    3  A    between atoms: C_9  and  C_10 
ROOT
HETATM    1  N   UNL     1     -41.098 -51.443  11.390  1.00  0.00    -0.293 N 
HETATM    2  C   UNL     1     -41.288 -50.057  11.654  1.00  0.00     0.321 C 
HETATM    3  O   UNL     1     -41.519 -49.627  12.768  1.00  0.00    -0.247 OA
HETATM    4  N   UNL     1     -41.174 -49.303  10.523  1.00  0.00    -0.342 N 
HETATM    5  H   UNL     1     -40.922 -51.737  10.443  1.00  0.00     0.172 HD
HETATM    6  H   UNL     1     -40.987 -49.709   9.620  1.00  0.00     0.164 HD
ENDROOT
BRANCH   1   7
HETATM    7  C   UNL     1     -41.157 -52.411  12.396  1.00  0.00     0.127 A 
HETATM    8  C   UNL     1     -40.112 -52.896  13.159  1.00  0.00     0.076 A 
HETATM    9  C   UNL     1     -40.669 -53.854  14.028  1.00  0.00     0.025 A 
HETATM   10  C   UNL     1     -39.957 -54.663  15.046  1.00  0.00     0.070 C 
HETATM   11  N   UNL     1     -41.985 -53.979  13.836  1.00  0.00    -0.302 N 
HETATM   12  N   UNL     1     -42.260 -53.100  12.849  1.00  0.00    -0.281 N 
ATOM     13  HN  UNL     1     -42.634 -54.597  14.323  1.00  0.00     0.186 HD
HETATM   14  C   UNL     1     -43.632 -52.999  12.414  1.00  0.00     0.179 C 
ENDBRANCH   1   7
BRANCH   4  15
HETATM   15  C   UNL     1     -41.360 -47.866  10.613  1.00  0.00     0.129 C 
BRANCH  15  16
HETATM   16  C   UNL     1     -42.783 -47.551  10.190  1.00  0.00     0.003 C 
HETATM   17  C   UNL     1     -43.169 -47.712   8.693  1.00  0.00     0.006 C 
HETATM   18  C   UNL     1     -44.009 -46.429   8.839  1.00  0.00     0.001 C 
HETATM   19  C   UNL     1     -43.082 -46.036  10.005  1.00  0.00     0.006 C 
ENDBRANCH  15  16
ENDBRANCH   4  15
TORSDOF 3
ENDMDL
