MODEL 1
REMARK VINA RESULT:      -7.2      0.000      0.000
REMARK  7 active torsions:
REMARK  status: ('A' for Active; 'I' for Inactive)
REMARK    1  A    between atoms: N_1  and  C_2 
REMARK    2  A    between atoms: C_6  and  O_19 
REMARK    3  A    between atoms: C_10  and  O_20 
REMARK    4  A    between atoms: C_11  and  C_15 
REMARK    5  A    between atoms: C_12  and  O_14 
REMARK    6  A    between atoms: C_12  and  C_18 
REMARK    7  A    between atoms: O_14  and  C_15 
ROOT
HETATM    1  C   UNL     1     -41.660 -52.642  13.689  1.00  0.00     0.263 C 
HETATM    2  C   UNL     1     -41.134 -53.895  12.956  1.00  0.00     0.198 C 
HETATM    3  O   UNL     1     -41.170 -52.730  15.042  1.00  0.00    -0.353 OA
HETATM    4  C   UNL     1     -40.095 -54.487  13.900  1.00  0.00     0.182 C 
HETATM    5  C   UNL     1     -39.878 -53.396  14.949  1.00  0.00     0.180 C 
ENDROOT
BRANCH   1   6
HETATM    6  N   UNL     1     -43.111 -52.467  13.581  1.00  0.00    -0.279 N 
HETATM    7  C   UNL     1     -43.531 -51.235  13.086  1.00  0.00     0.331 C 
HETATM    8  N   UNL     1     -44.877 -51.047  12.995  1.00  0.00    -0.275 N 
HETATM    9  O   UNL     1     -42.758 -50.340  12.742  1.00  0.00    -0.246 OA
HETATM   10  C   UNL     1     -45.833 -51.874  13.497  1.00  0.00     0.256 C 
HETATM   11  H   UNL     1     -45.192 -50.159  12.631  1.00  0.00     0.173 HD
HETATM   12  C   UNL     1     -45.341 -53.140  14.092  1.00  0.00     0.022 C 
HETATM   13  O   UNL     1     -47.023 -51.580  13.471  1.00  0.00    -0.267 OA
HETATM   14  C   UNL     1     -44.022 -53.377  14.091  1.00  0.00     0.110 C 
HETATM   15  C   UNL     1     -46.388 -54.037  14.674  1.00  0.00     0.056 C 
ENDBRANCH   1   6
BRANCH   2  16
HETATM   16  O   UNL     1     -40.514 -53.562  11.706  1.00  0.00    -0.388 OA
HETATM   17  H   UNL     1     -40.767 -52.628  11.523  1.00  0.00     0.210 HD
ENDBRANCH   2  16
BRANCH   4  18
HETATM   18  O   UNL     1     -38.942 -54.935  13.208  1.00  0.00    -0.390 OA
HETATM   19  H   UNL     1     -39.235 -55.064  12.276  1.00  0.00     0.210 HD
ENDBRANCH   4  18
BRANCH   5  20
HETATM   20  C   UNL     1     -38.752 -52.385  14.654  1.00  0.00     0.213 C 
BRANCH  20  21
HETATM   21  O   UNL     1     -38.719 -52.002  13.267  1.00  0.00    -0.315 OA
BRANCH  21  22
HETATM   22  C   UNL     1     -37.717 -51.154  12.906  1.00  0.00     0.293 C 
HETATM   23  O   UNL     1     -36.666 -51.483  12.376  1.00  0.00    -0.259 OA
BRANCH  22  24
HETATM   24  C   UNL     1     -38.026 -49.744  13.275  1.00  0.00     0.039 A 
HETATM   25  C   UNL     1     -39.046 -49.081  12.572  1.00  0.00     0.017 A 
HETATM   26  C   UNL     1     -39.347 -47.744  12.847  1.00  0.00     0.001 A 
HETATM   27  C   UNL     1     -38.635 -47.058  13.828  1.00  0.00     0.000 A 
HETATM   28  C   UNL     1     -37.625 -47.710  14.540  1.00  0.00     0.001 A 
HETATM   29  C   UNL     1     -37.320 -49.047  14.265  1.00  0.00     0.017 A 
ENDBRANCH  22  24
ENDBRANCH  21  22
ENDBRANCH  20  21
ENDBRANCH   5  20
TORSDOF 7
ENDMDL
MODEL 2
REMARK VINA RESULT:      -7.1      1.829      2.402
REMARK  7 active torsions:
REMARK  status: ('A' for Active; 'I' for Inactive)
REMARK    1  A    between atoms: N_1  and  C_2 
REMARK    2  A    between atoms: C_6  and  O_19 
REMARK    3  A    between atoms: C_10  and  O_20 
REMARK    4  A    between atoms: C_11  and  C_15 
REMARK    5  A    between atoms: C_12  and  O_14 
REMARK    6  A    between atoms: C_12  and  C_18 
REMARK    7  A    between atoms: O_14  and  C_15 
ROOT
HETATM    1  C   UNL     1     -40.563 -53.674  14.490  1.00  0.00     0.263 C 
HETATM    2  C   UNL     1     -39.748 -54.965  14.258  1.00  0.00     0.198 C 
HETATM    3  O   UNL     1     -40.667 -53.514  15.920  1.00  0.00    -0.353 OA
HETATM    4  C   UNL     1     -39.170 -55.308  15.625  1.00  0.00     0.182 C 
HETATM    5  C   UNL     1     -39.431 -54.059  16.466  1.00  0.00     0.180 C 
ENDROOT
BRANCH   1   6
HETATM    6  N   UNL     1     -41.849 -53.658  13.786  1.00  0.00    -0.279 N 
HETATM    7  C   UNL     1     -41.958 -52.720  12.761  1.00  0.00     0.331 C 
HETATM    8  N   UNL     1     -43.151 -52.678  12.105  1.00  0.00    -0.275 N 
HETATM    9  O   UNL     1     -41.049 -51.954  12.439  1.00  0.00    -0.246 OA
HETATM   10  C   UNL     1     -44.283 -53.339  12.468  1.00  0.00     0.256 C 
HETATM   11  H   UNL     1     -43.238 -52.007  11.357  1.00  0.00     0.173 HD
HETATM   12  C   UNL     1     -44.148 -54.267  13.617  1.00  0.00     0.022 C 
HETATM   13  O   UNL     1     -45.350 -53.163  11.889  1.00  0.00    -0.267 OA
HETATM   14  C   UNL     1     -42.948 -54.389  14.202  1.00  0.00     0.110 C 
HETATM   15  C   UNL     1     -45.400 -54.970  14.039  1.00  0.00     0.056 C 
ENDBRANCH   1   6
BRANCH   2  16
HETATM   16  O   UNL     1     -38.682 -54.762  13.320  1.00  0.00    -0.388 OA
HETATM   17  H   UNL     1     -37.864 -55.063  13.777  1.00  0.00     0.210 HD
ENDBRANCH   2  16
BRANCH   4  18
HETATM   18  O   UNL     1     -37.822 -55.739  15.538  1.00  0.00    -0.390 OA
HETATM   19  H   UNL     1     -37.850 -56.561  14.995  1.00  0.00     0.210 HD
ENDBRANCH   4  18
BRANCH   5  20
HETATM   20  C   UNL     1     -38.312 -52.998  16.473  1.00  0.00     0.213 C 
BRANCH  20  21
HETATM   21  O   UNL     1     -38.794 -51.701  16.076  1.00  0.00    -0.315 OA
BRANCH  21  22
HETATM   22  C   UNL     1     -37.843 -50.795  15.719  1.00  0.00     0.293 C 
HETATM   23  O   UNL     1     -36.955 -50.375  16.446  1.00  0.00    -0.259 OA
BRANCH  22  24
HETATM   24  C   UNL     1     -38.026 -50.324  14.318  1.00  0.00     0.039 A 
HETATM   25  C   UNL     1     -37.413 -51.054  13.285  1.00  0.00     0.017 A 
HETATM   26  C   UNL     1     -37.516 -50.632  11.956  1.00  0.00     0.001 A 
HETATM   27  C   UNL     1     -38.235 -49.479  11.647  1.00  0.00     0.000 A 
HETATM   28  C   UNL     1     -38.856 -48.751  12.665  1.00  0.00     0.001 A 
HETATM   29  C   UNL     1     -38.752 -49.171  13.995  1.00  0.00     0.017 A 
ENDBRANCH  22  24
ENDBRANCH  21  22
ENDBRANCH  20  21
ENDBRANCH   5  20
TORSDOF 7
ENDMDL
MODEL 3
REMARK VINA RESULT:      -7.1      3.532      7.425
REMARK  7 active torsions:
REMARK  status: ('A' for Active; 'I' for Inactive)
REMARK    1  A    between atoms: N_1  and  C_2 
REMARK    2  A    between atoms: C_6  and  O_19 
REMARK    3  A    between atoms: C_10  and  O_20 
REMARK    4  A    between atoms: C_11  and  C_15 
REMARK    5  A    between atoms: C_12  and  O_14 
REMARK    6  A    between atoms: C_12  and  C_18 
REMARK    7  A    between atoms: O_14  and  C_15 
ROOT
HETATM    1  C   UNL     1     -39.932 -48.091  12.694  1.00  0.00     0.263 C 
HETATM    2  C   UNL     1     -38.624 -48.893  12.524  1.00  0.00     0.198 C 
HETATM    3  O   UNL     1     -40.795 -48.492  11.610  1.00  0.00    -0.353 OA
HETATM    4  C   UNL     1     -38.954 -49.955  11.483  1.00  0.00     0.182 C 
HETATM    5  C   UNL     1     -40.476 -49.889  11.352  1.00  0.00     0.180 C 
ENDROOT
BRANCH   1   6
HETATM    6  N   UNL     1     -39.722 -46.644  12.796  1.00  0.00    -0.279 N 
HETATM    7  C   UNL     1     -39.323 -46.183  14.048  1.00  0.00     0.331 C 
HETATM    8  N   UNL     1     -39.139 -44.839  14.168  1.00  0.00    -0.275 N 
HETATM    9  O   UNL     1     -39.138 -46.921  15.017  1.00  0.00    -0.246 OA
HETATM   10  C   UNL     1     -39.472 -43.904  13.238  1.00  0.00     0.256 C 
HETATM   11  H   UNL     1     -38.843 -44.496  15.070  1.00  0.00     0.173 HD
HETATM   12  C   UNL     1     -39.973 -44.430  11.945  1.00  0.00     0.022 C 
HETATM   13  O   UNL     1     -39.377 -42.702  13.465  1.00  0.00    -0.267 OA
HETATM   14  C   UNL     1     -40.059 -45.758  11.785  1.00  0.00     0.110 C 
HETATM   15  C   UNL     1     -40.370 -43.402  10.933  1.00  0.00     0.056 C 
ENDBRANCH   1   6
BRANCH   2  16
HETATM   16  O   UNL     1     -38.223 -49.525  13.748  1.00  0.00    -0.388 OA
HETATM   17  H   UNL     1     -38.280 -50.494  13.580  1.00  0.00     0.210 HD
ENDBRANCH   2  16
BRANCH   4  18
HETATM   18  O   UNL     1     -38.405 -51.218  11.820  1.00  0.00    -0.390 OA
HETATM   19  H   UNL     1     -38.740 -51.410  12.727  1.00  0.00     0.210 HD
ENDBRANCH   4  18
BRANCH   5  20
HETATM   20  C   UNL     1     -41.279 -50.824  12.278  1.00  0.00     0.213 C 
BRANCH  20  21
HETATM   21  O   UNL     1     -41.375 -52.159  11.748  1.00  0.00    -0.315 OA
BRANCH  21  22
HETATM   22  C   UNL     1     -41.114 -53.168  12.624  1.00  0.00     0.293 C 
HETATM   23  O   UNL     1     -40.003 -53.584  12.914  1.00  0.00    -0.259 OA
BRANCH  22  24
HETATM   24  C   UNL     1     -42.365 -53.757  13.178  1.00  0.00     0.039 A 
HETATM   25  C   UNL     1     -42.282 -54.488  14.375  1.00  0.00     0.017 A 
HETATM   26  C   UNL     1     -43.418 -55.099  14.915  1.00  0.00     0.001 A 
HETATM   27  C   UNL     1     -44.645 -54.982  14.268  1.00  0.00     0.000 A 
HETATM   28  C   UNL     1     -44.740 -54.250  13.082  1.00  0.00     0.001 A 
HETATM   29  C   UNL     1     -43.606 -53.639  12.538  1.00  0.00     0.017 A 
ENDBRANCH  22  24
ENDBRANCH  21  22
ENDBRANCH  20  21
ENDBRANCH   5  20
TORSDOF 7
ENDMDL
MODEL 4
REMARK VINA RESULT:      -7.0      3.045      6.755
REMARK  7 active torsions:
REMARK  status: ('A' for Active; 'I' for Inactive)
REMARK    1  A    between atoms: N_1  and  C_2 
REMARK    2  A    between atoms: C_6  and  O_19 
REMARK    3  A    between atoms: C_10  and  O_20 
REMARK    4  A    between atoms: C_11  and  C_15 
REMARK    5  A    between atoms: C_12  and  O_14 
REMARK    6  A    between atoms: C_12  and  C_18 
REMARK    7  A    between atoms: O_14  and  C_15 
ROOT
HETATM    1  C   UNL     1     -41.073 -49.941  12.234  1.00  0.00     0.263 C 
HETATM    2  C   UNL     1     -40.394 -51.080  11.442  1.00  0.00     0.198 C 
HETATM    3  O   UNL     1     -42.380 -50.427  12.599  1.00  0.00    -0.353 OA
HETATM    4  C   UNL     1     -41.286 -52.294  11.671  1.00  0.00     0.182 C 
HETATM    5  C   UNL     1     -42.224 -51.861  12.797  1.00  0.00     0.180 C 
ENDROOT
BRANCH   1   6
HETATM    6  N   UNL     1     -41.081 -48.659  11.523  1.00  0.00    -0.279 N 
HETATM    7  C   UNL     1     -39.940 -47.876  11.687  1.00  0.00     0.331 C 
HETATM    8  N   UNL     1     -39.935 -46.673  11.048  1.00  0.00    -0.275 N 
HETATM    9  O   UNL     1     -38.970 -48.220  12.364  1.00  0.00    -0.246 OA
HETATM   10  C   UNL     1     -40.996 -46.102  10.418  1.00  0.00     0.256 C 
HETATM   11  H   UNL     1     -39.110 -46.102  11.154  1.00  0.00     0.173 HD
HETATM   12  C   UNL     1     -42.222 -46.933  10.337  1.00  0.00     0.022 C 
HETATM   13  O   UNL     1     -40.944 -44.965   9.962  1.00  0.00    -0.267 OA
HETATM   14  C   UNL     1     -42.198 -48.161  10.875  1.00  0.00     0.110 C 
HETATM   15  C   UNL     1     -43.401 -46.294   9.673  1.00  0.00     0.056 C 
ENDBRANCH   1   6
BRANCH   2  16
HETATM   16  O   UNL     1     -39.072 -51.354  11.927  1.00  0.00    -0.388 OA
HETATM   17  H   UNL     1     -39.123 -52.237  12.358  1.00  0.00     0.210 HD
ENDBRANCH   2  16
BRANCH   4  18
HETATM   18  O   UNL     1     -40.530 -53.472  11.898  1.00  0.00    -0.390 OA
HETATM   19  H   UNL     1     -41.068 -54.201  11.510  1.00  0.00     0.210 HD
ENDBRANCH   4  18
BRANCH   5  20
HETATM   20  C   UNL     1     -41.755 -52.176  14.232  1.00  0.00     0.213 C 
BRANCH  20  21
HETATM   21  O   UNL     1     -41.592 -53.590  14.449  1.00  0.00    -0.315 OA
BRANCH  21  22
HETATM   22  C   UNL     1     -42.278 -54.114  15.501  1.00  0.00     0.293 C 
HETATM   23  O   UNL     1     -41.789 -54.453  16.568  1.00  0.00    -0.259 OA
BRANCH  22  24
HETATM   24  C   UNL     1     -43.726 -54.276  15.191  1.00  0.00     0.039 A 
HETATM   25  C   UNL     1     -44.662 -53.730  16.086  1.00  0.00     0.017 A 
HETATM   26  C   UNL     1     -46.034 -53.890  15.866  1.00  0.00     0.001 A 
HETATM   27  C   UNL     1     -46.482 -54.594  14.751  1.00  0.00     0.000 A 
HETATM   28  C   UNL     1     -45.560 -55.133  13.851  1.00  0.00     0.001 A 
HETATM   29  C   UNL     1     -44.188 -54.976  14.069  1.00  0.00     0.017 A 
ENDBRANCH  22  24
ENDBRANCH  21  22
ENDBRANCH  20  21
ENDBRANCH   5  20
TORSDOF 7
ENDMDL
MODEL 5
REMARK VINA RESULT:      -6.8      3.608      5.021
REMARK  7 active torsions:
REMARK  status: ('A' for Active; 'I' for Inactive)
REMARK    1  A    between atoms: N_1  and  C_2 
REMARK    2  A    between atoms: C_6  and  O_19 
REMARK    3  A    between atoms: C_10  and  O_20 
REMARK    4  A    between atoms: C_11  and  C_15 
REMARK    5  A    between atoms: C_12  and  O_14 
REMARK    6  A    between atoms: C_12  and  C_18 
REMARK    7  A    between atoms: O_14  and  C_15 
ROOT
HETATM    1  C   UNL     1     -41.092 -48.791  11.842  1.00  0.00     0.263 C 
HETATM    2  C   UNL     1     -40.538 -50.033  11.109  1.00  0.00     0.198 C 
HETATM    3  O   UNL     1     -41.869 -49.289  12.950  1.00  0.00    -0.353 OA
HETATM    4  C   UNL     1     -40.808 -51.193  12.059  1.00  0.00     0.182 C 
HETATM    5  C   UNL     1     -41.209 -50.518  13.370  1.00  0.00     0.180 C 
ENDROOT
BRANCH   1   6
HETATM    6  N   UNL     1     -41.815 -47.867  10.963  1.00  0.00    -0.279 N 
HETATM    7  C   UNL     1     -41.142 -46.688  10.649  1.00  0.00     0.331 C 
HETATM    8  N   UNL     1     -41.804 -45.809   9.847  1.00  0.00    -0.275 N 
HETATM    9  O   UNL     1     -40.010 -46.422  11.056  1.00  0.00    -0.246 OA
HETATM   10  C   UNL     1     -43.109 -45.899   9.474  1.00  0.00     0.256 C 
HETATM   11  H   UNL     1     -41.322 -44.955   9.608  1.00  0.00     0.173 HD
HETATM   12  C   UNL     1     -43.817 -47.130   9.899  1.00  0.00     0.022 C 
HETATM   13  O   UNL     1     -43.664 -45.007   8.841  1.00  0.00    -0.267 OA
HETATM   14  C   UNL     1     -43.139 -48.048  10.602  1.00  0.00     0.110 C 
HETATM   15  C   UNL     1     -45.262 -47.215   9.518  1.00  0.00     0.056 C 
ENDBRANCH   1   6
BRANCH   2  16
HETATM   16  O   UNL     1     -39.129 -49.925  10.866  1.00  0.00    -0.388 OA
HETATM   17  H   UNL     1     -38.748 -50.799  11.111  1.00  0.00     0.210 HD
ENDBRANCH   2  16
BRANCH   4  18
HETATM   18  O   UNL     1     -39.713 -52.092  12.122  1.00  0.00    -0.390 OA
HETATM   19  H   UNL     1     -39.158 -51.878  11.336  1.00  0.00     0.210 HD
ENDBRANCH   4  18
BRANCH   5  20
HETATM   20  C   UNL     1     -40.065 -50.224  14.362  1.00  0.00     0.213 C 
BRANCH  20  21
HETATM   21  O   UNL     1     -39.002 -49.468  13.752  1.00  0.00    -0.315 OA
BRANCH  21  22
HETATM   22  C   UNL     1     -37.748 -49.977  13.901  1.00  0.00     0.293 C 
HETATM   23  O   UNL     1     -37.244 -50.839  13.198  1.00  0.00    -0.259 OA
BRANCH  22  24
HETATM   24  C   UNL     1     -37.048 -49.383  15.074  1.00  0.00     0.039 A 
HETATM   25  C   UNL     1     -36.241 -50.222  15.862  1.00  0.00     0.017 A 
HETATM   26  C   UNL     1     -35.596 -49.727  16.999  1.00  0.00     0.001 A 
HETATM   27  C   UNL     1     -35.748 -48.389  17.358  1.00  0.00     0.000 A 
HETATM   28  C   UNL     1     -36.540 -47.544  16.577  1.00  0.00     0.001 A 
HETATM   29  C   UNL     1     -37.188 -48.038  15.440  1.00  0.00     0.017 A 
ENDBRANCH  22  24
ENDBRANCH  21  22
ENDBRANCH  20  21
ENDBRANCH   5  20
TORSDOF 7
ENDMDL
MODEL 6
REMARK VINA RESULT:      -6.7      3.544      6.509
REMARK  7 active torsions:
REMARK  status: ('A' for Active; 'I' for Inactive)
REMARK    1  A    between atoms: N_1  and  C_2 
REMARK    2  A    between atoms: C_6  and  O_19 
REMARK    3  A    between atoms: C_10  and  O_20 
REMARK    4  A    between atoms: C_11  and  C_15 
REMARK    5  A    between atoms: C_12  and  O_14 
REMARK    6  A    between atoms: C_12  and  C_18 
REMARK    7  A    between atoms: O_14  and  C_15 
ROOT
HETATM    1  C   UNL     1     -40.920 -48.405  11.916  1.00  0.00     0.263 C 
HETATM    2  C   UNL     1     -39.455 -47.939  12.060  1.00  0.00     0.198 C 
HETATM    3  O   UNL     1     -40.867 -49.793  11.528  1.00  0.00    -0.353 OA
HETATM    4  C   UNL     1     -38.637 -49.224  12.028  1.00  0.00     0.182 C 
HETATM    5  C   UNL     1     -39.678 -50.334  12.172  1.00  0.00     0.180 C 
ENDROOT
BRANCH   1   6
HETATM    6  N   UNL     1     -41.718 -47.558  11.024  1.00  0.00    -0.279 N 
HETATM    7  C   UNL     1     -42.097 -46.325  11.549  1.00  0.00     0.331 C 
HETATM    8  N   UNL     1     -42.853 -45.530  10.742  1.00  0.00    -0.275 N 
HETATM    9  O   UNL     1     -41.784 -45.941  12.677  1.00  0.00    -0.246 OA
HETATM   10  C   UNL     1     -43.408 -45.898   9.556  1.00  0.00     0.256 C 
HETATM   11  H   UNL     1     -43.127 -44.631  11.111  1.00  0.00     0.173 HD
HETATM   12  C   UNL     1     -43.048 -47.252   9.069  1.00  0.00     0.022 C 
HETATM   13  O   UNL     1     -44.170 -45.160   8.941  1.00  0.00    -0.267 OA
HETATM   14  C   UNL     1     -42.220 -48.000   9.811  1.00  0.00     0.110 C 
HETATM   15  C   UNL     1     -43.684 -47.671   7.780  1.00  0.00     0.056 C 
ENDBRANCH   1   6
BRANCH   2  16
HETATM   16  O   UNL     1     -39.232 -47.256  13.301  1.00  0.00    -0.388 OA
HETATM   17  H   UNL     1     -39.540 -46.332  13.157  1.00  0.00     0.210 HD
ENDBRANCH   2  16
BRANCH   4  18
HETATM   18  O   UNL     1     -37.592 -49.212  12.986  1.00  0.00    -0.390 OA
HETATM   19  H   UNL     1     -36.884 -48.653  12.588  1.00  0.00     0.210 HD
ENDBRANCH   4  18
BRANCH   5  20
HETATM   20  C   UNL     1     -39.986 -50.794  13.611  1.00  0.00     0.213 C 
BRANCH  20  21
HETATM   21  O   UNL     1     -41.186 -51.588  13.679  1.00  0.00    -0.315 OA
BRANCH  21  22
HETATM   22  C   UNL     1     -41.043 -52.910  13.391  1.00  0.00     0.293 C 
HETATM   23  O   UNL     1     -40.024 -53.438  12.970  1.00  0.00    -0.259 OA
BRANCH  22  24
HETATM   24  C   UNL     1     -42.309 -53.664  13.609  1.00  0.00     0.039 A 
HETATM   25  C   UNL     1     -43.388 -53.415  12.745  1.00  0.00     0.017 A 
HETATM   26  C   UNL     1     -44.614 -54.062  12.931  1.00  0.00     0.001 A 
HETATM   27  C   UNL     1     -44.770 -54.966  13.980  1.00  0.00     0.000 A 
HETATM   28  C   UNL     1     -43.700 -55.228  14.839  1.00  0.00     0.001 A 
HETATM   29  C   UNL     1     -42.474 -54.580  14.656  1.00  0.00     0.017 A 
ENDBRANCH  22  24
ENDBRANCH  21  22
ENDBRANCH  20  21
ENDBRANCH   5  20
TORSDOF 7
ENDMDL
MODEL 7
REMARK VINA RESULT:      -6.6      2.806      7.347
REMARK  7 active torsions:
REMARK  status: ('A' for Active; 'I' for Inactive)
REMARK    1  A    between atoms: N_1  and  C_2 
REMARK    2  A    between atoms: C_6  and  O_19 
REMARK    3  A    between atoms: C_10  and  O_20 
REMARK    4  A    between atoms: C_11  and  C_15 
REMARK    5  A    between atoms: C_12  and  O_14 
REMARK    6  A    between atoms: C_12  and  C_18 
REMARK    7  A    between atoms: O_14  and  C_15 
ROOT
HETATM    1  C   UNL     1     -39.390 -52.362  15.059  1.00  0.00     0.263 C 
HETATM    2  C   UNL     1     -39.056 -52.688  13.587  1.00  0.00     0.198 C 
HETATM    3  O   UNL     1     -40.721 -51.808  15.059  1.00  0.00    -0.353 OA
HETATM    4  C   UNL     1     -40.385 -52.562  12.853  1.00  0.00     0.182 C 
HETATM    5  C   UNL     1     -41.423 -52.476  13.972  1.00  0.00     0.180 C 
ENDROOT
BRANCH   1   6
HETATM    6  N   UNL     1     -38.384 -51.521  15.715  1.00  0.00    -0.279 N 
HETATM    7  C   UNL     1     -37.985 -51.940  16.982  1.00  0.00     0.331 C 
HETATM    8  N   UNL     1     -37.064 -51.162  17.615  1.00  0.00    -0.275 N 
HETATM    9  O   UNL     1     -38.420 -52.954  17.531  1.00  0.00    -0.246 OA
HETATM   10  C   UNL     1     -36.635 -49.940  17.201  1.00  0.00     0.256 C 
HETATM   11  H   UNL     1     -36.763 -51.462  18.530  1.00  0.00     0.173 HD
HETATM   12  C   UNL     1     -37.148 -49.489  15.884  1.00  0.00     0.022 C 
HETATM   13  O   UNL     1     -35.886 -49.251  17.884  1.00  0.00    -0.267 OA
HETATM   14  C   UNL     1     -37.976 -50.298  15.209  1.00  0.00     0.110 C 
HETATM   15  C   UNL     1     -36.703 -48.130  15.442  1.00  0.00     0.056 C 
ENDBRANCH   1   6
BRANCH   2  16
HETATM   16  O   UNL     1     -38.545 -54.020  13.437  1.00  0.00    -0.388 OA
HETATM   17  H   UNL     1     -38.673 -54.455  14.311  1.00  0.00     0.210 HD
ENDBRANCH   2  16
BRANCH   4  18
HETATM   18  O   UNL     1     -40.567 -53.600  11.903  1.00  0.00    -0.390 OA
HETATM   19  H   UNL     1     -40.426 -54.436  12.406  1.00  0.00     0.210 HD
ENDBRANCH   4  18
BRANCH   5  20
HETATM   20  C   UNL     1     -42.029 -53.814  14.442  1.00  0.00     0.213 C 
BRANCH  20  21
HETATM   21  O   UNL     1     -43.011 -54.317  13.518  1.00  0.00    -0.315 OA
BRANCH  21  22
HETATM   22  C   UNL     1     -44.227 -54.624  14.049  1.00  0.00     0.293 C 
HETATM   23  O   UNL     1     -44.569 -55.729  14.443  1.00  0.00    -0.259 OA
BRANCH  22  24
HETATM   24  C   UNL     1     -45.138 -53.446  14.062  1.00  0.00     0.039 A 
HETATM   25  C   UNL     1     -45.676 -53.035  15.293  1.00  0.00     0.017 A 
HETATM   26  C   UNL     1     -46.571 -51.963  15.356  1.00  0.00     0.001 A 
HETATM   27  C   UNL     1     -46.934 -51.291  14.192  1.00  0.00     0.000 A 
HETATM   28  C   UNL     1     -46.400 -51.686  12.963  1.00  0.00     0.001 A 
HETATM   29  C   UNL     1     -45.505 -52.759  12.897  1.00  0.00     0.017 A 
ENDBRANCH  22  24
ENDBRANCH  21  22
ENDBRANCH  20  21
ENDBRANCH   5  20
TORSDOF 7
ENDMDL
MODEL 8
REMARK VINA RESULT:      -6.6      3.546      6.535
REMARK  7 active torsions:
REMARK  status: ('A' for Active; 'I' for Inactive)
REMARK    1  A    between atoms: N_1  and  C_2 
REMARK    2  A    between atoms: C_6  and  O_19 
REMARK    3  A    between atoms: C_10  and  O_20 
REMARK    4  A    between atoms: C_11  and  C_15 
REMARK    5  A    between atoms: C_12  and  O_14 
REMARK    6  A    between atoms: C_12  and  C_18 
REMARK    7  A    between atoms: O_14  and  C_15 
ROOT
HETATM    1  C   UNL     1     -41.047 -48.620  12.018  1.00  0.00     0.263 C 
HETATM    2  C   UNL     1     -39.506 -48.568  11.936  1.00  0.00     0.198 C 
HETATM    3  O   UNL     1     -41.416 -49.998  11.808  1.00  0.00    -0.353 OA
HETATM    4  C   UNL     1     -39.067 -50.026  11.977  1.00  0.00     0.182 C 
HETATM    5  C   UNL     1     -40.332 -50.785  12.378  1.00  0.00     0.180 C 
ENDROOT
BRANCH   1   6
HETATM    6  N   UNL     1     -41.714 -47.672  11.121  1.00  0.00    -0.279 N 
HETATM    7  C   UNL     1     -41.861 -46.378  11.618  1.00  0.00     0.331 C 
HETATM    8  N   UNL     1     -42.493 -45.486  10.806  1.00  0.00    -0.275 N 
HETATM    9  O   UNL     1     -41.454 -46.025  12.726  1.00  0.00    -0.246 OA
HETATM   10  C   UNL     1     -43.136 -45.784   9.645  1.00  0.00     0.256 C 
HETATM   11  H   UNL     1     -42.598 -44.545  11.154  1.00  0.00     0.173 HD
HETATM   12  C   UNL     1     -43.027 -47.191   9.190  1.00  0.00     0.022 C 
HETATM   13  O   UNL     1     -43.778 -44.942   9.027  1.00  0.00    -0.267 OA
HETATM   14  C   UNL     1     -42.318 -48.051   9.935  1.00  0.00     0.110 C 
HETATM   15  C   UNL     1     -43.762 -47.527   7.931  1.00  0.00     0.056 C 
ENDBRANCH   1   6
BRANCH   2  16
HETATM   16  O   UNL     1     -38.935 -47.861  13.046  1.00  0.00    -0.388 OA
HETATM   17  H   UNL     1     -38.209 -47.313  12.670  1.00  0.00     0.210 HD
ENDBRANCH   2  16
BRANCH   4  18
HETATM   18  O   UNL     1     -37.930 -50.215  12.802  1.00  0.00    -0.390 OA
HETATM   19  H   UNL     1     -37.460 -49.348  12.796  1.00  0.00     0.210 HD
ENDBRANCH   4  18
BRANCH   5  20
HETATM   20  C   UNL     1     -40.541 -51.007  13.890  1.00  0.00     0.213 C 
BRANCH  20  21
HETATM   21  O   UNL     1     -41.881 -51.436  14.193  1.00  0.00    -0.315 OA
BRANCH  21  22
HETATM   22  C   UNL     1     -42.670 -50.524  14.824  1.00  0.00     0.293 C 
HETATM   23  O   UNL     1     -42.270 -49.582  15.492  1.00  0.00    -0.259 OA
BRANCH  22  24
HETATM   24  C   UNL     1     -44.118 -50.826  14.645  1.00  0.00     0.039 A 
HETATM   25  C   UNL     1     -44.932 -50.885  15.788  1.00  0.00     0.017 A 
HETATM   26  C   UNL     1     -46.288 -51.209  15.681  1.00  0.00     0.001 A 
HETATM   27  C   UNL     1     -46.843 -51.473  14.432  1.00  0.00     0.000 A 
HETATM   28  C   UNL     1     -46.045 -51.408  13.287  1.00  0.00     0.001 A 
HETATM   29  C   UNL     1     -44.688 -51.087  13.392  1.00  0.00     0.017 A 
ENDBRANCH  22  24
ENDBRANCH  21  22
ENDBRANCH  20  21
ENDBRANCH   5  20
TORSDOF 7
ENDMDL
MODEL 9
REMARK VINA RESULT:      -6.4      3.318      6.466
REMARK  7 active torsions:
REMARK  status: ('A' for Active; 'I' for Inactive)
REMARK    1  A    between atoms: N_1  and  C_2 
REMARK    2  A    between atoms: C_6  and  O_19 
REMARK    3  A    between atoms: C_10  and  O_20 
REMARK    4  A    between atoms: C_11  and  C_15 
REMARK    5  A    between atoms: C_12  and  O_14 
REMARK    6  A    between atoms: C_12  and  C_18 
REMARK    7  A    between atoms: O_14  and  C_15 
ROOT
HETATM    1  C   UNL     1     -41.134 -49.978  12.226  1.00  0.00     0.263 C 
HETATM    2  C   UNL     1     -40.378 -51.079  11.450  1.00  0.00     0.198 C 
HETATM    3  O   UNL     1     -42.462 -50.491  12.462  1.00  0.00    -0.353 OA
HETATM    4  C   UNL     1     -41.269 -52.309  11.556  1.00  0.00     0.182 C 
HETATM    5  C   UNL     1     -42.304 -51.931  12.617  1.00  0.00     0.180 C 
ENDROOT
BRANCH   1   6
HETATM    6  N   UNL     1     -41.100 -48.669  11.568  1.00  0.00    -0.279 N 
HETATM    7  C   UNL     1     -39.989 -47.881  11.860  1.00  0.00     0.331 C 
HETATM    8  N   UNL     1     -39.947 -46.654  11.271  1.00  0.00    -0.275 N 
HETATM    9  O   UNL     1     -39.076 -48.241  12.605  1.00  0.00    -0.246 OA
HETATM   10  C   UNL     1     -40.958 -46.070  10.573  1.00  0.00     0.256 C 
HETATM   11  H   UNL     1     -39.142 -46.078  11.470  1.00  0.00     0.173 HD
HETATM   12  C   UNL     1     -42.159 -46.911  10.355  1.00  0.00     0.022 C 
HETATM   13  O   UNL     1     -40.883 -44.915  10.168  1.00  0.00    -0.267 OA
HETATM   14  C   UNL     1     -42.165 -48.159  10.845  1.00  0.00     0.110 C 
HETATM   15  C   UNL     1     -43.286 -46.259   9.617  1.00  0.00     0.056 C 
ENDBRANCH   1   6
BRANCH   2  16
HETATM   16  O   UNL     1     -39.097 -51.359  12.033  1.00  0.00    -0.388 OA
HETATM   17  H   UNL     1     -38.727 -50.485  12.297  1.00  0.00     0.210 HD
ENDBRANCH   2  16
BRANCH   4  18
HETATM   18  O   UNL     1     -40.520 -53.488  11.800  1.00  0.00    -0.390 OA
HETATM   19  H   UNL     1     -40.948 -54.183  11.247  1.00  0.00     0.210 HD
ENDBRANCH   4  18
BRANCH   5  20
HETATM   20  C   UNL     1     -41.951 -52.298  14.072  1.00  0.00     0.213 C 
BRANCH  20  21
HETATM   21  O   UNL     1     -41.756 -53.714  14.240  1.00  0.00    -0.315 OA
BRANCH  21  22
HETATM   22  C   UNL     1     -41.991 -54.205  15.488  1.00  0.00     0.293 C 
HETATM   23  O   UNL     1     -42.987 -53.985  16.160  1.00  0.00    -0.259 OA
BRANCH  22  24
HETATM   24  C   UNL     1     -40.853 -55.030  15.981  1.00  0.00     0.039 A 
HETATM   25  C   UNL     1     -41.130 -56.083  16.868  1.00  0.00     0.017 A 
HETATM   26  C   UNL     1     -40.095 -56.861  17.396  1.00  0.00     0.001 A 
HETATM   27  C   UNL     1     -38.775 -56.595  17.040  1.00  0.00     0.000 A 
HETATM   28  C   UNL     1     -38.489 -55.556  16.152  1.00  0.00     0.001 A 
HETATM   29  C   UNL     1     -39.522 -54.775  15.624  1.00  0.00     0.017 A 
ENDBRANCH  22  24
ENDBRANCH  21  22
ENDBRANCH  20  21
ENDBRANCH   5  20
TORSDOF 7
ENDMDL
