MODEL 1
REMARK VINA RESULT:      -5.9      0.000      0.000
REMARK  4 active torsions:
REMARK  status: ('A' for Active; 'I' for Inactive)
REMARK    1  A    between atoms: C_2  and  C_3 
REMARK    2  A    between atoms: C_3  and  N_7 
REMARK       I    between atoms: N_7  and  C_8 
REMARK       I    between atoms: C_8  and  N_10 
REMARK    3  A    between atoms: N_10  and  C_11 
REMARK    4  A    between atoms: C_17  and  N_18 
ROOT
HETATM    1  N   UNL     1     -41.691 -48.349   9.866  1.00  0.00    -0.334 N 
HETATM    2  C   UNL     1     -41.315 -48.960  11.041  1.00  0.00     0.321 C 
HETATM    3  O   UNL     1     -41.598 -48.542  12.155  1.00  0.00    -0.247 OA
HETATM    4  N   UNL     1     -40.558 -50.089  10.800  1.00  0.00    -0.306 N 
HETATM    5  H   UNL     1     -41.653 -48.938   9.044  1.00  0.00     0.165 HD
HETATM    6  H   UNL     1     -39.893 -49.940  10.044  1.00  0.00     0.170 HD
ENDROOT
BRANCH   4   7
HETATM    7  C   UNL     1     -40.116 -50.926  11.860  1.00  0.00     0.072 A 
HETATM    8  C   UNL     1     -40.917 -52.005  12.255  1.00  0.00     0.049 A 
HETATM    9  C   UNL     1     -40.463 -52.848  13.259  1.00  0.00     0.090 A 
HETATM   10  N   UNL     1     -39.280 -52.687  13.888  1.00  0.00    -0.373 N 
HETATM   11  C   UNL     1     -38.519 -51.632  13.508  1.00  0.00     0.126 A 
ATOM     12  HN  UNL     1     -38.972 -53.331  14.616  1.00  0.00     0.164 HD
HETATM   13  C   UNL     1     -38.887 -50.741  12.507  1.00  0.00     0.144 A 
BRANCH  13  14
HETATM   14  N   UNL     1     -38.011 -49.614  12.229  1.00  0.00    -0.112 N 
HETATM   15  O   UNL     1     -37.419 -49.589  11.135  1.00  0.00    -0.532 OA
HETATM   16  O   UNL     1     -37.893 -48.740  13.096  1.00  0.00    -0.532 OA
ENDBRANCH  13  14
ENDBRANCH   4   7
BRANCH   1  17
HETATM   17  C   UNL     1     -42.512 -47.102   9.819  1.00  0.00     0.034 C 
HETATM   18  C   UNL     1     -43.296 -46.938   8.484  1.00  0.00     0.031 C 
HETATM   19  C   UNL     1     -44.514 -47.598   9.152  1.00  0.00     0.005 C 
HETATM   20  C   UNL     1     -43.895 -47.267  10.520  1.00  0.00     0.031 C 
BRANCH  17  21
HETATM   21  C   UNL     1     -41.722 -45.861  10.248  1.00  0.00     0.026 C 
HETATM   22  C   UNL     1     -42.391 -45.106  11.387  1.00  0.00     0.007 C 
ENDBRANCH  17  21
ENDBRANCH   1  17
TORSDOF 4
ENDMDL
MODEL 2
REMARK VINA RESULT:      -5.8      1.527      2.441
REMARK  4 active torsions:
REMARK  status: ('A' for Active; 'I' for Inactive)
REMARK    1  A    between atoms: C_2  and  C_3 
REMARK    2  A    between atoms: C_3  and  N_7 
REMARK       I    between atoms: N_7  and  C_8 
REMARK       I    between atoms: C_8  and  N_10 
REMARK    3  A    between atoms: N_10  and  C_11 
REMARK    4  A    between atoms: C_17  and  N_18 
ROOT
HETATM    1  N   UNL     1     -41.812 -48.315   9.786  1.00  0.00    -0.334 N 
HETATM    2  C   UNL     1     -41.091 -48.685  10.900  1.00  0.00     0.321 C 
HETATM    3  O   UNL     1     -41.057 -48.044  11.941  1.00  0.00    -0.247 OA
HETATM    4  N   UNL     1     -40.394 -49.856  10.680  1.00  0.00    -0.306 N 
HETATM    5  H   UNL     1     -41.991 -49.059   9.124  1.00  0.00     0.165 HD
HETATM    6  H   UNL     1     -39.981 -49.878   9.750  1.00  0.00     0.170 HD
ENDROOT
BRANCH   4   7
HETATM    7  C   UNL     1     -39.636 -50.472  11.711  1.00  0.00     0.072 A 
HETATM    8  C   UNL     1     -38.256 -50.238  11.775  1.00  0.00     0.049 A 
HETATM    9  C   UNL     1     -37.525 -50.802  12.809  1.00  0.00     0.090 A 
HETATM   10  N   UNL     1     -38.070 -51.576  13.771  1.00  0.00    -0.373 N 
HETATM   11  C   UNL     1     -39.403 -51.808  13.693  1.00  0.00     0.126 A 
ATOM     12  HN  UNL     1     -37.504 -51.969  14.523  1.00  0.00     0.164 HD
HETATM   13  C   UNL     1     -40.217 -51.278  12.699  1.00  0.00     0.144 A 
BRANCH  13  14
HETATM   14  N   UNL     1     -41.624 -51.647  12.689  1.00  0.00    -0.112 N 
HETATM   15  O   UNL     1     -42.351 -51.206  13.598  1.00  0.00    -0.532 OA
HETATM   16  O   UNL     1     -42.026 -52.386  11.782  1.00  0.00    -0.532 OA
ENDBRANCH  13  14
ENDBRANCH   4   7
BRANCH   1  17
HETATM   17  C   UNL     1     -42.657 -47.085   9.731  1.00  0.00     0.034 C 
HETATM   18  C   UNL     1     -43.522 -46.996   8.438  1.00  0.00     0.031 C 
HETATM   19  C   UNL     1     -44.686 -47.644   9.206  1.00  0.00     0.005 C 
HETATM   20  C   UNL     1     -43.994 -47.239  10.519  1.00  0.00     0.031 C 
BRANCH  17  21
HETATM   21  C   UNL     1     -41.867 -45.813  10.055  1.00  0.00     0.026 C 
HETATM   22  C   UNL     1     -42.543 -44.958  11.117  1.00  0.00     0.007 C 
ENDBRANCH  17  21
ENDBRANCH   1  17
TORSDOF 4
ENDMDL
MODEL 3
REMARK VINA RESULT:      -5.6      3.253      5.409
REMARK  4 active torsions:
REMARK  status: ('A' for Active; 'I' for Inactive)
REMARK    1  A    between atoms: C_2  and  C_3 
REMARK    2  A    between atoms: C_3  and  N_7 
REMARK       I    between atoms: N_7  and  C_8 
REMARK       I    between atoms: C_8  and  N_10 
REMARK    3  A    between atoms: N_10  and  C_11 
REMARK    4  A    between atoms: C_17  and  N_18 
ROOT
HETATM    1  N   UNL     1     -43.473 -52.455  12.486  1.00  0.00    -0.334 N 
HETATM    2  C   UNL     1     -42.881 -51.213  12.566  1.00  0.00     0.321 C 
HETATM    3  O   UNL     1     -43.248 -50.325  13.322  1.00  0.00    -0.247 OA
HETATM    4  N   UNL     1     -41.841 -51.094  11.667  1.00  0.00    -0.306 N 
HETATM    5  H   UNL     1     -42.906 -53.173  12.054  1.00  0.00     0.165 HD
HETATM    6  H   UNL     1     -42.072 -51.514  10.768  1.00  0.00     0.170 HD
ENDROOT
BRANCH   4   7
HETATM    7  C   UNL     1     -41.035 -49.925  11.617  1.00  0.00     0.072 A 
HETATM    8  C   UNL     1     -41.558 -48.759  11.044  1.00  0.00     0.049 A 
HETATM    9  C   UNL     1     -40.786 -47.607  11.039  1.00  0.00     0.090 A 
HETATM   10  N   UNL     1     -39.543 -47.541  11.558  1.00  0.00    -0.373 N 
HETATM   11  C   UNL     1     -39.039 -48.678  12.097  1.00  0.00     0.126 A 
ATOM     12  HN  UNL     1     -39.005 -46.674  11.545  1.00  0.00     0.164 HD
HETATM   13  C   UNL     1     -39.742 -49.876  12.156  1.00  0.00     0.144 A 
BRANCH  13  14
HETATM   14  N   UNL     1     -39.072 -51.043  12.708  1.00  0.00    -0.112 N 
HETATM   15  O   UNL     1     -39.637 -51.661  13.629  1.00  0.00    -0.532 OA
HETATM   16  O   UNL     1     -37.971 -51.358  12.241  1.00  0.00    -0.532 OA
ENDBRANCH  13  14
ENDBRANCH   4   7
BRANCH   1  17
HETATM   17  C   UNL     1     -44.629 -52.866  13.336  1.00  0.00     0.034 C 
HETATM   18  C   UNL     1     -44.848 -54.408  13.363  1.00  0.00     0.031 C 
HETATM   19  C   UNL     1     -44.005 -54.477  14.647  1.00  0.00     0.005 C 
HETATM   20  C   UNL     1     -44.256 -52.973  14.846  1.00  0.00     0.031 C 
BRANCH  17  21
HETATM   21  C   UNL     1     -45.893 -52.050  13.046  1.00  0.00     0.026 C 
HETATM   22  C   UNL     1     -46.511 -51.460  14.305  1.00  0.00     0.007 C 
ENDBRANCH  17  21
ENDBRANCH   1  17
TORSDOF 4
ENDMDL
MODEL 4
REMARK VINA RESULT:      -5.5      3.270      5.556
REMARK  4 active torsions:
REMARK  status: ('A' for Active; 'I' for Inactive)
REMARK    1  A    between atoms: C_2  and  C_3 
REMARK    2  A    between atoms: C_3  and  N_7 
REMARK       I    between atoms: N_7  and  C_8 
REMARK       I    between atoms: C_8  and  N_10 
REMARK    3  A    between atoms: N_10  and  C_11 
REMARK    4  A    between atoms: C_17  and  N_18 
ROOT
HETATM    1  N   UNL     1     -43.816 -52.514  12.468  1.00  0.00    -0.334 N 
HETATM    2  C   UNL     1     -42.866 -51.578  12.814  1.00  0.00     0.321 C 
HETATM    3  O   UNL     1     -42.846 -50.982  13.882  1.00  0.00    -0.247 OA
HETATM    4  N   UNL     1     -41.958 -51.384  11.793  1.00  0.00    -0.306 N 
HETATM    5  H   UNL     1     -43.555 -53.130  11.709  1.00  0.00     0.165 HD
HETATM    6  H   UNL     1     -42.415 -51.363  10.884  1.00  0.00     0.170 HD
ENDROOT
BRANCH   4   7
HETATM    7  C   UNL     1     -40.844 -50.516  11.948  1.00  0.00     0.072 A 
HETATM    8  C   UNL     1     -39.657 -51.022  12.495  1.00  0.00     0.049 A 
HETATM    9  C   UNL     1     -38.557 -50.185  12.603  1.00  0.00     0.090 A 
HETATM   10  N   UNL     1     -38.560 -48.895  12.209  1.00  0.00    -0.373 N 
HETATM   11  C   UNL     1     -39.717 -48.411  11.695  1.00  0.00     0.126 A 
ATOM     12  HN  UNL     1     -37.729 -48.309  12.295  1.00  0.00     0.164 HD
HETATM   13  C   UNL     1     -40.867 -49.176  11.540  1.00  0.00     0.144 A 
BRANCH  13  14
HETATM   14  N   UNL     1     -42.064 -48.528  11.028  1.00  0.00    -0.112 N 
HETATM   15  O   UNL     1     -42.058 -48.137   9.847  1.00  0.00    -0.532 OA
HETATM   16  O   UNL     1     -43.025 -48.390  11.795  1.00  0.00    -0.532 OA
ENDBRANCH  13  14
ENDBRANCH   4   7
BRANCH   1  17
HETATM   17  C   UNL     1     -44.930 -52.923  13.375  1.00  0.00     0.034 C 
HETATM   18  C   UNL     1     -45.275 -54.438  13.272  1.00  0.00     0.031 C 
HETATM   19  C   UNL     1     -44.339 -54.704  14.462  1.00  0.00     0.005 C 
HETATM   20  C   UNL     1     -44.445 -53.215  14.829  1.00  0.00     0.031 C 
BRANCH  17  21
HETATM   21  C   UNL     1     -46.140 -51.988  13.281  1.00  0.00     0.026 C 
HETATM   22  C   UNL     1     -46.583 -51.465  14.639  1.00  0.00     0.007 C 
ENDBRANCH  17  21
ENDBRANCH   1  17
TORSDOF 4
ENDMDL
MODEL 5
REMARK VINA RESULT:      -5.5      2.099      6.258
REMARK  4 active torsions:
REMARK  status: ('A' for Active; 'I' for Inactive)
REMARK    1  A    between atoms: C_2  and  C_3 
REMARK    2  A    between atoms: C_3  and  N_7 
REMARK       I    between atoms: N_7  and  C_8 
REMARK       I    between atoms: C_8  and  N_10 
REMARK    3  A    between atoms: N_10  and  C_11 
REMARK    4  A    between atoms: C_17  and  N_18 
ROOT
HETATM    1  N   UNL     1     -40.211 -49.491  10.920  1.00  0.00    -0.334 N 
HETATM    2  C   UNL     1     -41.372 -48.750  10.935  1.00  0.00     0.321 C 
HETATM    3  O   UNL     1     -42.146 -48.705  11.881  1.00  0.00    -0.247 OA
HETATM    4  N   UNL     1     -41.561 -48.088   9.739  1.00  0.00    -0.306 N 
HETATM    5  H   UNL     1     -39.534 -49.213  10.221  1.00  0.00     0.165 HD
HETATM    6  H   UNL     1     -41.317 -48.674   8.943  1.00  0.00     0.170 HD
ENDROOT
BRANCH   4   7
HETATM    7  C   UNL     1     -42.656 -47.204   9.546  1.00  0.00     0.072 A 
HETATM    8  C   UNL     1     -43.824 -47.687   8.942  1.00  0.00     0.049 A 
HETATM    9  C   UNL     1     -44.908 -46.833   8.797  1.00  0.00     0.090 A 
HETATM   10  N   UNL     1     -44.905 -45.548   9.206  1.00  0.00    -0.373 N 
HETATM   11  C   UNL     1     -43.765 -45.086   9.776  1.00  0.00     0.126 A 
ATOM     12  HN  UNL     1     -45.723 -44.950   9.092  1.00  0.00     0.164 HD
HETATM   13  C   UNL     1     -42.633 -45.869   9.972  1.00  0.00     0.144 A 
BRANCH  13  14
HETATM   14  N   UNL     1     -41.451 -45.243  10.543  1.00  0.00    -0.112 N 
HETATM   15  O   UNL     1     -40.448 -45.116   9.817  1.00  0.00    -0.532 OA
HETATM   16  O   UNL     1     -41.498 -44.874  11.722  1.00  0.00    -0.532 OA
ENDBRANCH  13  14
ENDBRANCH   4   7
BRANCH   1  17
HETATM   17  C   UNL     1     -39.752 -50.317  12.077  1.00  0.00     0.034 C 
HETATM   18  C   UNL     1     -38.216 -50.574  12.071  1.00  0.00     0.031 C 
HETATM   19  C   UNL     1     -38.038 -49.358  12.995  1.00  0.00     0.005 C 
HETATM   20  C   UNL     1     -39.526 -49.470  13.367  1.00  0.00     0.031 C 
BRANCH  17  21
HETATM   21  C   UNL     1     -40.606 -51.573  12.278  1.00  0.00     0.026 C 
HETATM   22  C   UNL     1     -40.276 -52.304  13.571  1.00  0.00     0.007 C 
ENDBRANCH  17  21
ENDBRANCH   1  17
TORSDOF 4
ENDMDL
MODEL 6
REMARK VINA RESULT:      -5.4      2.373      6.307
REMARK  4 active torsions:
REMARK  status: ('A' for Active; 'I' for Inactive)
REMARK    1  A    between atoms: C_2  and  C_3 
REMARK    2  A    between atoms: C_3  and  N_7 
REMARK       I    between atoms: N_7  and  C_8 
REMARK       I    between atoms: C_8  and  N_10 
REMARK    3  A    between atoms: N_10  and  C_11 
REMARK    4  A    between atoms: C_17  and  N_18 
ROOT
HETATM    1  N   UNL     1     -41.483 -51.235  11.593  1.00  0.00    -0.334 N 
HETATM    2  C   UNL     1     -41.624 -49.882  11.812  1.00  0.00     0.321 C 
HETATM    3  O   UNL     1     -42.101 -49.397  12.828  1.00  0.00    -0.247 OA
HETATM    4  N   UNL     1     -41.180 -49.149  10.730  1.00  0.00    -0.306 N 
HETATM    5  H   UNL     1     -40.821 -51.486  10.869  1.00  0.00     0.165 HD
HETATM    6  H   UNL     1     -41.461 -49.575   9.849  1.00  0.00     0.170 HD
ENDROOT
BRANCH   4   7
HETATM    7  C   UNL     1     -41.160 -47.729  10.756  1.00  0.00     0.072 A 
HETATM    8  C   UNL     1     -40.047 -47.073  11.298  1.00  0.00     0.049 A 
HETATM    9  C   UNL     1     -40.009 -45.687  11.280  1.00  0.00     0.090 A 
HETATM   10  N   UNL     1     -40.994 -44.921  10.767  1.00  0.00    -0.373 N 
HETATM   11  C   UNL     1     -42.073 -45.564  10.258  1.00  0.00     0.126 A 
ATOM     12  HN  UNL     1     -40.930 -43.903  10.762  1.00  0.00     0.164 HD
HETATM   13  C   UNL     1     -42.195 -46.949  10.223  1.00  0.00     0.144 A 
BRANCH  13  14
HETATM   14  N   UNL     1     -43.426 -47.520   9.703  1.00  0.00    -0.112 N 
HETATM   15  O   UNL     1     -43.545 -47.631   8.469  1.00  0.00    -0.532 OA
HETATM   16  O   UNL     1     -44.298 -47.862  10.512  1.00  0.00    -0.532 OA
ENDBRANCH  13  14
ENDBRANCH   4   7
BRANCH   1  17
HETATM   17  C   UNL     1     -41.886 -52.272  12.589  1.00  0.00     0.034 C 
HETATM   18  C   UNL     1     -41.013 -53.560  12.515  1.00  0.00     0.031 C 
HETATM   19  C   UNL     1     -40.118 -52.982  13.624  1.00  0.00     0.005 C 
HETATM   20  C   UNL     1     -41.262 -52.026  13.997  1.00  0.00     0.031 C 
BRANCH  17  21
HETATM   21  C   UNL     1     -43.396 -52.527  12.595  1.00  0.00     0.026 C 
HETATM   22  C   UNL     1     -43.747 -53.959  12.972  1.00  0.00     0.007 C 
ENDBRANCH  17  21
ENDBRANCH   1  17
TORSDOF 4
ENDMDL
MODEL 7
REMARK VINA RESULT:      -5.4      2.240      6.585
REMARK  4 active torsions:
REMARK  status: ('A' for Active; 'I' for Inactive)
REMARK    1  A    between atoms: C_2  and  C_3 
REMARK    2  A    between atoms: C_3  and  N_7 
REMARK       I    between atoms: N_7  and  C_8 
REMARK       I    between atoms: C_8  and  N_10 
REMARK    3  A    between atoms: N_10  and  C_11 
REMARK    4  A    between atoms: C_17  and  N_18 
ROOT
HETATM    1  N   UNL     1     -41.001 -50.106  11.079  1.00  0.00    -0.334 N 
HETATM    2  C   UNL     1     -41.749 -48.958  11.222  1.00  0.00     0.321 C 
HETATM    3  O   UNL     1     -42.294 -48.619  12.263  1.00  0.00    -0.247 OA
HETATM    4  N   UNL     1     -41.824 -48.255  10.037  1.00  0.00    -0.306 N 
HETATM    5  H   UNL     1     -40.377 -50.114  10.281  1.00  0.00     0.165 HD
HETATM    6  H   UNL     1     -41.954 -48.877   9.240  1.00  0.00     0.170 HD
ENDROOT
BRANCH   4   7
HETATM    7  C   UNL     1     -42.483 -47.000   9.960  1.00  0.00     0.072 A 
HETATM    8  C   UNL     1     -42.073 -45.961  10.806  1.00  0.00     0.049 A 
HETATM    9  C   UNL     1     -42.688 -44.723  10.696  1.00  0.00     0.090 A 
HETATM   10  N   UNL     1     -43.672 -44.454   9.814  1.00  0.00    -0.373 N 
HETATM   11  C   UNL     1     -44.072 -45.469   9.010  1.00  0.00     0.126 A 
ATOM     12  HN  UNL     1     -44.097 -43.529   9.754  1.00  0.00     0.164 HD
HETATM   13  C   UNL     1     -43.509 -46.740   9.041  1.00  0.00     0.144 A 
BRANCH  13  14
HETATM   14  N   UNL     1     -44.063 -47.762   8.167  1.00  0.00    -0.112 N 
HETATM   15  O   UNL     1     -43.325 -48.246   7.290  1.00  0.00    -0.532 OA
HETATM   16  O   UNL     1     -45.243 -48.095   8.335  1.00  0.00    -0.532 OA
ENDBRANCH  13  14
ENDBRANCH   4   7
BRANCH   1  17
HETATM   17  C   UNL     1     -40.754 -51.066  12.195  1.00  0.00     0.034 C 
HETATM   18  C   UNL     1     -41.994 -51.263  13.116  1.00  0.00     0.031 C 
HETATM   19  C   UNL     1     -42.387 -52.491  12.277  1.00  0.00     0.005 C 
HETATM   20  C   UNL     1     -40.940 -52.553  11.760  1.00  0.00     0.031 C 
BRANCH  17  21
HETATM   21  C   UNL     1     -39.447 -50.778  12.941  1.00  0.00     0.026 C 
HETATM   22  C   UNL     1     -39.017 -51.931  13.836  1.00  0.00     0.007 C 
ENDBRANCH  17  21
ENDBRANCH   1  17
TORSDOF 4
ENDMDL
MODEL 8
REMARK VINA RESULT:      -5.2      2.977      3.748
REMARK  4 active torsions:
REMARK  status: ('A' for Active; 'I' for Inactive)
REMARK    1  A    between atoms: C_2  and  C_3 
REMARK    2  A    between atoms: C_3  and  N_7 
REMARK       I    between atoms: N_7  and  C_8 
REMARK       I    between atoms: C_8  and  N_10 
REMARK    3  A    between atoms: N_10  and  C_11 
REMARK    4  A    between atoms: C_17  and  N_18 
ROOT
HETATM    1  N   UNL     1     -41.855 -49.833  11.400  1.00  0.00    -0.334 N 
HETATM    2  C   UNL     1     -42.282 -50.659  12.416  1.00  0.00     0.321 C 
HETATM    3  O   UNL     1     -42.533 -50.279  13.551  1.00  0.00    -0.247 OA
HETATM    4  N   UNL     1     -42.368 -51.971  11.995  1.00  0.00    -0.306 N 
HETATM    5  H   UNL     1     -41.971 -50.206  10.466  1.00  0.00     0.165 HD
HETATM    6  H   UNL     1     -41.581 -52.225  11.400  1.00  0.00     0.170 HD
ENDROOT
BRANCH   4   7
HETATM    7  C   UNL     1     -42.856 -52.993  12.851  1.00  0.00     0.072 A 
HETATM    8  C   UNL     1     -44.203 -53.368  12.765  1.00  0.00     0.049 A 
HETATM    9  C   UNL     1     -44.667 -54.399  13.569  1.00  0.00     0.090 A 
HETATM   10  N   UNL     1     -43.888 -55.070  14.443  1.00  0.00    -0.373 N 
HETATM   11  C   UNL     1     -42.590 -54.690  14.529  1.00  0.00     0.126 A 
ATOM     12  HN  UNL     1     -44.260 -55.829  15.014  1.00  0.00     0.164 HD
HETATM   13  C   UNL     1     -42.035 -53.676  13.758  1.00  0.00     0.144 A 
BRANCH  13  14
HETATM   14  N   UNL     1     -40.642 -53.322  13.982  1.00  0.00    -0.112 N 
HETATM   15  O   UNL     1     -40.288 -53.049  15.143  1.00  0.00    -0.532 OA
HETATM   16  O   UNL     1     -39.881 -53.301  13.007  1.00  0.00    -0.532 OA
ENDBRANCH  13  14
ENDBRANCH   4   7
BRANCH   1  17
HETATM   17  C   UNL     1     -41.664 -48.361  11.567  1.00  0.00     0.034 C 
HETATM   18  C   UNL     1     -41.881 -47.564  10.247  1.00  0.00     0.031 C 
HETATM   19  C   UNL     1     -43.342 -47.324  10.666  1.00  0.00     0.005 C 
HETATM   20  C   UNL     1     -42.940 -47.649  12.114  1.00  0.00     0.031 C 
BRANCH  17  21
HETATM   21  C   UNL     1     -40.371 -48.016  12.312  1.00  0.00     0.026 C 
HETATM   22  C   UNL     1     -39.940 -46.572  12.102  1.00  0.00     0.007 C 
ENDBRANCH  17  21
ENDBRANCH   1  17
TORSDOF 4
ENDMDL
MODEL 9
REMARK VINA RESULT:      -5.2      3.717      5.588
REMARK  4 active torsions:
REMARK  status: ('A' for Active; 'I' for Inactive)
REMARK    1  A    between atoms: C_2  and  C_3 
REMARK    2  A    between atoms: C_3  and  N_7 
REMARK       I    between atoms: N_7  and  C_8 
REMARK       I    between atoms: C_8  and  N_10 
REMARK    3  A    between atoms: N_10  and  C_11 
REMARK    4  A    between atoms: C_17  and  N_18 
ROOT
HETATM    1  N   UNL     1     -43.755 -51.825  14.195  1.00  0.00    -0.334 N 
HETATM    2  C   UNL     1     -42.756 -51.575  13.281  1.00  0.00     0.321 C 
HETATM    3  O   UNL     1     -42.715 -52.057  12.158  1.00  0.00    -0.247 OA
HETATM    4  N   UNL     1     -41.796 -50.732  13.804  1.00  0.00    -0.306 N 
HETATM    5  H   UNL     1     -43.827 -51.152  14.947  1.00  0.00     0.165 HD
HETATM    6  H   UNL     1     -41.583 -50.962  14.772  1.00  0.00     0.170 HD
ENDROOT
BRANCH   4   7
HETATM    7  C   UNL     1     -40.704 -50.274  13.019  1.00  0.00     0.072 A 
HETATM    8  C   UNL     1     -40.843 -49.090  12.283  1.00  0.00     0.049 A 
HETATM    9  C   UNL     1     -39.760 -48.622  11.554  1.00  0.00     0.090 A 
HETATM   10  N   UNL     1     -38.565 -49.246  11.508  1.00  0.00    -0.373 N 
HETATM   11  C   UNL     1     -38.446 -50.398  12.212  1.00  0.00     0.126 A 
ATOM     12  HN  UNL     1     -37.786 -48.869  10.968  1.00  0.00     0.164 HD
HETATM   13  C   UNL     1     -39.471 -50.939  12.978  1.00  0.00     0.144 A 
BRANCH  13  14
HETATM   14  N   UNL     1     -39.240 -52.212  13.643  1.00  0.00    -0.112 N 
HETATM   15  O   UNL     1     -39.686 -53.242  13.107  1.00  0.00    -0.532 OA
HETATM   16  O   UNL     1     -38.616 -52.206  14.712  1.00  0.00    -0.532 OA
ENDBRANCH  13  14
ENDBRANCH   4   7
BRANCH   1  17
HETATM   17  C   UNL     1     -44.924 -52.709  13.908  1.00  0.00     0.034 C 
HETATM   18  C   UNL     1     -46.057 -52.586  14.969  1.00  0.00     0.031 C 
HETATM   19  C   UNL     1     -46.747 -51.546  14.070  1.00  0.00     0.005 C 
HETATM   20  C   UNL     1     -45.919 -52.076  12.888  1.00  0.00     0.031 C 
BRANCH  17  21
HETATM   21  C   UNL     1     -44.509 -54.148  13.586  1.00  0.00     0.026 C 
HETATM   22  C   UNL     1     -45.619 -55.153  13.856  1.00  0.00     0.007 C 
ENDBRANCH  17  21
ENDBRANCH   1  17
TORSDOF 4
ENDMDL
