MODEL 1
REMARK VINA RESULT:      -6.3      0.000      0.000
REMARK  6 active torsions:
REMARK  status: ('A' for Active; 'I' for Inactive)
REMARK    1  A    between atoms: C_2  and  C_3 
REMARK    2  A    between atoms: C_2  and  C_10 
REMARK    3  A    between atoms: C_3  and  C_4 
REMARK       I    between atoms: C_10  and  N_12 
REMARK    4  A    between atoms: N_12  and  C_13 
REMARK    5  A    between atoms: C_13  and  C_14 
REMARK    6  A    between atoms: C_14  and  C_15 
ROOT
HETATM    1  C   UNL     1     -41.370 -51.814  12.118  1.00  0.00     0.221 C 
HETATM    2  O   UNL     1     -40.164 -52.048  12.128  1.00  0.00    -0.273 OA
HETATM    3  N   UNL     1     -41.868 -50.609  11.675  1.00  0.00    -0.360 N 
HETATM    4  H   UNL     1     -42.862 -50.477  11.559  1.00  0.00     0.162 HD
ENDROOT
BRANCH   1   5
HETATM    5  C   UNL     1     -42.414 -52.871  12.492  1.00  0.00     0.074 C 
HETATM    6  C   UNL     1     -41.749 -54.001  13.284  1.00  0.00     0.020 C 
BRANCH   5   7
HETATM    7  C   UNL     1     -43.705 -52.341  13.153  1.00  0.00     0.018 C 
BRANCH   7   8
HETATM    8  C   UNL     1     -45.069 -52.919  12.698  1.00  0.00    -0.014 C 
HETATM    9  C   UNL     1     -46.239 -51.922  12.698  1.00  0.00     0.005 C 
HETATM   10  C   UNL     1     -46.605 -51.447  14.100  1.00  0.00     0.000 C 
HETATM   11  C   UNL     1     -46.976 -52.629  14.989  1.00  0.00     0.000 C 
HETATM   12  C   UNL     1     -45.888 -53.701  15.004  1.00  0.00     0.000 C 
HETATM   13  C   UNL     1     -45.462 -54.116  13.595  1.00  0.00     0.005 C 
ENDBRANCH   7   8
ENDBRANCH   5   7
ENDBRANCH   1   5
BRANCH   3  14
HETATM   14  C   UNL     1     -40.986 -49.526  11.281  1.00  0.00     0.128 C 
BRANCH  14  15
HETATM   15  C   UNL     1     -41.631 -48.157  11.493  1.00  0.00     0.077 C 
BRANCH  15  16
HETATM   16  C   UNL     1     -42.667 -47.872  10.457  1.00  0.00     0.017 A 
HETATM   17  C   UNL     1     -43.977 -47.494  10.692  1.00  0.00     0.076 A 
HETATM   18  S   UNL     1     -44.807 -47.291   9.208  1.00  0.00    -0.095 SA
HETATM   19  C   UNL     1     -43.373 -47.719   8.373  1.00  0.00     0.138 A 
HETATM   20  N   UNL     1     -42.328 -48.004   9.119  1.00  0.00    -0.363 N 
ATOM     21  HN  UNL     1     -41.411 -48.279   8.768  1.00  0.00     0.165 HD
ENDBRANCH  15  16
ENDBRANCH  14  15
ENDBRANCH   3  14
TORSDOF 6
ENDMDL
MODEL 2
REMARK VINA RESULT:      -6.0      1.688      1.897
REMARK  6 active torsions:
REMARK  status: ('A' for Active; 'I' for Inactive)
REMARK    1  A    between atoms: C_2  and  C_3 
REMARK    2  A    between atoms: C_2  and  C_10 
REMARK    3  A    between atoms: C_3  and  C_4 
REMARK       I    between atoms: C_10  and  N_12 
REMARK    4  A    between atoms: N_12  and  C_13 
REMARK    5  A    between atoms: C_13  and  C_14 
REMARK    6  A    between atoms: C_14  and  C_15 
ROOT
HETATM    1  C   UNL     1     -41.358 -51.629  12.145  1.00  0.00     0.221 C 
HETATM    2  O   UNL     1     -40.141 -51.788  12.190  1.00  0.00    -0.273 OA
HETATM    3  N   UNL     1     -41.918 -50.449  11.710  1.00  0.00    -0.360 N 
HETATM    4  H   UNL     1     -42.914 -50.377  11.565  1.00  0.00     0.162 HD
ENDROOT
BRANCH   1   5
HETATM    5  C   UNL     1     -42.344 -52.758  12.464  1.00  0.00     0.074 C 
HETATM    6  C   UNL     1     -41.608 -53.913  13.150  1.00  0.00     0.020 C 
BRANCH   5   7
HETATM    7  C   UNL     1     -43.638 -52.338  13.195  1.00  0.00     0.018 C 
BRANCH   7   8
HETATM    8  C   UNL     1     -44.996 -52.886  12.686  1.00  0.00    -0.014 C 
HETATM    9  C   UNL     1     -46.160 -51.883  12.710  1.00  0.00     0.005 C 
HETATM   10  C   UNL     1     -46.551 -51.473  14.126  1.00  0.00     0.000 C 
HETATM   11  C   UNL     1     -46.946 -52.693  14.951  1.00  0.00     0.000 C 
HETATM   12  C   UNL     1     -45.865 -53.772  14.936  1.00  0.00     0.000 C 
HETATM   13  C   UNL     1     -45.412 -54.122  13.518  1.00  0.00     0.005 C 
ENDBRANCH   7   8
ENDBRANCH   5   7
ENDBRANCH   1   5
BRANCH   3  14
HETATM   14  C   UNL     1     -41.095 -49.304  11.367  1.00  0.00     0.128 C 
BRANCH  14  15
HETATM   15  C   UNL     1     -41.839 -48.312  10.472  1.00  0.00     0.077 C 
BRANCH  15  16
HETATM   16  C   UNL     1     -41.384 -46.911  10.712  1.00  0.00     0.017 A 
HETATM   17  C   UNL     1     -42.182 -45.847  11.096  1.00  0.00     0.076 A 
HETATM   18  S   UNL     1     -41.237 -44.424  11.237  1.00  0.00    -0.095 SA
HETATM   19  C   UNL     1     -39.852 -45.326  10.783  1.00  0.00     0.138 A 
HETATM   20  N   UNL     1     -40.045 -46.601  10.530  1.00  0.00    -0.363 N 
ATOM     21  HN  UNL     1     -39.322 -47.261  10.244  1.00  0.00     0.165 HD
ENDBRANCH  15  16
ENDBRANCH  14  15
ENDBRANCH   3  14
TORSDOF 6
ENDMDL
MODEL 3
REMARK VINA RESULT:      -5.5      2.937      3.510
REMARK  6 active torsions:
REMARK  status: ('A' for Active; 'I' for Inactive)
REMARK    1  A    between atoms: C_2  and  C_3 
REMARK    2  A    between atoms: C_2  and  C_10 
REMARK    3  A    between atoms: C_3  and  C_4 
REMARK       I    between atoms: C_10  and  N_12 
REMARK    4  A    between atoms: N_12  and  C_13 
REMARK    5  A    between atoms: C_13  and  C_14 
REMARK    6  A    between atoms: C_14  and  C_15 
ROOT
HETATM    1  C   UNL     1     -41.852 -51.689  12.315  1.00  0.00     0.221 C 
HETATM    2  O   UNL     1     -42.423 -50.805  12.949  1.00  0.00    -0.273 OA
HETATM    3  N   UNL     1     -40.834 -51.404  11.434  1.00  0.00    -0.360 N 
HETATM    4  H   UNL     1     -40.295 -52.148  11.014  1.00  0.00     0.162 HD
ENDROOT
BRANCH   1   5
HETATM    5  C   UNL     1     -42.150 -53.176  12.533  1.00  0.00     0.074 C 
HETATM    6  C   UNL     1     -40.861 -53.916  12.903  1.00  0.00     0.020 C 
BRANCH   5   7
HETATM    7  C   UNL     1     -43.330 -53.497  13.477  1.00  0.00     0.018 C 
BRANCH   7   8
HETATM    8  C   UNL     1     -44.706 -53.851  12.859  1.00  0.00    -0.014 C 
HETATM    9  C   UNL     1     -45.615 -52.653  12.544  1.00  0.00     0.005 C 
HETATM   10  C   UNL     1     -46.068 -51.915  13.800  1.00  0.00     0.000 C 
HETATM   11  C   UNL     1     -46.817 -52.856  14.737  1.00  0.00     0.000 C 
HETATM   12  C   UNL     1     -46.007 -54.110  15.061  1.00  0.00     0.000 C 
HETATM   13  C   UNL     1     -45.480 -54.802  13.803  1.00  0.00     0.005 C 
ENDBRANCH   7   8
ENDBRANCH   5   7
ENDBRANCH   1   5
BRANCH   3  14
HETATM   14  C   UNL     1     -40.445 -50.037  11.145  1.00  0.00     0.128 C 
BRANCH  14  15
HETATM   15  C   UNL     1     -39.054 -49.709  11.687  1.00  0.00     0.077 C 
BRANCH  15  16
HETATM   16  C   UNL     1     -39.131 -48.923  12.953  1.00  0.00     0.017 A 
HETATM   17  C   UNL     1     -38.067 -48.581  13.770  1.00  0.00     0.076 A 
HETATM   18  S   UNL     1     -38.626 -47.690  15.123  1.00  0.00    -0.095 SA
HETATM   19  C   UNL     1     -40.226 -47.826  14.523  1.00  0.00     0.138 A 
HETATM   20  N   UNL     1     -40.370 -48.488  13.397  1.00  0.00    -0.363 N 
ATOM     21  HN  UNL     1     -41.257 -48.656  12.922  1.00  0.00     0.165 HD
ENDBRANCH  15  16
ENDBRANCH  14  15
ENDBRANCH   3  14
TORSDOF 6
ENDMDL
MODEL 4
REMARK VINA RESULT:      -5.5      1.425      1.736
REMARK  6 active torsions:
REMARK  status: ('A' for Active; 'I' for Inactive)
REMARK    1  A    between atoms: C_2  and  C_3 
REMARK    2  A    between atoms: C_2  and  C_10 
REMARK    3  A    between atoms: C_3  and  C_4 
REMARK       I    between atoms: C_10  and  N_12 
REMARK    4  A    between atoms: N_12  and  C_13 
REMARK    5  A    between atoms: C_13  and  C_14 
REMARK    6  A    between atoms: C_14  and  C_15 
ROOT
HETATM    1  C   UNL     1     -42.060 -51.855  13.518  1.00  0.00     0.221 C 
HETATM    2  O   UNL     1     -42.200 -51.355  14.631  1.00  0.00    -0.273 OA
HETATM    3  N   UNL     1     -41.360 -51.214  12.521  1.00  0.00    -0.360 N 
HETATM    4  H   UNL     1     -41.151 -51.688  11.654  1.00  0.00     0.162 HD
ENDROOT
BRANCH   1   5
HETATM    5  C   UNL     1     -42.554 -53.267  13.185  1.00  0.00     0.074 C 
HETATM    6  C   UNL     1     -41.366 -54.231  13.116  1.00  0.00     0.020 C 
BRANCH   5   7
HETATM    7  C   UNL     1     -43.719 -53.796  14.051  1.00  0.00     0.018 C 
BRANCH   7   8
HETATM    8  C   UNL     1     -45.129 -53.909  13.417  1.00  0.00    -0.014 C 
HETATM    9  C   UNL     1     -45.572 -52.700  12.579  1.00  0.00     0.005 C 
HETATM   10  C   UNL     1     -45.757 -51.440  13.419  1.00  0.00     0.000 C 
HETATM   11  C   UNL     1     -46.789 -51.672  14.518  1.00  0.00     0.000 C 
HETATM   12  C   UNL     1     -46.457 -52.895  15.370  1.00  0.00     0.000 C 
HETATM   13  C   UNL     1     -46.188 -54.139  14.521  1.00  0.00     0.005 C 
ENDBRANCH   7   8
ENDBRANCH   5   7
ENDBRANCH   1   5
BRANCH   3  14
HETATM   14  C   UNL     1     -40.830 -49.877  12.709  1.00  0.00     0.128 C 
BRANCH  14  15
HETATM   15  C   UNL     1     -40.311 -49.276  11.403  1.00  0.00     0.077 C 
BRANCH  15  16
HETATM   16  C   UNL     1     -41.212 -48.199  10.900  1.00  0.00     0.017 A 
HETATM   17  C   UNL     1     -40.939 -46.841  10.890  1.00  0.00     0.076 A 
HETATM   18  S   UNL     1     -42.266 -45.978  10.237  1.00  0.00    -0.095 SA
HETATM   19  C   UNL     1     -43.096 -47.462  10.019  1.00  0.00     0.138 A 
HETATM   20  N   UNL     1     -42.457 -48.547  10.401  1.00  0.00    -0.363 N 
ATOM     21  HN  UNL     1     -42.822 -49.497  10.339  1.00  0.00     0.165 HD
ENDBRANCH  15  16
ENDBRANCH  14  15
ENDBRANCH   3  14
TORSDOF 6
ENDMDL
MODEL 5
REMARK VINA RESULT:      -5.4      3.161      3.815
REMARK  6 active torsions:
REMARK  status: ('A' for Active; 'I' for Inactive)
REMARK    1  A    between atoms: C_2  and  C_3 
REMARK    2  A    between atoms: C_2  and  C_10 
REMARK    3  A    between atoms: C_3  and  C_4 
REMARK       I    between atoms: C_10  and  N_12 
REMARK    4  A    between atoms: N_12  and  C_13 
REMARK    5  A    between atoms: C_13  and  C_14 
REMARK    6  A    between atoms: C_14  and  C_15 
ROOT
HETATM    1  C   UNL     1     -42.053 -53.730  13.602  1.00  0.00     0.221 C 
HETATM    2  O   UNL     1     -40.955 -53.712  14.152  1.00  0.00    -0.273 OA
HETATM    3  N   UNL     1     -42.261 -53.124  12.384  1.00  0.00    -0.360 N 
HETATM    4  H   UNL     1     -43.132 -53.251  11.890  1.00  0.00     0.162 HD
ENDROOT
BRANCH   1   5
HETATM    5  C   UNL     1     -43.241 -54.515  14.169  1.00  0.00     0.074 C 
HETATM    6  C   UNL     1     -42.799 -55.310  15.401  1.00  0.00     0.020 C 
BRANCH   5   7
HETATM    7  C   UNL     1     -44.537 -53.705  14.398  1.00  0.00     0.018 C 
BRANCH   7   8
HETATM    8  C   UNL     1     -44.438 -52.308  15.061  1.00  0.00    -0.014 C 
HETATM    9  C   UNL     1     -44.977 -52.222  16.498  1.00  0.00     0.005 C 
HETATM   10  C   UNL     1     -46.484 -52.447  16.573  1.00  0.00     0.000 C 
HETATM   11  C   UNL     1     -47.224 -51.426  15.716  1.00  0.00     0.000 C 
HETATM   12  C   UNL     1     -46.711 -51.402  14.277  1.00  0.00     0.000 C 
HETATM   13  C   UNL     1     -45.190 -51.262  14.205  1.00  0.00     0.005 C 
ENDBRANCH   7   8
ENDBRANCH   5   7
ENDBRANCH   1   5
BRANCH   3  14
HETATM   14  C   UNL     1     -41.215 -52.358  11.732  1.00  0.00     0.128 C 
BRANCH  14  15
HETATM   15  C   UNL     1     -41.337 -50.862  12.019  1.00  0.00     0.077 C 
BRANCH  15  16
HETATM   16  C   UNL     1     -40.000 -50.235  12.235  1.00  0.00     0.017 A 
HETATM   17  C   UNL     1     -39.534 -49.688  13.418  1.00  0.00     0.076 A 
HETATM   18  S   UNL     1     -37.953 -49.068  13.198  1.00  0.00    -0.095 SA
HETATM   19  C   UNL     1     -38.007 -49.571  11.560  1.00  0.00     0.138 A 
HETATM   20  N   UNL     1     -39.117 -50.159  11.169  1.00  0.00    -0.363 N 
ATOM     21  HN  UNL     1     -39.299 -50.506  10.228  1.00  0.00     0.165 HD
ENDBRANCH  15  16
ENDBRANCH  14  15
ENDBRANCH   3  14
TORSDOF 6
ENDMDL
MODEL 6
REMARK VINA RESULT:      -5.3      2.936      4.165
REMARK  6 active torsions:
REMARK  status: ('A' for Active; 'I' for Inactive)
REMARK    1  A    between atoms: C_2  and  C_3 
REMARK    2  A    between atoms: C_2  and  C_10 
REMARK    3  A    between atoms: C_3  and  C_4 
REMARK       I    between atoms: C_10  and  N_12 
REMARK    4  A    between atoms: N_12  and  C_13 
REMARK    5  A    between atoms: C_13  and  C_14 
REMARK    6  A    between atoms: C_14  and  C_15 
ROOT
HETATM    1  C   UNL     1     -43.113 -54.365  13.997  1.00  0.00     0.221 C 
HETATM    2  O   UNL     1     -42.637 -55.130  14.832  1.00  0.00    -0.273 OA
HETATM    3  N   UNL     1     -42.358 -53.869  12.959  1.00  0.00    -0.360 N 
HETATM    4  H   UNL     1     -42.792 -53.341  12.215  1.00  0.00     0.162 HD
ENDROOT
BRANCH   1   5
HETATM    5  C   UNL     1     -44.599 -53.992  13.981  1.00  0.00     0.074 C 
HETATM    6  C   UNL     1     -45.450 -55.250  13.787  1.00  0.00     0.020 C 
BRANCH   5   7
HETATM    7  C   UNL     1     -45.084 -53.101  15.147  1.00  0.00     0.018 C 
BRANCH   7   8
HETATM    8  C   UNL     1     -45.413 -51.614  14.864  1.00  0.00    -0.014 C 
HETATM    9  C   UNL     1     -44.758 -50.602  15.818  1.00  0.00     0.005 C 
HETATM   10  C   UNL     1     -45.278 -50.724  17.247  1.00  0.00     0.000 C 
HETATM   11  C   UNL     1     -46.789 -50.522  17.290  1.00  0.00     0.000 C 
HETATM   12  C   UNL     1     -47.521 -51.452  16.324  1.00  0.00     0.000 C 
HETATM   13  C   UNL     1     -46.943 -51.392  14.909  1.00  0.00     0.005 C 
ENDBRANCH   7   8
ENDBRANCH   5   7
ENDBRANCH   1   5
BRANCH   3  14
HETATM   14  C   UNL     1     -40.940 -54.155  12.851  1.00  0.00     0.128 C 
BRANCH  14  15
HETATM   15  C   UNL     1     -40.087 -53.095  13.547  1.00  0.00     0.077 C 
BRANCH  15  16
HETATM   16  C   UNL     1     -40.414 -51.723  13.060  1.00  0.00     0.017 A 
HETATM   17  C   UNL     1     -40.968 -50.699  13.809  1.00  0.00     0.076 A 
HETATM   18  S   UNL     1     -41.185 -49.307  12.834  1.00  0.00    -0.095 SA
HETATM   19  C   UNL     1     -40.530 -50.164  11.502  1.00  0.00     0.138 A 
HETATM   20  N   UNL     1     -40.169 -51.408  11.732  1.00  0.00    -0.363 N 
ATOM     21  HN  UNL     1     -39.770 -52.042  11.040  1.00  0.00     0.165 HD
ENDBRANCH  15  16
ENDBRANCH  14  15
ENDBRANCH   3  14
TORSDOF 6
ENDMDL
MODEL 7
REMARK VINA RESULT:      -5.1     12.861     14.527
REMARK  6 active torsions:
REMARK  status: ('A' for Active; 'I' for Inactive)
REMARK    1  A    between atoms: C_2  and  C_3 
REMARK    2  A    between atoms: C_2  and  C_10 
REMARK    3  A    between atoms: C_3  and  C_4 
REMARK       I    between atoms: C_10  and  N_12 
REMARK    4  A    between atoms: N_12  and  C_13 
REMARK    5  A    between atoms: C_13  and  C_14 
REMARK    6  A    between atoms: C_14  and  C_15 
ROOT
HETATM    1  C   UNL     1     -48.546 -50.906  -0.689  1.00  0.00     0.221 C 
HETATM    2  O   UNL     1     -47.323 -50.858  -0.578  1.00  0.00    -0.273 OA
HETATM    3  N   UNL     1     -49.335 -49.798  -0.476  1.00  0.00    -0.360 N 
HETATM    4  H   UNL     1     -50.321 -49.822  -0.688  1.00  0.00     0.162 HD
ENDROOT
BRANCH   1   5
HETATM    5  C   UNL     1     -49.276 -52.162  -1.176  1.00  0.00     0.074 C 
HETATM    6  C   UNL     1     -48.325 -53.361  -1.146  1.00  0.00     0.020 C 
BRANCH   5   7
HETATM    7  C   UNL     1     -50.642 -52.448  -0.513  1.00  0.00     0.018 C 
BRANCH   7   8
HETATM    8  C   UNL     1     -51.931 -52.294  -1.360  1.00  0.00    -0.014 C 
HETATM    9  C   UNL     1     -53.206 -52.874  -0.729  1.00  0.00     0.005 C 
HETATM   10  C   UNL     1     -53.155 -54.392  -0.594  1.00  0.00     0.000 C 
HETATM   11  C   UNL     1     -52.948 -55.047  -1.955  1.00  0.00     0.000 C 
HETATM   12  C   UNL     1     -51.727 -54.487  -2.683  1.00  0.00     0.000 C 
HETATM   13  C   UNL     1     -51.737 -52.959  -2.743  1.00  0.00     0.005 C 
ENDBRANCH   7   8
ENDBRANCH   5   7
ENDBRANCH   1   5
BRANCH   3  14
HETATM   14  C   UNL     1     -48.767 -48.542  -0.022  1.00  0.00     0.128 C 
BRANCH  14  15
HETATM   15  C   UNL     1     -48.987 -48.320   1.474  1.00  0.00     0.077 C 
BRANCH  15  16
HETATM   16  C   UNL     1     -49.936 -47.197   1.727  1.00  0.00     0.017 A 
HETATM   17  C   UNL     1     -49.598 -45.871   1.936  1.00  0.00     0.076 A 
HETATM   18  S   UNL     1     -51.010 -44.937   2.202  1.00  0.00    -0.095 SA
HETATM   19  C   UNL     1     -51.955 -46.356   2.020  1.00  0.00     0.138 A 
HETATM   20  N   UNL     1     -51.295 -47.468   1.782  1.00  0.00    -0.363 N 
ATOM     21  HN  UNL     1     -51.717 -48.388   1.657  1.00  0.00     0.165 HD
ENDBRANCH  15  16
ENDBRANCH  14  15
ENDBRANCH   3  14
TORSDOF 6
ENDMDL
MODEL 8
REMARK VINA RESULT:      -5.0      3.387      6.870
REMARK  6 active torsions:
REMARK  status: ('A' for Active; 'I' for Inactive)
REMARK    1  A    between atoms: C_2  and  C_3 
REMARK    2  A    between atoms: C_2  and  C_10 
REMARK    3  A    between atoms: C_3  and  C_4 
REMARK       I    between atoms: C_10  and  N_12 
REMARK    4  A    between atoms: N_12  and  C_13 
REMARK    5  A    between atoms: C_13  and  C_14 
REMARK    6  A    between atoms: C_14  and  C_15 
ROOT
HETATM    1  C   UNL     1     -40.260 -51.687  12.538  1.00  0.00     0.221 C 
HETATM    2  O   UNL     1     -41.178 -51.846  11.737  1.00  0.00    -0.273 OA
HETATM    3  N   UNL     1     -39.795 -52.721  13.318  1.00  0.00    -0.360 N 
HETATM    4  H   UNL     1     -38.965 -52.606  13.881  1.00  0.00     0.162 HD
ENDROOT
BRANCH   1   5
HETATM    5  C   UNL     1     -39.492 -50.366  12.653  1.00  0.00     0.074 C 
HETATM    6  C   UNL     1     -37.990 -50.644  12.751  1.00  0.00     0.020 C 
BRANCH   5   7
HETATM    7  C   UNL     1     -39.847 -49.286  11.606  1.00  0.00     0.018 C 
BRANCH   7   8
HETATM    8  C   UNL     1     -40.988 -48.286  11.921  1.00  0.00    -0.014 C 
HETATM    9  C   UNL     1     -41.147 -47.133  10.918  1.00  0.00     0.005 C 
HETATM   10  C   UNL     1     -39.952 -46.185  10.920  1.00  0.00     0.000 C 
HETATM   11  C   UNL     1     -39.738 -45.592  12.308  1.00  0.00     0.000 C 
HETATM   12  C   UNL     1     -39.625 -46.671  13.383  1.00  0.00     0.000 C 
HETATM   13  C   UNL     1     -40.780 -47.672  13.326  1.00  0.00     0.005 C 
ENDBRANCH   7   8
ENDBRANCH   5   7
ENDBRANCH   1   5
BRANCH   3  14
HETATM   14  C   UNL     1     -40.426 -54.027  13.297  1.00  0.00     0.128 C 
BRANCH  14  15
HETATM   15  C   UNL     1     -41.373 -54.226  14.480  1.00  0.00     0.077 C 
BRANCH  15  16
HETATM   16  C   UNL     1     -42.795 -54.310  14.036  1.00  0.00     0.017 A 
HETATM   17  C   UNL     1     -43.856 -54.806  14.774  1.00  0.00     0.076 A 
HETATM   18  S   UNL     1     -45.301 -54.722  13.859  1.00  0.00    -0.095 SA
HETATM   19  C   UNL     1     -44.414 -54.037  12.562  1.00  0.00     0.138 A 
HETATM   20  N   UNL     1     -43.125 -53.874  12.762  1.00  0.00    -0.363 N 
ATOM     21  HN  UNL     1     -42.469 -53.486  12.084  1.00  0.00     0.165 HD
ENDBRANCH  15  16
ENDBRANCH  14  15
ENDBRANCH   3  14
TORSDOF 6
ENDMDL
MODEL 9
REMARK VINA RESULT:      -5.0      6.033      9.363
REMARK  6 active torsions:
REMARK  status: ('A' for Active; 'I' for Inactive)
REMARK    1  A    between atoms: C_2  and  C_3 
REMARK    2  A    between atoms: C_2  and  C_10 
REMARK    3  A    between atoms: C_3  and  C_4 
REMARK       I    between atoms: C_10  and  N_12 
REMARK    4  A    between atoms: N_12  and  C_13 
REMARK    5  A    between atoms: C_13  and  C_14 
REMARK    6  A    between atoms: C_14  and  C_15 
ROOT
HETATM    1  C   UNL     1     -46.268 -53.520  16.352  1.00  0.00     0.221 C 
HETATM    2  O   UNL     1     -46.001 -54.569  15.770  1.00  0.00    -0.273 OA
HETATM    3  N   UNL     1     -46.115 -53.390  17.714  1.00  0.00    -0.360 N 
HETATM    4  H   UNL     1     -46.221 -52.490  18.159  1.00  0.00     0.162 HD
ENDROOT
BRANCH   1   5
HETATM    5  C   UNL     1     -46.682 -52.249  15.602  1.00  0.00     0.074 C 
HETATM    6  C   UNL     1     -47.650 -51.431  16.462  1.00  0.00     0.020 C 
BRANCH   5   7
HETATM    7  C   UNL     1     -45.529 -51.407  15.011  1.00  0.00     0.018 C 
BRANCH   7   8
HETATM    8  C   UNL     1     -45.462 -51.206  13.476  1.00  0.00    -0.014 C 
HETATM    9  C   UNL     1     -45.699 -52.470  12.636  1.00  0.00     0.005 C 
HETATM   10  C   UNL     1     -44.597 -53.509  12.817  1.00  0.00     0.000 C 
HETATM   11  C   UNL     1     -43.239 -52.926  12.442  1.00  0.00     0.000 C 
HETATM   12  C   UNL     1     -42.944 -51.629  13.192  1.00  0.00     0.000 C 
HETATM   13  C   UNL     1     -44.087 -50.619  13.080  1.00  0.00     0.005 C 
ENDBRANCH   7   8
ENDBRANCH   5   7
ENDBRANCH   1   5
BRANCH   3  14
HETATM   14  C   UNL     1     -45.717 -54.514  18.540  1.00  0.00     0.128 C 
BRANCH  14  15
HETATM   15  C   UNL     1     -46.795 -54.889  19.557  1.00  0.00     0.077 C 
BRANCH  15  16
HETATM   16  C   UNL     1     -46.767 -56.347  19.873  1.00  0.00     0.017 A 
HETATM   17  C   UNL     1     -45.750 -57.023  20.526  1.00  0.00     0.076 A 
HETATM   18  S   UNL     1     -46.138 -58.687  20.655  1.00  0.00    -0.095 SA
HETATM   19  C   UNL     1     -47.615 -58.384  19.840  1.00  0.00     0.138 A 
HETATM   20  N   UNL     1     -47.834 -57.139  19.477  1.00  0.00    -0.363 N 
ATOM     21  HN  UNL     1     -48.661 -56.807  18.982  1.00  0.00     0.165 HD
ENDBRANCH  15  16
ENDBRANCH  14  15
ENDBRANCH   3  14
TORSDOF 6
ENDMDL
