MODEL 1
REMARK VINA RESULT:      -6.1      0.000      0.000
REMARK  5 active torsions:
REMARK  status: ('A' for Active; 'I' for Inactive)
REMARK    1  A    between atoms: O_2  and  C_3 
REMARK    2  A    between atoms: C_3  and  C_6 
REMARK    3  A    between atoms: C_9  and  C_10 
REMARK    4  A    between atoms: C_10  and  C_11 
REMARK       I    between atoms: C_11  and  N_13 
REMARK    5  A    between atoms: N_13  and  C_14 
ROOT
HETATM    1  C   UNL     1     -43.079 -47.570  10.188  1.00  0.00     0.182 A 
HETATM    2  N   UNL     1     -42.986 -48.697  10.863  1.00  0.00    -0.324 N 
ATOM      3  HN  UNL     1     -43.525 -49.554  10.746  1.00  0.00     0.169 HD
HETATM    4  C   UNL     1     -41.986 -48.431  11.761  1.00  0.00     0.112 A 
HETATM    5  N   UNL     1     -41.437 -47.212  11.642  1.00  0.00    -0.247 N 
ATOM      6  HN  UNL     1     -40.671 -46.807  12.180  1.00  0.00     0.196 HD
HETATM    7  O   UNL     1     -42.172 -46.630  10.598  1.00  0.00    -0.220 OA
ENDROOT
BRANCH   4   8
HETATM    8  C   UNL     1     -41.646 -49.359  12.860  1.00  0.00     0.181 C 
BRANCH   8   9
HETATM    9  C   UNL     1     -41.725 -50.809  12.440  1.00  0.00     0.225 C 
HETATM   10  O   UNL     1     -40.952 -51.279  11.606  1.00  0.00    -0.273 OA
HETATM   11  N   UNL     1     -42.756 -51.552  13.003  1.00  0.00    -0.356 N 
HETATM   12  H   UNL     1     -43.154 -51.188  13.865  1.00  0.00     0.162 HD
BRANCH  11  13
HETATM   13  C   UNL     1     -42.808 -52.999  12.779  1.00  0.00     0.084 C 
HETATM   14  C   UNL     1     -44.231 -53.495  12.432  1.00  0.00     0.025 C 
HETATM   15  C   UNL     1     -45.017 -54.208  13.533  1.00  0.00     0.002 C 
HETATM   16  C   UNL     1     -44.155 -55.100  14.403  1.00  0.00     0.000 C 
HETATM   17  C   UNL     1     -43.022 -54.277  15.005  1.00  0.00     0.002 C 
HETATM   18  C   UNL     1     -42.102 -53.775  13.902  1.00  0.00     0.025 C 
ENDBRANCH  11  13
ENDBRANCH   8   9
ENDBRANCH   4   8
BRANCH   1  19
HETATM   19  C   UNL     1     -44.039 -47.192   9.083  1.00  0.00     0.120 C 
HETATM   20  C   UNL     1     -43.553 -47.836   7.772  1.00  0.00     0.055 C 
HETATM   21  C   UNL     1     -44.098 -45.666   8.932  1.00  0.00     0.055 C 
BRANCH  19  22
HETATM   22  O   UNL     1     -45.314 -47.724   9.484  1.00  0.00    -0.377 OA
HETATM   23  C   UNL     1     -46.468 -46.999   9.083  1.00  0.00     0.203 C 
ENDBRANCH  19  22
ENDBRANCH   1  19
TORSDOF 5
ENDMDL
MODEL 2
REMARK VINA RESULT:      -5.9      4.285      5.906
REMARK  5 active torsions:
REMARK  status: ('A' for Active; 'I' for Inactive)
REMARK    1  A    between atoms: O_2  and  C_3 
REMARK    2  A    between atoms: C_3  and  C_6 
REMARK    3  A    between atoms: C_9  and  C_10 
REMARK    4  A    between atoms: C_10  and  C_11 
REMARK       I    between atoms: C_11  and  N_13 
REMARK    5  A    between atoms: N_13  and  C_14 
ROOT
HETATM    1  C   UNL     1     -39.966 -51.979  13.073  1.00  0.00     0.182 A 
HETATM    2  N   UNL     1     -40.405 -52.494  14.202  1.00  0.00    -0.324 N 
ATOM      3  HN  UNL     1     -40.351 -52.104  15.143  1.00  0.00     0.169 HD
HETATM    4  C   UNL     1     -40.953 -53.683  13.799  1.00  0.00     0.112 A 
HETATM    5  N   UNL     1     -40.904 -53.902  12.476  1.00  0.00    -0.247 N 
ATOM      6  HN  UNL     1     -41.266 -54.699  11.952  1.00  0.00     0.196 HD
HETATM    7  O   UNL     1     -40.236 -52.770  11.988  1.00  0.00    -0.220 OA
ENDROOT
BRANCH   4   8
HETATM    8  C   UNL     1     -41.424 -54.700  14.763  1.00  0.00     0.181 C 
BRANCH   8   9
HETATM    9  C   UNL     1     -42.930 -54.821  14.788  1.00  0.00     0.225 C 
HETATM   10  O   UNL     1     -43.485 -55.870  15.115  1.00  0.00    -0.273 OA
HETATM   11  N   UNL     1     -43.639 -53.703  14.365  1.00  0.00    -0.356 N 
HETATM   12  H   UNL     1     -43.140 -52.818  14.390  1.00  0.00     0.162 HD
BRANCH  11  13
HETATM   13  C   UNL     1     -45.097 -53.676  14.512  1.00  0.00     0.084 C 
HETATM   14  C   UNL     1     -45.811 -53.134  13.251  1.00  0.00     0.025 C 
HETATM   15  C   UNL     1     -46.345 -51.702  13.303  1.00  0.00     0.002 C 
HETATM   16  C   UNL     1     -46.922 -51.327  14.654  1.00  0.00     0.000 C 
HETATM   17  C   UNL     1     -45.867 -51.542  15.732  1.00  0.00     0.002 C 
HETATM   18  C   UNL     1     -45.524 -53.020  15.835  1.00  0.00     0.025 C 
ENDBRANCH  11  13
ENDBRANCH   8   9
ENDBRANCH   4   8
BRANCH   1  19
HETATM   19  C   UNL     1     -39.208 -50.692  12.838  1.00  0.00     0.120 C 
HETATM   20  C   UNL     1     -39.021 -49.980  14.191  1.00  0.00     0.055 C 
HETATM   21  C   UNL     1     -39.983 -49.789  11.870  1.00  0.00     0.055 C 
BRANCH  19  22
HETATM   22  O   UNL     1     -37.943 -51.089  12.279  1.00  0.00    -0.377 OA
HETATM   23  C   UNL     1     -37.411 -50.270  11.246  1.00  0.00     0.203 C 
ENDBRANCH  19  22
ENDBRANCH   1  19
TORSDOF 5
ENDMDL
MODEL 3
REMARK VINA RESULT:      -5.9      2.089      2.241
REMARK  5 active torsions:
REMARK  status: ('A' for Active; 'I' for Inactive)
REMARK    1  A    between atoms: O_2  and  C_3 
REMARK    2  A    between atoms: C_3  and  C_6 
REMARK    3  A    between atoms: C_9  and  C_10 
REMARK    4  A    between atoms: C_10  and  C_11 
REMARK       I    between atoms: C_11  and  N_13 
REMARK    5  A    between atoms: N_13  and  C_14 
ROOT
HETATM    1  C   UNL     1     -43.018 -47.756  10.104  1.00  0.00     0.182 A 
HETATM    2  N   UNL     1     -43.202 -48.448  11.208  1.00  0.00    -0.324 N 
ATOM      3  HN  UNL     1     -44.073 -48.817  11.591  1.00  0.00     0.169 HD
HETATM    4  C   UNL     1     -41.934 -48.550  11.717  1.00  0.00     0.112 A 
HETATM    5  N   UNL     1     -40.981 -47.988  10.959  1.00  0.00    -0.247 N 
ATOM      6  HN  UNL     1     -39.974 -47.961  11.124  1.00  0.00     0.196 HD
HETATM    7  O   UNL     1     -41.702 -47.447   9.885  1.00  0.00    -0.220 OA
ENDROOT
BRANCH   4   8
HETATM    8  C   UNL     1     -41.666 -49.106  13.061  1.00  0.00     0.181 C 
BRANCH   8   9
HETATM    9  C   UNL     1     -42.448 -50.371  13.332  1.00  0.00     0.225 C 
HETATM   10  O   UNL     1     -42.109 -51.450  12.848  1.00  0.00    -0.273 OA
HETATM   11  N   UNL     1     -43.595 -50.225  14.102  1.00  0.00    -0.356 N 
HETATM   12  H   UNL     1     -43.646 -49.392  14.682  1.00  0.00     0.162 HD
BRANCH  11  13
HETATM   13  C   UNL     1     -44.320 -51.418  14.548  1.00  0.00     0.084 C 
HETATM   14  C   UNL     1     -45.546 -51.735  13.660  1.00  0.00     0.025 C 
HETATM   15  C   UNL     1     -46.927 -51.382  14.212  1.00  0.00     0.002 C 
HETATM   16  C   UNL     1     -47.057 -51.626  15.703  1.00  0.00     0.000 C 
HETATM   17  C   UNL     1     -45.973 -50.848  16.439  1.00  0.00     0.002 C 
HETATM   18  C   UNL     1     -44.601 -51.383  16.059  1.00  0.00     0.025 C 
ENDBRANCH  11  13
ENDBRANCH   8   9
ENDBRANCH   4   8
BRANCH   1  19
HETATM   19  C   UNL     1     -44.037 -47.257   9.105  1.00  0.00     0.120 C 
HETATM   20  C   UNL     1     -43.733 -47.894   7.737  1.00  0.00     0.055 C 
HETATM   21  C   UNL     1     -43.973 -45.727   9.001  1.00  0.00     0.055 C 
BRANCH  19  22
HETATM   22  O   UNL     1     -45.313 -47.690   9.610  1.00  0.00    -0.377 OA
HETATM   23  C   UNL     1     -46.266 -48.134   8.655  1.00  0.00     0.203 C 
ENDBRANCH  19  22
ENDBRANCH   1  19
TORSDOF 5
ENDMDL
MODEL 4
REMARK VINA RESULT:      -5.8      2.408      3.198
REMARK  5 active torsions:
REMARK  status: ('A' for Active; 'I' for Inactive)
REMARK    1  A    between atoms: O_2  and  C_3 
REMARK    2  A    between atoms: C_3  and  C_6 
REMARK    3  A    between atoms: C_9  and  C_10 
REMARK    4  A    between atoms: C_10  and  C_11 
REMARK       I    between atoms: C_11  and  N_13 
REMARK    5  A    between atoms: N_13  and  C_14 
ROOT
HETATM    1  C   UNL     1     -40.895 -46.636  10.783  1.00  0.00     0.182 A 
HETATM    2  N   UNL     1     -40.216 -47.652  11.273  1.00  0.00    -0.324 N 
ATOM      3  HN  UNL     1     -39.340 -47.640  11.795  1.00  0.00     0.169 HD
HETATM    4  C   UNL     1     -40.978 -48.730  10.907  1.00  0.00     0.112 A 
HETATM    5  N   UNL     1     -42.108 -48.420  10.253  1.00  0.00    -0.247 N 
ATOM      6  HN  UNL     1     -42.833 -49.050   9.906  1.00  0.00     0.196 HD
HETATM    7  O   UNL     1     -42.051 -47.022  10.159  1.00  0.00    -0.220 OA
ENDROOT
BRANCH   4   8
HETATM    8  C   UNL     1     -40.516 -50.122  11.092  1.00  0.00     0.181 C 
BRANCH   8   9
HETATM    9  C   UNL     1     -41.138 -50.784  12.299  1.00  0.00     0.225 C 
HETATM   10  O   UNL     1     -40.534 -50.868  13.368  1.00  0.00    -0.273 OA
HETATM   11  N   UNL     1     -42.397 -51.341  12.109  1.00  0.00    -0.356 N 
HETATM   12  H   UNL     1     -42.930 -50.989  11.317  1.00  0.00     0.162 HD
BRANCH  11  13
HETATM   13  C   UNL     1     -43.140 -51.856  13.262  1.00  0.00     0.084 C 
HETATM   14  C   UNL     1     -43.172 -53.401  13.306  1.00  0.00     0.025 C 
HETATM   15  C   UNL     1     -44.467 -54.093  12.879  1.00  0.00     0.002 C 
HETATM   16  C   UNL     1     -45.715 -53.352  13.317  1.00  0.00     0.000 C 
HETATM   17  C   UNL     1     -45.670 -51.925  12.782  1.00  0.00     0.002 C 
HETATM   18  C   UNL     1     -44.509 -51.170  13.410  1.00  0.00     0.025 C 
ENDBRANCH  11  13
ENDBRANCH   8   9
ENDBRANCH   4   8
BRANCH   1  19
HETATM   19  C   UNL     1     -40.558 -45.163  10.800  1.00  0.00     0.120 C 
HETATM   20  C   UNL     1     -39.391 -44.917   9.826  1.00  0.00     0.055 C 
HETATM   21  C   UNL     1     -40.165 -44.724  12.216  1.00  0.00     0.055 C 
BRANCH  19  22
HETATM   22  O   UNL     1     -41.753 -44.492  10.361  1.00  0.00    -0.377 OA
HETATM   23  C   UNL     1     -42.425 -43.683  11.316  1.00  0.00     0.203 C 
ENDBRANCH  19  22
ENDBRANCH   1  19
TORSDOF 5
ENDMDL
MODEL 5
REMARK VINA RESULT:      -5.8      4.064      5.663
REMARK  5 active torsions:
REMARK  status: ('A' for Active; 'I' for Inactive)
REMARK    1  A    between atoms: O_2  and  C_3 
REMARK    2  A    between atoms: C_3  and  C_6 
REMARK    3  A    between atoms: C_9  and  C_10 
REMARK    4  A    between atoms: C_10  and  C_11 
REMARK       I    between atoms: C_11  and  N_13 
REMARK    5  A    between atoms: N_13  and  C_14 
ROOT
HETATM    1  C   UNL     1     -39.929 -51.269  12.609  1.00  0.00     0.182 A 
HETATM    2  N   UNL     1     -40.373 -52.165  13.465  1.00  0.00    -0.324 N 
ATOM      3  HN  UNL     1     -40.083 -52.323  14.430  1.00  0.00     0.169 HD
HETATM    4  C   UNL     1     -41.322 -52.835  12.738  1.00  0.00     0.112 A 
HETATM    5  N   UNL     1     -41.507 -52.367  11.494  1.00  0.00    -0.247 N 
ATOM      6  HN  UNL     1     -42.168 -52.691  10.788  1.00  0.00     0.196 HD
HETATM    7  O   UNL     1     -40.571 -51.327  11.400  1.00  0.00    -0.220 OA
ENDROOT
BRANCH   4   8
HETATM    8  C   UNL     1     -41.979 -54.062  13.239  1.00  0.00     0.181 C 
BRANCH   8   9
HETATM    9  C   UNL     1     -43.486 -53.967  13.205  1.00  0.00     0.225 C 
HETATM   10  O   UNL     1     -44.123 -54.229  12.186  1.00  0.00    -0.273 OA
HETATM   11  N   UNL     1     -44.095 -53.510  14.368  1.00  0.00    -0.356 N 
HETATM   12  H   UNL     1     -43.551 -53.590  15.223  1.00  0.00     0.162 HD
BRANCH  11  13
HETATM   13  C   UNL     1     -45.556 -53.543  14.478  1.00  0.00     0.084 C 
HETATM   14  C   UNL     1     -46.227 -52.299  13.849  1.00  0.00     0.025 C 
HETATM   15  C   UNL     1     -46.745 -51.220  14.800  1.00  0.00     0.002 C 
HETATM   16  C   UNL     1     -47.356 -51.782  16.068  1.00  0.00     0.000 C 
HETATM   17  C   UNL     1     -46.335 -52.668  16.772  1.00  0.00     0.002 C 
HETATM   18  C   UNL     1     -46.012 -53.877  15.908  1.00  0.00     0.025 C 
ENDBRANCH  11  13
ENDBRANCH   8   9
ENDBRANCH   4   8
BRANCH   1  19
HETATM   19  C   UNL     1     -38.829 -50.247  12.777  1.00  0.00     0.120 C 
HETATM   20  C   UNL     1     -39.165 -49.020  11.910  1.00  0.00     0.055 C 
HETATM   21  C   UNL     1     -37.481 -50.843  12.350  1.00  0.00     0.055 C 
BRANCH  19  22
HETATM   22  O   UNL     1     -38.828 -49.911  14.176  1.00  0.00    -0.377 OA
HETATM   23  C   UNL     1     -37.565 -49.853  14.824  1.00  0.00     0.203 C 
ENDBRANCH  19  22
ENDBRANCH   1  19
TORSDOF 5
ENDMDL
MODEL 6
REMARK VINA RESULT:      -5.7      2.251      3.369
REMARK  5 active torsions:
REMARK  status: ('A' for Active; 'I' for Inactive)
REMARK    1  A    between atoms: O_2  and  C_3 
REMARK    2  A    between atoms: C_3  and  C_6 
REMARK    3  A    between atoms: C_9  and  C_10 
REMARK    4  A    between atoms: C_10  and  C_11 
REMARK       I    between atoms: C_11  and  N_13 
REMARK    5  A    between atoms: N_13  and  C_14 
ROOT
HETATM    1  C   UNL     1     -41.382 -48.766  11.605  1.00  0.00     0.182 A 
HETATM    2  N   UNL     1     -41.235 -49.943  11.035  1.00  0.00    -0.324 N 
ATOM      3  HN  UNL     1     -41.336 -50.190  10.051  1.00  0.00     0.169 HD
HETATM    4  C   UNL     1     -40.915 -50.754  12.091  1.00  0.00     0.112 A 
HETATM    5  N   UNL     1     -40.820 -50.123  13.272  1.00  0.00    -0.247 N 
ATOM      6  HN  UNL     1     -40.573 -50.515  14.181  1.00  0.00     0.196 HD
HETATM    7  O   UNL     1     -41.141 -48.796  12.953  1.00  0.00    -0.220 OA
ENDROOT
BRANCH   4   8
HETATM    8  C   UNL     1     -40.826 -52.224  11.959  1.00  0.00     0.181 C 
BRANCH   8   9
HETATM    9  C   UNL     1     -41.988 -52.936  12.612  1.00  0.00     0.225 C 
HETATM   10  O   UNL     1     -41.843 -54.023  13.170  1.00  0.00    -0.273 OA
HETATM   11  N   UNL     1     -43.228 -52.321  12.488  1.00  0.00    -0.356 N 
HETATM   12  H   UNL     1     -43.218 -51.326  12.277  1.00  0.00     0.162 HD
BRANCH  11  13
HETATM   13  C   UNL     1     -44.375 -52.855  13.227  1.00  0.00     0.084 C 
HETATM   14  C   UNL     1     -45.702 -52.717  12.444  1.00  0.00     0.025 C 
HETATM   15  C   UNL     1     -46.662 -51.608  12.873  1.00  0.00     0.002 C 
HETATM   16  C   UNL     1     -46.707 -51.402  14.374  1.00  0.00     0.000 C 
HETATM   17  C   UNL     1     -45.301 -51.118  14.888  1.00  0.00     0.002 C 
HETATM   18  C   UNL     1     -44.414 -52.335  14.673  1.00  0.00     0.025 C 
ENDBRANCH  11  13
ENDBRANCH   8   9
ENDBRANCH   4   8
BRANCH   1  19
HETATM   19  C   UNL     1     -41.791 -47.447  10.990  1.00  0.00     0.120 C 
HETATM   20  C   UNL     1     -42.599 -46.652  12.031  1.00  0.00     0.055 C 
HETATM   21  C   UNL     1     -42.640 -47.689   9.735  1.00  0.00     0.055 C 
BRANCH  19  22
HETATM   22  O   UNL     1     -40.560 -46.778  10.663  1.00  0.00    -0.377 OA
HETATM   23  C   UNL     1     -40.545 -45.363  10.782  1.00  0.00     0.203 C 
ENDBRANCH  19  22
ENDBRANCH   1  19
TORSDOF 5
ENDMDL
MODEL 7
REMARK VINA RESULT:      -5.6      3.346      5.072
REMARK  5 active torsions:
REMARK  status: ('A' for Active; 'I' for Inactive)
REMARK    1  A    between atoms: O_2  and  C_3 
REMARK    2  A    between atoms: C_3  and  C_6 
REMARK    3  A    between atoms: C_9  and  C_10 
REMARK    4  A    between atoms: C_10  and  C_11 
REMARK       I    between atoms: C_11  and  N_13 
REMARK    5  A    between atoms: N_13  and  C_14 
ROOT
HETATM    1  C   UNL     1     -42.553 -47.672   9.946  1.00  0.00     0.182 A 
HETATM    2  N   UNL     1     -42.380 -48.829  10.550  1.00  0.00    -0.324 N 
ATOM      3  HN  UNL     1     -42.986 -49.649  10.541  1.00  0.00     0.169 HD
HETATM    4  C   UNL     1     -41.182 -48.659  11.193  1.00  0.00     0.112 A 
HETATM    5  N   UNL     1     -40.598 -47.470  10.981  1.00  0.00    -0.247 N 
ATOM      6  HN  UNL     1     -39.702 -47.133  11.335  1.00  0.00     0.196 HD
HETATM    7  O   UNL     1     -41.515 -46.804  10.156  1.00  0.00    -0.220 OA
ENDROOT
BRANCH   4   8
HETATM    8  C   UNL     1     -40.657 -49.651  12.156  1.00  0.00     0.181 C 
BRANCH   8   9
HETATM    9  C   UNL     1     -39.207 -49.407  12.505  1.00  0.00     0.225 C 
HETATM   10  O   UNL     1     -38.335 -49.369  11.637  1.00  0.00    -0.273 OA
HETATM   11  N   UNL     1     -38.917 -49.293  13.859  1.00  0.00    -0.356 N 
HETATM   12  H   UNL     1     -39.695 -49.053  14.468  1.00  0.00     0.162 HD
BRANCH  11  13
HETATM   13  C   UNL     1     -37.570 -48.895  14.277  1.00  0.00     0.084 C 
HETATM   14  C   UNL     1     -36.883 -49.961  15.163  1.00  0.00     0.025 C 
HETATM   15  C   UNL     1     -36.816 -49.692  16.667  1.00  0.00     0.002 C 
HETATM   16  C   UNL     1     -36.572 -48.234  17.004  1.00  0.00     0.000 C 
HETATM   17  C   UNL     1     -37.652 -47.377  16.356  1.00  0.00     0.002 C 
HETATM   18  C   UNL     1     -37.547 -47.465  14.841  1.00  0.00     0.025 C 
ENDBRANCH  11  13
ENDBRANCH   8   9
ENDBRANCH   4   8
BRANCH   1  19
HETATM   19  C   UNL     1     -43.717 -47.193   9.109  1.00  0.00     0.120 C 
HETATM   20  C   UNL     1     -43.587 -47.798   7.700  1.00  0.00     0.055 C 
HETATM   21  C   UNL     1     -43.717 -45.661   9.028  1.00  0.00     0.055 C 
BRANCH  19  22
HETATM   22  O   UNL     1     -44.895 -47.678   9.778  1.00  0.00    -0.377 OA
HETATM   23  C   UNL     1     -46.149 -47.301   9.227  1.00  0.00     0.203 C 
ENDBRANCH  19  22
ENDBRANCH   1  19
TORSDOF 5
ENDMDL
MODEL 8
REMARK VINA RESULT:      -5.5      4.739      6.713
REMARK  5 active torsions:
REMARK  status: ('A' for Active; 'I' for Inactive)
REMARK    1  A    between atoms: O_2  and  C_3 
REMARK    2  A    between atoms: C_3  and  C_6 
REMARK    3  A    between atoms: C_9  and  C_10 
REMARK    4  A    between atoms: C_10  and  C_11 
REMARK       I    between atoms: C_11  and  N_13 
REMARK    5  A    between atoms: N_13  and  C_14 
ROOT
HETATM    1  C   UNL     1     -44.285 -52.765  13.952  1.00  0.00     0.182 A 
HETATM    2  N   UNL     1     -43.177 -53.407  14.258  1.00  0.00    -0.324 N 
ATOM      3  HN  UNL     1     -42.843 -53.697  15.176  1.00  0.00     0.169 HD
HETATM    4  C   UNL     1     -42.584 -53.587  13.036  1.00  0.00     0.112 A 
HETATM    5  N   UNL     1     -43.293 -53.122  11.996  1.00  0.00    -0.247 N 
ATOM      6  HN  UNL     1     -43.063 -53.165  11.003  1.00  0.00     0.196 HD
HETATM    7  O   UNL     1     -44.426 -52.563  12.604  1.00  0.00    -0.220 OA
ENDROOT
BRANCH   4   8
HETATM    8  C   UNL     1     -41.211 -54.118  12.897  1.00  0.00     0.181 C 
BRANCH   8   9
HETATM    9  C   UNL     1     -40.208 -53.360  13.735  1.00  0.00     0.225 C 
HETATM   10  O   UNL     1     -39.850 -53.773  14.837  1.00  0.00    -0.273 OA
HETATM   11  N   UNL     1     -39.770 -52.149  13.214  1.00  0.00    -0.356 N 
HETATM   12  H   UNL     1     -39.882 -52.023  12.211  1.00  0.00     0.162 HD
BRANCH  11  13
HETATM   13  C   UNL     1     -38.680 -51.430  13.879  1.00  0.00     0.084 C 
HETATM   14  C   UNL     1     -39.190 -50.293  14.796  1.00  0.00     0.025 C 
HETATM   15  C   UNL     1     -39.063 -48.860  14.280  1.00  0.00     0.002 C 
HETATM   16  C   UNL     1     -37.786 -48.614  13.501  1.00  0.00     0.000 C 
HETATM   17  C   UNL     1     -37.698 -49.606  12.347  1.00  0.00     0.002 C 
HETATM   18  C   UNL     1     -37.577 -51.023  12.888  1.00  0.00     0.025 C 
ENDBRANCH  11  13
ENDBRANCH   8   9
ENDBRANCH   4   8
BRANCH   1  19
HETATM   19  C   UNL     1     -45.361 -52.223  14.864  1.00  0.00     0.120 C 
HETATM   20  C   UNL     1     -46.466 -51.592  13.996  1.00  0.00     0.055 C 
HETATM   21  C   UNL     1     -44.772 -51.172  15.814  1.00  0.00     0.055 C 
BRANCH  19  22
HETATM   22  O   UNL     1     -45.856 -53.361  15.591  1.00  0.00    -0.377 OA
HETATM   23  C   UNL     1     -46.507 -54.374  14.837  1.00  0.00     0.203 C 
ENDBRANCH  19  22
ENDBRANCH   1  19
TORSDOF 5
ENDMDL
MODEL 9
REMARK VINA RESULT:      -5.5      2.524      6.519
REMARK  5 active torsions:
REMARK  status: ('A' for Active; 'I' for Inactive)
REMARK    1  A    between atoms: O_2  and  C_3 
REMARK    2  A    between atoms: C_3  and  C_6 
REMARK    3  A    between atoms: C_9  and  C_10 
REMARK    4  A    between atoms: C_10  and  C_11 
REMARK       I    between atoms: C_11  and  N_13 
REMARK    5  A    between atoms: N_13  and  C_14 
ROOT
HETATM    1  C   UNL     1     -44.563 -52.054  13.284  1.00  0.00     0.182 A 
HETATM    2  N   UNL     1     -43.701 -52.150  12.295  1.00  0.00    -0.324 N 
ATOM      3  HN  UNL     1     -43.861 -52.472  11.340  1.00  0.00     0.169 HD
HETATM    4  C   UNL     1     -42.535 -51.710  12.864  1.00  0.00     0.112 A 
HETATM    5  N   UNL     1     -42.652 -51.314  14.141  1.00  0.00    -0.247 N 
ATOM      6  HN  UNL     1     -41.931 -50.932  14.754  1.00  0.00     0.196 HD
HETATM    7  O   UNL     1     -44.003 -51.551  14.429  1.00  0.00    -0.220 OA
ENDROOT
BRANCH   4   8
HETATM    8  C   UNL     1     -41.233 -51.806  12.170  1.00  0.00     0.181 C 
BRANCH   8   9
HETATM    9  C   UNL     1     -40.759 -50.472  11.642  1.00  0.00     0.225 C 
HETATM   10  O   UNL     1     -39.561 -50.202  11.564  1.00  0.00    -0.273 OA
HETATM   11  N   UNL     1     -41.753 -49.559  11.310  1.00  0.00    -0.356 N 
HETATM   12  H   UNL     1     -42.677 -49.944  11.132  1.00  0.00     0.162 HD
BRANCH  11  13
HETATM   13  C   UNL     1     -41.388 -48.308  10.640  1.00  0.00     0.084 C 
HETATM   14  C   UNL     1     -40.929 -47.214  11.632  1.00  0.00     0.025 C 
HETATM   15  C   UNL     1     -41.918 -46.093  11.953  1.00  0.00     0.002 C 
HETATM   16  C   UNL     1     -42.739 -45.657  10.756  1.00  0.00     0.000 C 
HETATM   17  C   UNL     1     -43.469 -46.862  10.176  1.00  0.00     0.002 C 
HETATM   18  C   UNL     1     -42.464 -47.867   9.634  1.00  0.00     0.025 C 
ENDBRANCH  11  13
ENDBRANCH   8   9
ENDBRANCH   4   8
BRANCH   1  19
HETATM   19  C   UNL     1     -46.025 -52.437  13.322  1.00  0.00     0.120 C 
HETATM   20  C   UNL     1     -46.721 -51.834  12.089  1.00  0.00     0.055 C 
HETATM   21  C   UNL     1     -46.678 -51.912  14.607  1.00  0.00     0.055 C 
BRANCH  19  22
HETATM   22  O   UNL     1     -46.045 -53.876  13.281  1.00  0.00    -0.377 OA
HETATM   23  C   UNL     1     -46.108 -54.555  14.527  1.00  0.00     0.203 C 
ENDBRANCH  19  22
ENDBRANCH   1  19
TORSDOF 5
ENDMDL
