MODEL 1
REMARK VINA RESULT:      -5.9      0.000      0.000
REMARK  7 active torsions:
REMARK  status: ('A' for Active; 'I' for Inactive)
REMARK    1  A    between atoms: C_2  and  N_4 
REMARK       I    between atoms: N_4  and  C_5 
REMARK    2  A    between atoms: C_5  and  C_7 
REMARK    3  A    between atoms: C_7  and  C_8 
REMARK    4  A    between atoms: C_8  and  N_9 
REMARK    5  A    between atoms: N_9  and  C_10 
REMARK    6  A    between atoms: C_10  and  C_12 
REMARK    7  A    between atoms: C_12  and  N_13 
ROOT
HETATM    1  N   UNL     1     -41.999 -50.342  11.557  1.00  0.00     0.089 N 
HETATM    2  H   UNL     1     -42.902 -50.408  11.077  1.00  0.00     0.316 HD
ENDROOT
BRANCH   1   3
HETATM    3  C   UNL     1     -42.022 -51.277  12.689  1.00  0.00     0.279 C 
BRANCH   3   4
HETATM    4  C   UNL     1     -42.446 -52.677  12.254  1.00  0.00     0.132 C 
BRANCH   4   5
HETATM    5  C   UNL     1     -43.844 -53.007  12.736  1.00  0.00     0.219 C 
HETATM    6  N   UNL     1     -44.777 -52.042  12.413  1.00  0.00    -0.357 N 
HETATM    7  H   UNL     1     -44.522 -51.413  11.662  1.00  0.00     0.162 HD
HETATM    8  O   UNL     1     -44.099 -54.035  13.352  1.00  0.00    -0.274 OA
BRANCH   6   9
HETATM    9  C   UNL     1     -46.196 -52.225  12.679  1.00  0.00     0.076 C 
HETATM   10  C   UNL     1     -46.565 -51.542  13.992  1.00  0.00     0.032 C 
HETATM   11  C   UNL     1     -47.033 -51.671  11.528  1.00  0.00     0.032 C 
ENDBRANCH   6   9
ENDBRANCH   4   5
ENDBRANCH   3   4
ENDBRANCH   1   3
BRANCH   1  12
HETATM   12  C   UNL     1     -41.838 -48.925  11.968  1.00  0.00     0.236 C 
HETATM   13  C   UNL     1     -40.665 -48.716  12.932  1.00  0.00     0.044 C 
BRANCH  12  14
HETATM   14  C   UNL     1     -41.613 -48.027  10.727  1.00  0.00     0.183 C 
BRANCH  14  15
HETATM   15  N   UNL     1     -42.803 -47.860   9.913  1.00  0.00    -0.301 N 
HETATM   16  C   UNL     1     -44.059 -47.548  10.354  1.00  0.00     0.118 A 
HETATM   17  C   UNL     1     -44.842 -47.408   9.228  1.00  0.00    -0.028 A 
HETATM   18  C   UNL     1     -46.277 -47.061   9.142  1.00  0.00     0.051 C 
HETATM   19  C   UNL     1     -43.956 -47.676   8.159  1.00  0.00     0.115 A 
HETATM   20  N   UNL     1     -42.717 -47.950   8.573  1.00  0.00    -0.310 N 
ATOM     21  HN  UNL     1     -41.899 -48.175   8.007  1.00  0.00     0.186 HD
ENDBRANCH  14  15
ENDBRANCH  12  14
ENDBRANCH   1  12
TORSDOF 7
ENDMDL
MODEL 2
REMARK VINA RESULT:      -5.6      1.919      2.278
REMARK  7 active torsions:
REMARK  status: ('A' for Active; 'I' for Inactive)
REMARK    1  A    between atoms: C_2  and  N_4 
REMARK       I    between atoms: N_4  and  C_5 
REMARK    2  A    between atoms: C_5  and  C_7 
REMARK    3  A    between atoms: C_7  and  C_8 
REMARK    4  A    between atoms: C_8  and  N_9 
REMARK    5  A    between atoms: N_9  and  C_10 
REMARK    6  A    between atoms: C_10  and  C_12 
REMARK    7  A    between atoms: C_12  and  N_13 
ROOT
HETATM    1  N   UNL     1     -42.055 -50.354  11.669  1.00  0.00     0.089 N 
HETATM    2  H   UNL     1     -42.757 -50.758  12.298  1.00  0.00     0.316 HD
ENDROOT
BRANCH   1   3
HETATM    3  C   UNL     1     -40.807 -51.109  11.844  1.00  0.00     0.279 C 
BRANCH   3   4
HETATM    4  C   UNL     1     -41.077 -52.585  12.122  1.00  0.00     0.132 C 
BRANCH   4   5
HETATM    5  C   UNL     1     -42.002 -52.764  13.308  1.00  0.00     0.219 C 
HETATM    6  N   UNL     1     -42.855 -53.842  13.182  1.00  0.00    -0.357 N 
HETATM    7  H   UNL     1     -42.580 -54.547  12.509  1.00  0.00     0.162 HD
HETATM    8  O   UNL     1     -41.979 -52.012  14.276  1.00  0.00    -0.274 OA
BRANCH   6   9
HETATM    9  C   UNL     1     -43.737 -54.256  14.262  1.00  0.00     0.076 C 
HETATM   10  C   UNL     1     -45.009 -54.865  13.683  1.00  0.00     0.032 C 
HETATM   11  C   UNL     1     -43.029 -55.252  15.180  1.00  0.00     0.032 C 
ENDBRANCH   6   9
ENDBRANCH   4   5
ENDBRANCH   3   4
ENDBRANCH   1   3
BRANCH   1  12
HETATM   12  C   UNL     1     -41.931 -48.920  12.034  1.00  0.00     0.236 C 
HETATM   13  C   UNL     1     -40.813 -48.661  13.050  1.00  0.00     0.044 C 
BRANCH  12  14
HETATM   14  C   UNL     1     -41.651 -48.067  10.774  1.00  0.00     0.183 C 
BRANCH  14  15
HETATM   15  N   UNL     1     -42.820 -47.875   9.936  1.00  0.00    -0.301 N 
HETATM   16  C   UNL     1     -44.077 -47.530  10.351  1.00  0.00     0.118 A 
HETATM   17  C   UNL     1     -44.835 -47.376   9.209  1.00  0.00    -0.028 A 
HETATM   18  C   UNL     1     -46.258 -46.994   9.094  1.00  0.00     0.051 C 
HETATM   19  C   UNL     1     -43.935 -47.671   8.159  1.00  0.00     0.115 A 
HETATM   20  N   UNL     1     -42.712 -47.974   8.598  1.00  0.00    -0.310 N 
ATOM     21  HN  UNL     1     -41.888 -48.222   8.049  1.00  0.00     0.186 HD
ENDBRANCH  14  15
ENDBRANCH  12  14
ENDBRANCH   1  12
TORSDOF 7
ENDMDL
MODEL 3
REMARK VINA RESULT:      -5.5      3.370      4.571
REMARK  7 active torsions:
REMARK  status: ('A' for Active; 'I' for Inactive)
REMARK    1  A    between atoms: C_2  and  N_4 
REMARK       I    between atoms: N_4  and  C_5 
REMARK    2  A    between atoms: C_5  and  C_7 
REMARK    3  A    between atoms: C_7  and  C_8 
REMARK    4  A    between atoms: C_8  and  N_9 
REMARK    5  A    between atoms: N_9  and  C_10 
REMARK    6  A    between atoms: C_10  and  C_12 
REMARK    7  A    between atoms: C_12  and  N_13 
ROOT
HETATM    1  N   UNL     1     -43.117 -53.803  12.594  1.00  0.00     0.089 N 
HETATM    2  H   UNL     1     -44.113 -53.625  12.759  1.00  0.00     0.316 HD
ENDROOT
BRANCH   1   3
HETATM    3  C   UNL     1     -42.568 -54.438  13.801  1.00  0.00     0.279 C 
BRANCH   3   4
HETATM    4  C   UNL     1     -43.673 -54.889  14.751  1.00  0.00     0.132 C 
BRANCH   4   5
HETATM    5  C   UNL     1     -45.033 -54.411  14.285  1.00  0.00     0.219 C 
HETATM    6  N   UNL     1     -45.480 -53.290  14.956  1.00  0.00    -0.357 N 
HETATM    7  H   UNL     1     -44.770 -52.746  15.431  1.00  0.00     0.162 HD
HETATM    8  O   UNL     1     -45.659 -54.980  13.398  1.00  0.00    -0.274 OA
BRANCH   6   9
HETATM    9  C   UNL     1     -46.706 -52.605  14.576  1.00  0.00     0.076 C 
HETATM   10  C   UNL     1     -47.279 -51.870  15.783  1.00  0.00     0.032 C 
HETATM   11  C   UNL     1     -46.443 -51.634  13.426  1.00  0.00     0.032 C 
ENDBRANCH   6   9
ENDBRANCH   4   5
ENDBRANCH   3   4
ENDBRANCH   1   3
BRANCH   1  12
HETATM   12  C   UNL     1     -42.495 -52.491  12.286  1.00  0.00     0.236 C 
HETATM   13  C   UNL     1     -42.780 -51.432  13.356  1.00  0.00     0.044 C 
BRANCH  12  14
HETATM   14  C   UNL     1     -40.961 -52.642  12.147  1.00  0.00     0.183 C 
BRANCH  14  15
HETATM   15  N   UNL     1     -40.255 -51.374  12.143  1.00  0.00    -0.301 N 
HETATM   16  C   UNL     1     -39.355 -50.935  13.074  1.00  0.00     0.118 A 
HETATM   17  C   UNL     1     -38.880 -49.725  12.615  1.00  0.00    -0.028 A 
HETATM   18  C   UNL     1     -37.876 -48.835  13.236  1.00  0.00     0.051 C 
HETATM   19  C   UNL     1     -39.578 -49.521  11.402  1.00  0.00     0.115 A 
HETATM   20  N   UNL     1     -40.412 -50.522  11.113  1.00  0.00    -0.310 N 
ATOM     21  HN  UNL     1     -41.026 -50.617  10.303  1.00  0.00     0.186 HD
ENDBRANCH  14  15
ENDBRANCH  12  14
ENDBRANCH   1  12
TORSDOF 7
ENDMDL
MODEL 4
REMARK VINA RESULT:      -5.4      2.376      6.287
REMARK  7 active torsions:
REMARK  status: ('A' for Active; 'I' for Inactive)
REMARK    1  A    between atoms: C_2  and  N_4 
REMARK       I    between atoms: N_4  and  C_5 
REMARK    2  A    between atoms: C_5  and  C_7 
REMARK    3  A    between atoms: C_7  and  C_8 
REMARK    4  A    between atoms: C_8  and  N_9 
REMARK    5  A    between atoms: N_9  and  C_10 
REMARK    6  A    between atoms: C_10  and  C_12 
REMARK    7  A    between atoms: C_12  and  N_13 
ROOT
HETATM    1  N   UNL     1     -44.419 -50.349  12.623  1.00  0.00     0.089 N 
HETATM    2  H   UNL     1     -44.065 -50.700  11.727  1.00  0.00     0.316 HD
ENDROOT
BRANCH   1   3
HETATM    3  C   UNL     1     -43.339 -49.591  13.270  1.00  0.00     0.279 C 
BRANCH   3   4
HETATM    4  C   UNL     1     -42.346 -49.044  12.247  1.00  0.00     0.132 C 
BRANCH   4   5
HETATM    5  C   UNL     1     -42.959 -47.929  11.424  1.00  0.00     0.219 C 
HETATM    6  N   UNL     1     -43.181 -48.277  10.107  1.00  0.00    -0.357 N 
HETATM    7  H   UNL     1     -43.213 -49.270   9.911  1.00  0.00     0.162 HD
HETATM    8  O   UNL     1     -43.223 -46.831  11.901  1.00  0.00    -0.274 OA
BRANCH   6   9
HETATM    9  C   UNL     1     -43.871 -47.391   9.183  1.00  0.00     0.076 C 
HETATM   10  C   UNL     1     -43.472 -47.730   7.750  1.00  0.00     0.032 C 
HETATM   11  C   UNL     1     -45.384 -47.500   9.364  1.00  0.00     0.032 C 
ENDBRANCH   6   9
ENDBRANCH   4   5
ENDBRANCH   3   4
ENDBRANCH   1   3
BRANCH   1  12
HETATM   12  C   UNL     1     -44.854 -51.535  13.403  1.00  0.00     0.236 C 
HETATM   13  C   UNL     1     -46.371 -51.585  13.612  1.00  0.00     0.044 C 
BRANCH  12  14
HETATM   14  C   UNL     1     -44.418 -52.837  12.688  1.00  0.00     0.183 C 
BRANCH  14  15
HETATM   15  N   UNL     1     -42.982 -53.045  12.694  1.00  0.00    -0.301 N 
HETATM   16  C   UNL     1     -42.258 -53.728  13.631  1.00  0.00     0.118 A 
HETATM   17  C   UNL     1     -40.954 -53.742  13.181  1.00  0.00    -0.028 A 
HETATM   18  C   UNL     1     -39.769 -54.361  13.812  1.00  0.00     0.051 C 
HETATM   19  C   UNL     1     -41.004 -53.019  11.967  1.00  0.00     0.115 A 
HETATM   20  N   UNL     1     -42.234 -52.596  11.669  1.00  0.00    -0.310 N 
ATOM     21  HN  UNL     1     -42.536 -52.058  10.856  1.00  0.00     0.186 HD
ENDBRANCH  14  15
ENDBRANCH  12  14
ENDBRANCH   1  12
TORSDOF 7
ENDMDL
MODEL 5
REMARK VINA RESULT:      -5.4      2.360      3.173
REMARK  7 active torsions:
REMARK  status: ('A' for Active; 'I' for Inactive)
REMARK    1  A    between atoms: C_2  and  N_4 
REMARK       I    between atoms: N_4  and  C_5 
REMARK    2  A    between atoms: C_5  and  C_7 
REMARK    3  A    between atoms: C_7  and  C_8 
REMARK    4  A    between atoms: C_8  and  N_9 
REMARK    5  A    between atoms: N_9  and  C_10 
REMARK    6  A    between atoms: C_10  and  C_12 
REMARK    7  A    between atoms: C_12  and  N_13 
ROOT
HETATM    1  N   UNL     1     -41.785 -50.690  11.590  1.00  0.00     0.089 N 
HETATM    2  H   UNL     1     -42.349 -50.867  10.753  1.00  0.00     0.316 HD
ENDROOT
BRANCH   1   3
HETATM    3  C   UNL     1     -42.300 -51.544  12.669  1.00  0.00     0.279 C 
BRANCH   3   4
HETATM    4  C   UNL     1     -42.700 -52.923  12.151  1.00  0.00     0.132 C 
BRANCH   4   5
HETATM    5  C   UNL     1     -44.151 -53.231  12.463  1.00  0.00     0.219 C 
HETATM    6  N   UNL     1     -44.932 -52.103  12.611  1.00  0.00    -0.357 N 
HETATM    7  H   UNL     1     -44.561 -51.252  12.206  1.00  0.00     0.162 HD
HETATM    8  O   UNL     1     -44.568 -54.379  12.571  1.00  0.00    -0.274 OA
BRANCH   6   9
HETATM    9  C   UNL     1     -46.373 -52.184  12.793  1.00  0.00     0.076 C 
HETATM   10  C   UNL     1     -46.778 -51.412  14.044  1.00  0.00     0.032 C 
HETATM   11  C   UNL     1     -47.101 -51.641  11.564  1.00  0.00     0.032 C 
ENDBRANCH   6   9
ENDBRANCH   4   5
ENDBRANCH   3   4
ENDBRANCH   1   3
BRANCH   1  12
HETATM   12  C   UNL     1     -41.902 -49.239  11.883  1.00  0.00     0.236 C 
HETATM   13  C   UNL     1     -42.883 -48.940  13.022  1.00  0.00     0.044 C 
BRANCH  12  14
HETATM   14  C   UNL     1     -40.521 -48.654  12.264  1.00  0.00     0.183 C 
BRANCH  14  15
HETATM   15  N   UNL     1     -40.366 -47.258  11.898  1.00  0.00    -0.301 N 
HETATM   16  C   UNL     1     -40.145 -46.210  12.748  1.00  0.00     0.118 A 
HETATM   17  C   UNL     1     -39.976 -45.095  11.954  1.00  0.00    -0.028 A 
HETATM   18  C   UNL     1     -39.697 -43.703  12.368  1.00  0.00     0.051 C 
HETATM   19  C   UNL     1     -40.134 -45.586  10.637  1.00  0.00     0.115 A 
HETATM   20  N   UNL     1     -40.370 -46.898  10.602  1.00  0.00    -0.310 N 
ATOM     21  HN  UNL     1     -40.518 -47.490   9.784  1.00  0.00     0.186 HD
ENDBRANCH  14  15
ENDBRANCH  12  14
ENDBRANCH   1  12
TORSDOF 7
ENDMDL
MODEL 6
REMARK VINA RESULT:      -5.4      3.426      6.358
REMARK  7 active torsions:
REMARK  status: ('A' for Active; 'I' for Inactive)
REMARK    1  A    between atoms: C_2  and  N_4 
REMARK       I    between atoms: N_4  and  C_5 
REMARK    2  A    between atoms: C_5  and  C_7 
REMARK    3  A    between atoms: C_7  and  C_8 
REMARK    4  A    between atoms: C_8  and  N_9 
REMARK    5  A    between atoms: N_9  and  C_10 
REMARK    6  A    between atoms: C_10  and  C_12 
REMARK    7  A    between atoms: C_12  and  N_13 
ROOT
HETATM    1  N   UNL     1     -39.182 -48.242  11.114  1.00  0.00     0.089 N 
HETATM    2  H   UNL     1     -38.559 -47.671  11.695  1.00  0.00     0.316 HD
ENDROOT
BRANCH   1   3
HETATM    3  C   UNL     1     -40.561 -47.802  11.364  1.00  0.00     0.279 C 
BRANCH   3   4
HETATM    4  C   UNL     1     -40.721 -46.301  11.138  1.00  0.00     0.132 C 
BRANCH   4   5
HETATM    5  C   UNL     1     -41.914 -45.999  10.254  1.00  0.00     0.219 C 
HETATM    6  N   UNL     1     -42.359 -47.093   9.540  1.00  0.00    -0.357 N 
HETATM    7  H   UNL     1     -42.074 -47.998   9.893  1.00  0.00     0.162 HD
HETATM    8  O   UNL     1     -42.418 -44.883  10.192  1.00  0.00    -0.274 OA
BRANCH   6   9
HETATM    9  C   UNL     1     -43.564 -47.042   8.726  1.00  0.00     0.076 C 
HETATM   10  C   UNL     1     -43.429 -47.999   7.547  1.00  0.00     0.032 C 
HETATM   11  C   UNL     1     -44.793 -47.387   9.566  1.00  0.00     0.032 C 
ENDBRANCH   6   9
ENDBRANCH   4   5
ENDBRANCH   3   4
ENDBRANCH   1   3
BRANCH   1  12
HETATM   12  C   UNL     1     -38.939 -49.657  11.495  1.00  0.00     0.236 C 
HETATM   13  C   UNL     1     -37.454 -49.965  11.714  1.00  0.00     0.044 C 
BRANCH  12  14
HETATM   14  C   UNL     1     -39.705 -50.004  12.793  1.00  0.00     0.183 C 
BRANCH  14  15
HETATM   15  N   UNL     1     -40.479 -51.228  12.696  1.00  0.00    -0.301 N 
HETATM   16  C   UNL     1     -40.704 -52.135  13.695  1.00  0.00     0.118 A 
HETATM   17  C   UNL     1     -41.558 -53.083  13.173  1.00  0.00    -0.028 A 
HETATM   18  C   UNL     1     -42.126 -54.276  13.837  1.00  0.00     0.051 C 
HETATM   19  C   UNL     1     -41.770 -52.657  11.841  1.00  0.00     0.115 A 
HETATM   20  N   UNL     1     -41.116 -51.531  11.550  1.00  0.00    -0.310 N 
ATOM     21  HN  UNL     1     -41.102 -51.020  10.667  1.00  0.00     0.186 HD
ENDBRANCH  14  15
ENDBRANCH  12  14
ENDBRANCH   1  12
TORSDOF 7
ENDMDL
MODEL 7
REMARK VINA RESULT:      -5.3      3.043      6.216
REMARK  7 active torsions:
REMARK  status: ('A' for Active; 'I' for Inactive)
REMARK    1  A    between atoms: C_2  and  N_4 
REMARK       I    between atoms: N_4  and  C_5 
REMARK    2  A    between atoms: C_5  and  C_7 
REMARK    3  A    between atoms: C_7  and  C_8 
REMARK    4  A    between atoms: C_8  and  N_9 
REMARK    5  A    between atoms: N_9  and  C_10 
REMARK    6  A    between atoms: C_10  and  C_12 
REMARK    7  A    between atoms: C_12  and  N_13 
ROOT
HETATM    1  N   UNL     1     -41.236 -51.970  11.500  1.00  0.00     0.089 N 
HETATM    2  H   UNL     1     -40.572 -52.749  11.547  1.00  0.00     0.316 HD
ENDROOT
BRANCH   1   3
HETATM    3  C   UNL     1     -40.590 -50.792  12.094  1.00  0.00     0.279 C 
BRANCH   3   4
HETATM    4  C   UNL     1     -40.106 -49.816  11.025  1.00  0.00     0.132 C 
BRANCH   4   5
HETATM    5  C   UNL     1     -40.884 -48.517  11.068  1.00  0.00     0.219 C 
HETATM    6  N   UNL     1     -40.079 -47.396  11.102  1.00  0.00    -0.357 N 
HETATM    7  H   UNL     1     -39.125 -47.526  10.789  1.00  0.00     0.162 HD
HETATM    8  O   UNL     1     -42.109 -48.487  11.074  1.00  0.00    -0.274 OA
BRANCH   6   9
HETATM    9  C   UNL     1     -40.630 -46.051  11.025  1.00  0.00     0.076 C 
HETATM   10  C   UNL     1     -40.835 -45.498  12.431  1.00  0.00     0.032 C 
HETATM   11  C   UNL     1     -39.710 -45.140  10.214  1.00  0.00     0.032 C 
ENDBRANCH   6   9
ENDBRANCH   4   5
ENDBRANCH   3   4
ENDBRANCH   1   3
BRANCH   1  12
HETATM   12  C   UNL     1     -42.453 -52.404  12.230  1.00  0.00     0.236 C 
HETATM   13  C   UNL     1     -42.226 -53.668  13.066  1.00  0.00     0.044 C 
BRANCH  12  14
HETATM   14  C   UNL     1     -42.945 -51.279  13.172  1.00  0.00     0.183 C 
BRANCH  14  15
HETATM   15  N   UNL     1     -44.340 -51.410  13.548  1.00  0.00    -0.301 N 
HETATM   16  C   UNL     1     -44.854 -51.366  14.815  1.00  0.00     0.118 A 
HETATM   17  C   UNL     1     -46.224 -51.446  14.681  1.00  0.00    -0.028 A 
HETATM   18  C   UNL     1     -47.255 -51.427  15.741  1.00  0.00     0.051 C 
HETATM   19  C   UNL     1     -46.426 -51.553  13.286  1.00  0.00     0.115 A 
HETATM   20  N   UNL     1     -45.284 -51.532  12.597  1.00  0.00    -0.310 N 
ATOM     21  HN  UNL     1     -45.157 -51.592  11.586  1.00  0.00     0.186 HD
ENDBRANCH  14  15
ENDBRANCH  12  14
ENDBRANCH   1  12
TORSDOF 7
ENDMDL
MODEL 8
REMARK VINA RESULT:      -5.2      2.724      3.946
REMARK  7 active torsions:
REMARK  status: ('A' for Active; 'I' for Inactive)
REMARK    1  A    between atoms: C_2  and  N_4 
REMARK       I    between atoms: N_4  and  C_5 
REMARK    2  A    between atoms: C_5  and  C_7 
REMARK    3  A    between atoms: C_7  and  C_8 
REMARK    4  A    between atoms: C_8  and  N_9 
REMARK    5  A    between atoms: N_9  and  C_10 
REMARK    6  A    between atoms: C_10  and  C_12 
REMARK    7  A    between atoms: C_12  and  N_13 
ROOT
HETATM    1  N   UNL     1     -40.544 -53.879  12.848  1.00  0.00     0.089 N 
HETATM    2  H   UNL     1     -40.444 -53.211  12.077  1.00  0.00     0.316 HD
ENDROOT
BRANCH   1   3
HETATM    3  C   UNL     1     -41.980 -54.121  13.050  1.00  0.00     0.279 C 
BRANCH   3   4
HETATM    4  C   UNL     1     -42.833 -53.152  12.236  1.00  0.00     0.132 C 
BRANCH   4   5
HETATM    5  C   UNL     1     -44.310 -53.357  12.503  1.00  0.00     0.219 C 
HETATM    6  N   UNL     1     -45.028 -52.179  12.556  1.00  0.00    -0.357 N 
HETATM    7  H   UNL     1     -44.591 -51.376  12.122  1.00  0.00     0.162 HD
HETATM    8  O   UNL     1     -44.800 -54.471  12.656  1.00  0.00    -0.274 OA
BRANCH   6   9
HETATM    9  C   UNL     1     -46.477 -52.166  12.682  1.00  0.00     0.076 C 
HETATM   10  C   UNL     1     -46.876 -51.432  13.958  1.00  0.00     0.032 C 
HETATM   11  C   UNL     1     -47.116 -51.512  11.458  1.00  0.00     0.032 C 
ENDBRANCH   6   9
ENDBRANCH   4   5
ENDBRANCH   3   4
ENDBRANCH   1   3
BRANCH   1  12
HETATM   12  C   UNL     1     -39.879 -53.271  14.028  1.00  0.00     0.236 C 
HETATM   13  C   UNL     1     -38.909 -54.232  14.724  1.00  0.00     0.044 C 
BRANCH  12  14
HETATM   14  C   UNL     1     -39.094 -52.005  13.610  1.00  0.00     0.183 C 
BRANCH  14  15
HETATM   15  N   UNL     1     -39.888 -51.060  12.846  1.00  0.00    -0.301 N 
HETATM   16  C   UNL     1     -40.935 -50.311  13.306  1.00  0.00     0.118 A 
HETATM   17  C   UNL     1     -41.322 -49.500  12.260  1.00  0.00    -0.028 A 
HETATM   18  C   UNL     1     -42.400 -48.489  12.229  1.00  0.00     0.051 C 
HETATM   19  C   UNL     1     -40.448 -49.858  11.208  1.00  0.00     0.115 A 
HETATM   20  N   UNL     1     -39.576 -50.805  11.562  1.00  0.00    -0.310 N 
ATOM     21  HN  UNL     1     -38.846 -51.233  10.993  1.00  0.00     0.186 HD
ENDBRANCH  14  15
ENDBRANCH  12  14
ENDBRANCH   1  12
TORSDOF 7
ENDMDL
MODEL 9
REMARK VINA RESULT:      -5.1      2.437      5.955
REMARK  7 active torsions:
REMARK  status: ('A' for Active; 'I' for Inactive)
REMARK    1  A    between atoms: C_2  and  N_4 
REMARK       I    between atoms: N_4  and  C_5 
REMARK    2  A    between atoms: C_5  and  C_7 
REMARK    3  A    between atoms: C_7  and  C_8 
REMARK    4  A    between atoms: C_8  and  N_9 
REMARK    5  A    between atoms: N_9  and  C_10 
REMARK    6  A    between atoms: C_10  and  C_12 
REMARK    7  A    between atoms: C_12  and  N_13 
ROOT
HETATM    1  N   UNL     1     -42.555 -50.336  12.022  1.00  0.00     0.089 N 
HETATM    2  H   UNL     1     -42.383 -49.889  11.116  1.00  0.00     0.316 HD
ENDROOT
BRANCH   1   3
HETATM    3  C   UNL     1     -42.414 -49.309  13.064  1.00  0.00     0.279 C 
BRANCH   3   4
HETATM    4  C   UNL     1     -42.863 -47.938  12.567  1.00  0.00     0.132 C 
BRANCH   4   5
HETATM    5  C   UNL     1     -43.006 -47.916  11.059  1.00  0.00     0.219 C 
HETATM    6  N   UNL     1     -44.282 -47.608  10.633  1.00  0.00    -0.357 N 
HETATM    7  H   UNL     1     -44.875 -47.142  11.310  1.00  0.00     0.162 HD
HETATM    8  O   UNL     1     -42.067 -48.154  10.308  1.00  0.00    -0.274 OA
BRANCH   6   9
HETATM    9  C   UNL     1     -44.599 -47.418   9.226  1.00  0.00     0.076 C 
HETATM   10  C   UNL     1     -46.038 -47.846   8.959  1.00  0.00     0.032 C 
HETATM   11  C   UNL     1     -44.384 -45.961   8.819  1.00  0.00     0.032 C 
ENDBRANCH   6   9
ENDBRANCH   4   5
ENDBRANCH   3   4
ENDBRANCH   1   3
BRANCH   1  12
HETATM   12  C   UNL     1     -41.570 -51.439  12.147  1.00  0.00     0.236 C 
HETATM   13  C   UNL     1     -40.119 -50.945  12.128  1.00  0.00     0.044 C 
BRANCH  12  14
HETATM   14  C   UNL     1     -41.801 -52.220  13.462  1.00  0.00     0.183 C 
BRANCH  14  15
HETATM   15  N   UNL     1     -43.010 -53.023  13.452  1.00  0.00    -0.301 N 
HETATM   16  C   UNL     1     -43.882 -53.202  14.490  1.00  0.00     0.118 A 
HETATM   17  C   UNL     1     -44.922 -53.963  13.997  1.00  0.00    -0.028 A 
HETATM   18  C   UNL     1     -46.134 -54.430  14.701  1.00  0.00     0.051 C 
HETATM   19  C   UNL     1     -44.562 -54.202  12.650  1.00  0.00     0.115 A 
HETATM   20  N   UNL     1     -43.403 -53.631  12.318  1.00  0.00    -0.310 N 
ATOM     21  HN  UNL     1     -42.926 -53.652  11.415  1.00  0.00     0.186 HD
ENDBRANCH  14  15
ENDBRANCH  12  14
ENDBRANCH   1  12
TORSDOF 7
ENDMDL
