MODEL 1
REMARK VINA RESULT:      -6.8      0.000      0.000
REMARK  7 active torsions:
REMARK  status: ('A' for Active; 'I' for Inactive)
REMARK    1  A    between atoms: N_11  and  C_12 
REMARK    2  A    between atoms: C_12  and  C_13 
REMARK    3  A    between atoms: C_13  and  O_14 
REMARK    4  A    between atoms: C_13  and  C_15 
REMARK    5  A    between atoms: C_15  and  O_16 
REMARK    6  A    between atoms: O_16  and  C_17 
REMARK    7  A    between atoms: C_20  and  C_21 
ROOT
HETATM    1  C   UNL     1     -47.418 -51.191  16.238  1.00  0.00     0.162 C 
HETATM    2  C   UNL     1     -47.177 -51.881  17.512  1.00  0.00     0.063 C 
HETATM    3  N   UNL     1     -47.010 -52.412  18.533  1.00  0.00    -0.197 NA
ENDROOT
BRANCH   1   4
HETATM    4  C   UNL     1     -46.440 -51.582  15.155  1.00  0.00    -0.045 A 
HETATM    5  C   UNL     1     -45.142 -51.999  15.482  1.00  0.00     0.011 A 
HETATM    6  C   UNL     1     -44.250 -52.382  14.478  1.00  0.00     0.037 A 
HETATM    7  C   UNL     1     -44.639 -52.367  13.139  1.00  0.00     0.068 A 
HETATM    8  C   UNL     1     -45.913 -51.915  12.802  1.00  0.00     0.037 A 
HETATM    9  C   UNL     1     -46.807 -51.521  13.804  1.00  0.00     0.011 A 
BRANCH   7  10
HETATM   10  O   UNL     1     -43.683 -52.768  12.246  1.00  0.00    -0.349 OA
BRANCH  10  11
HETATM   11  C   UNL     1     -42.407 -53.114  12.805  1.00  0.00     0.209 C 
BRANCH  11  12
HETATM   12  C   UNL     1     -41.318 -52.421  11.970  1.00  0.00     0.160 C 
BRANCH  12  13
HETATM   13  C   UNL     1     -40.465 -51.499  12.852  1.00  0.00     0.164 C 
BRANCH  13  14
HETATM   14  N   UNL     1     -40.232 -50.187  12.270  1.00  0.00    -0.332 N 
HETATM   15  C   UNL     1     -39.029 -49.704  11.800  1.00  0.00     0.080 A 
HETATM   16  C   UNL     1     -37.739 -50.433  11.895  1.00  0.00     0.089 C 
HETATM   17  N   UNL     1     -39.184 -48.519  11.248  1.00  0.00    -0.344 N 
HETATM   18  C   UNL     1     -40.517 -48.223  11.359  1.00  0.00     0.060 A 
ATOM     19  HN  UNL     1     -38.460 -47.939  10.824  1.00  0.00     0.167 HD
HETATM   20  C   UNL     1     -41.218 -47.088  10.923  1.00  0.00     0.032 A 
HETATM   21  C   UNL     1     -41.205 -49.250  11.999  1.00  0.00     0.062 A 
HETATM   22  C   UNL     1     -42.597 -47.017  11.150  1.00  0.00     0.002 A 
HETATM   23  C   UNL     1     -43.266 -48.053  11.802  1.00  0.00     0.002 A 
HETATM   24  C   UNL     1     -42.584 -49.195  12.239  1.00  0.00     0.032 A 
ENDBRANCH  13  14
ENDBRANCH  12  13
BRANCH  12  25
HETATM   25  O   UNL     1     -40.509 -53.428  11.351  1.00  0.00    -0.392 OA
HETATM   26  H   UNL     1     -40.586 -54.235  11.892  1.00  0.00     0.210 HD
ENDBRANCH  12  25
ENDBRANCH  11  12
ENDBRANCH  10  11
ENDBRANCH   7  10
ENDBRANCH   1   4
TORSDOF 7
ENDMDL
MODEL 2
REMARK VINA RESULT:      -6.7      2.416      4.348
REMARK  7 active torsions:
REMARK  status: ('A' for Active; 'I' for Inactive)
REMARK    1  A    between atoms: N_11  and  C_12 
REMARK    2  A    between atoms: C_12  and  C_13 
REMARK    3  A    between atoms: C_13  and  O_14 
REMARK    4  A    between atoms: C_13  and  C_15 
REMARK    5  A    between atoms: C_15  and  O_16 
REMARK    6  A    between atoms: O_16  and  C_17 
REMARK    7  A    between atoms: C_20  and  C_21 
ROOT
HETATM    1  C   UNL     1     -47.348 -51.854  16.087  1.00  0.00     0.162 C 
HETATM    2  C   UNL     1     -47.778 -50.995  17.198  1.00  0.00     0.063 C 
HETATM    3  N   UNL     1     -48.141 -50.334  18.083  1.00  0.00    -0.197 NA
ENDROOT
BRANCH   1   4
HETATM    4  C   UNL     1     -46.115 -51.340  15.380  1.00  0.00    -0.045 A 
HETATM    5  C   UNL     1     -44.993 -50.930  16.111  1.00  0.00     0.011 A 
HETATM    6  C   UNL     1     -43.847 -50.478  15.451  1.00  0.00     0.037 A 
HETATM    7  C   UNL     1     -43.799 -50.442  14.057  1.00  0.00     0.068 A 
HETATM    8  C   UNL     1     -44.925 -50.809  13.324  1.00  0.00     0.037 A 
HETATM    9  C   UNL     1     -46.078 -51.252  13.982  1.00  0.00     0.011 A 
BRANCH   7  10
HETATM   10  O   UNL     1     -42.624 -49.987  13.523  1.00  0.00    -0.349 OA
BRANCH  10  11
HETATM   11  C   UNL     1     -42.366 -50.363  12.162  1.00  0.00     0.209 C 
BRANCH  11  12
HETATM   12  C   UNL     1     -40.930 -50.908  12.084  1.00  0.00     0.160 C 
BRANCH  12  13
HETATM   13  C   UNL     1     -40.935 -52.443  12.077  1.00  0.00     0.164 C 
BRANCH  13  14
HETATM   14  N   UNL     1     -41.370 -53.030  13.334  1.00  0.00    -0.332 N 
HETATM   15  C   UNL     1     -40.687 -52.997  14.531  1.00  0.00     0.080 A 
HETATM   16  C   UNL     1     -39.332 -52.415  14.707  1.00  0.00     0.089 C 
HETATM   17  N   UNL     1     -41.404 -53.537  15.494  1.00  0.00    -0.344 N 
HETATM   18  C   UNL     1     -42.580 -53.931  14.913  1.00  0.00     0.060 A 
ATOM     19  HN  UNL     1     -41.138 -53.642  16.474  1.00  0.00     0.167 HD
HETATM   20  C   UNL     1     -43.698 -54.551  15.492  1.00  0.00     0.032 A 
HETATM   21  C   UNL     1     -42.591 -53.630  13.554  1.00  0.00     0.062 A 
HETATM   22  C   UNL     1     -44.798 -54.855  14.682  1.00  0.00     0.002 A 
HETATM   23  C   UNL     1     -44.785 -54.552  13.320  1.00  0.00     0.002 A 
HETATM   24  C   UNL     1     -43.681 -53.930  12.727  1.00  0.00     0.032 A 
ENDBRANCH  13  14
ENDBRANCH  12  13
BRANCH  12  25
HETATM   25  O   UNL     1     -40.311 -50.393  10.899  1.00  0.00    -0.392 OA
HETATM   26  H   UNL     1     -39.347 -50.451  11.027  1.00  0.00     0.210 HD
ENDBRANCH  12  25
ENDBRANCH  11  12
ENDBRANCH  10  11
ENDBRANCH   7  10
ENDBRANCH   1   4
TORSDOF 7
ENDMDL
MODEL 3
REMARK VINA RESULT:      -6.6      3.278      4.284
REMARK  7 active torsions:
REMARK  status: ('A' for Active; 'I' for Inactive)
REMARK    1  A    between atoms: N_11  and  C_12 
REMARK    2  A    between atoms: C_12  and  C_13 
REMARK    3  A    between atoms: C_13  and  O_14 
REMARK    4  A    between atoms: C_13  and  C_15 
REMARK    5  A    between atoms: C_15  and  O_16 
REMARK    6  A    between atoms: O_16  and  C_17 
REMARK    7  A    between atoms: C_20  and  C_21 
ROOT
HETATM    1  C   UNL     1     -47.771 -51.419  16.882  1.00  0.00     0.162 C 
HETATM    2  C   UNL     1     -47.358 -52.041  18.147  1.00  0.00     0.063 C 
HETATM    3  N   UNL     1     -47.052 -52.516  19.163  1.00  0.00    -0.197 NA
ENDROOT
BRANCH   1   4
HETATM    4  C   UNL     1     -47.038 -51.970  15.681  1.00  0.00    -0.045 A 
HETATM    5  C   UNL     1     -46.522 -53.273  15.696  1.00  0.00     0.011 A 
HETATM    6  C   UNL     1     -45.867 -53.785  14.574  1.00  0.00     0.037 A 
HETATM    7  C   UNL     1     -45.727 -53.014  13.420  1.00  0.00     0.068 A 
HETATM    8  C   UNL     1     -46.200 -51.704  13.411  1.00  0.00     0.037 A 
HETATM    9  C   UNL     1     -46.848 -51.183  14.536  1.00  0.00     0.011 A 
BRANCH   7  10
HETATM   10  O   UNL     1     -45.073 -53.623  12.384  1.00  0.00    -0.349 OA
BRANCH  10  11
HETATM   11  C   UNL     1     -43.707 -53.987  12.631  1.00  0.00     0.209 C 
BRANCH  11  12
HETATM   12  C   UNL     1     -42.852 -52.711  12.553  1.00  0.00     0.160 C 
BRANCH  12  13
HETATM   13  C   UNL     1     -41.828 -52.675  13.695  1.00  0.00     0.164 C 
BRANCH  13  14
HETATM   14  N   UNL     1     -42.430 -52.653  15.018  1.00  0.00    -0.332 N 
HETATM   15  C   UNL     1     -42.433 -53.686  15.931  1.00  0.00     0.080 A 
HETATM   16  C   UNL     1     -41.880 -55.039  15.668  1.00  0.00     0.089 C 
HETATM   17  N   UNL     1     -42.979 -53.304  17.068  1.00  0.00    -0.344 N 
HETATM   18  C   UNL     1     -43.339 -51.994  16.891  1.00  0.00     0.060 A 
ATOM     19  HN  UNL     1     -43.107 -53.869  17.908  1.00  0.00     0.167 HD
HETATM   20  C   UNL     1     -43.949 -51.108  17.792  1.00  0.00     0.032 A 
HETATM   21  C   UNL     1     -43.011 -51.554  15.612  1.00  0.00     0.062 A 
HETATM   22  C   UNL     1     -44.217 -49.799  17.376  1.00  0.00     0.002 A 
HETATM   23  C   UNL     1     -43.888 -49.380  16.086  1.00  0.00     0.002 A 
HETATM   24  C   UNL     1     -43.275 -50.250  15.176  1.00  0.00     0.032 A 
ENDBRANCH  13  14
ENDBRANCH  12  13
BRANCH  12  25
HETATM   25  O   UNL     1     -42.198 -52.679  11.278  1.00  0.00    -0.392 OA
HETATM   26  H   UNL     1     -42.892 -52.602  10.598  1.00  0.00     0.210 HD
ENDBRANCH  12  25
ENDBRANCH  11  12
ENDBRANCH  10  11
ENDBRANCH   7  10
ENDBRANCH   1   4
TORSDOF 7
ENDMDL
MODEL 4
REMARK VINA RESULT:      -6.5      2.616      6.383
REMARK  7 active torsions:
REMARK  status: ('A' for Active; 'I' for Inactive)
REMARK    1  A    between atoms: N_11  and  C_12 
REMARK    2  A    between atoms: C_12  and  C_13 
REMARK    3  A    between atoms: C_13  and  O_14 
REMARK    4  A    between atoms: C_13  and  C_15 
REMARK    5  A    between atoms: C_15  and  O_16 
REMARK    6  A    between atoms: O_16  and  C_17 
REMARK    7  A    between atoms: C_20  and  C_21 
ROOT
HETATM    1  C   UNL     1     -39.576 -52.032  14.811  1.00  0.00     0.162 C 
HETATM    2  C   UNL     1     -39.136 -51.583  13.483  1.00  0.00     0.063 C 
HETATM    3  N   UNL     1     -38.765 -51.213  12.445  1.00  0.00    -0.197 NA
ENDROOT
BRANCH   1   4
HETATM    4  C   UNL     1     -40.794 -52.925  14.764  1.00  0.00    -0.045 A 
HETATM    5  C   UNL     1     -41.635 -53.044  15.878  1.00  0.00     0.011 A 
HETATM    6  C   UNL     1     -42.773 -53.852  15.821  1.00  0.00     0.037 A 
HETATM    7  C   UNL     1     -43.096 -54.541  14.651  1.00  0.00     0.068 A 
HETATM    8  C   UNL     1     -42.243 -54.461  13.552  1.00  0.00     0.037 A 
HETATM    9  C   UNL     1     -41.097 -53.661  13.609  1.00  0.00     0.011 A 
BRANCH   7  10
HETATM   10  O   UNL     1     -44.235 -55.296  14.712  1.00  0.00    -0.349 OA
BRANCH  10  11
HETATM   11  C   UNL     1     -45.314 -54.874  13.865  1.00  0.00     0.209 C 
BRANCH  11  12
HETATM   12  C   UNL     1     -46.432 -54.316  14.762  1.00  0.00     0.160 C 
BRANCH  12  13
HETATM   13  C   UNL     1     -46.816 -52.895  14.326  1.00  0.00     0.164 C 
BRANCH  13  14
HETATM   14  N   UNL     1     -46.039 -51.855  14.982  1.00  0.00    -0.332 N 
HETATM   15  C   UNL     1     -46.235 -51.371  16.258  1.00  0.00     0.080 A 
HETATM   16  C   UNL     1     -47.347 -51.787  17.150  1.00  0.00     0.089 C 
HETATM   17  N   UNL     1     -45.298 -50.503  16.578  1.00  0.00    -0.344 N 
HETATM   18  C   UNL     1     -44.472 -50.421  15.488  1.00  0.00     0.060 A 
ATOM     19  HN  UNL     1     -45.205 -49.996  17.459  1.00  0.00     0.167 HD
HETATM   20  C   UNL     1     -43.313 -49.652  15.303  1.00  0.00     0.032 A 
HETATM   21  C   UNL     1     -44.911 -51.256  14.465  1.00  0.00     0.062 A 
HETATM   22  C   UNL     1     -42.628 -49.742  14.086  1.00  0.00     0.002 A 
HETATM   23  C   UNL     1     -43.090 -50.579  13.070  1.00  0.00     0.002 A 
HETATM   24  C   UNL     1     -44.242 -51.357  13.239  1.00  0.00     0.032 A 
ENDBRANCH  13  14
ENDBRANCH  12  13
BRANCH  12  25
HETATM   25  O   UNL     1     -47.560 -55.196  14.684  1.00  0.00    -0.392 OA
HETATM   26  H   UNL     1     -48.094 -55.054  15.487  1.00  0.00     0.210 HD
ENDBRANCH  12  25
ENDBRANCH  11  12
ENDBRANCH  10  11
ENDBRANCH   7  10
ENDBRANCH   1   4
TORSDOF 7
ENDMDL
MODEL 5
REMARK VINA RESULT:      -6.4      3.294      6.166
REMARK  7 active torsions:
REMARK  status: ('A' for Active; 'I' for Inactive)
REMARK    1  A    between atoms: N_11  and  C_12 
REMARK    2  A    between atoms: C_12  and  C_13 
REMARK    3  A    between atoms: C_13  and  O_14 
REMARK    4  A    between atoms: C_13  and  C_15 
REMARK    5  A    between atoms: C_15  and  O_16 
REMARK    6  A    between atoms: O_16  and  C_17 
REMARK    7  A    between atoms: C_20  and  C_21 
ROOT
HETATM    1  C   UNL     1     -39.801 -54.724  16.009  1.00  0.00     0.162 C 
HETATM    2  C   UNL     1     -39.532 -56.072  16.528  1.00  0.00     0.063 C 
HETATM    3  N   UNL     1     -39.293 -57.128  16.952  1.00  0.00    -0.197 NA
ENDROOT
BRANCH   1   4
HETATM    4  C   UNL     1     -41.097 -54.631  15.238  1.00  0.00    -0.045 A 
HETATM    5  C   UNL     1     -41.114 -54.133  13.929  1.00  0.00     0.011 A 
HETATM    6  C   UNL     1     -42.312 -54.072  13.213  1.00  0.00     0.037 A 
HETATM    7  C   UNL     1     -43.505 -54.517  13.784  1.00  0.00     0.068 A 
HETATM    8  C   UNL     1     -43.503 -54.975  15.100  1.00  0.00     0.037 A 
HETATM    9  C   UNL     1     -42.307 -55.028  15.824  1.00  0.00     0.011 A 
BRANCH   7  10
HETATM   10  O   UNL     1     -44.611 -54.413  12.987  1.00  0.00    -0.349 OA
BRANCH  10  11
HETATM   11  C   UNL     1     -44.714 -53.212  12.208  1.00  0.00     0.209 C 
BRANCH  11  12
HETATM   12  C   UNL     1     -46.051 -52.535  12.554  1.00  0.00     0.160 C 
BRANCH  12  13
HETATM   13  C   UNL     1     -45.810 -51.175  13.224  1.00  0.00     0.164 C 
BRANCH  13  14
HETATM   14  N   UNL     1     -45.152 -51.271  14.516  1.00  0.00    -0.332 N 
HETATM   15  C   UNL     1     -45.731 -51.679  15.699  1.00  0.00     0.080 A 
HETATM   16  C   UNL     1     -47.169 -52.013  15.857  1.00  0.00     0.089 C 
HETATM   17  N   UNL     1     -44.833 -51.745  16.661  1.00  0.00    -0.344 N 
HETATM   18  C   UNL     1     -43.644 -51.372  16.092  1.00  0.00     0.060 A 
ATOM     19  HN  UNL     1     -44.991 -52.018  17.631  1.00  0.00     0.167 HD
HETATM   20  C   UNL     1     -42.369 -51.280  16.671  1.00  0.00     0.032 A 
HETATM   21  C   UNL     1     -43.809 -51.064  14.745  1.00  0.00     0.062 A 
HETATM   22  C   UNL     1     -41.292 -50.875  15.874  1.00  0.00     0.002 A 
HETATM   23  C   UNL     1     -41.481 -50.562  14.527  1.00  0.00     0.002 A 
HETATM   24  C   UNL     1     -42.745 -50.652  13.933  1.00  0.00     0.032 A 
ENDBRANCH  13  14
ENDBRANCH  12  13
BRANCH  12  25
HETATM   25  O   UNL     1     -46.810 -52.383  11.348  1.00  0.00    -0.392 OA
HETATM   26  H   UNL     1     -46.954 -51.428  11.214  1.00  0.00     0.210 HD
ENDBRANCH  12  25
ENDBRANCH  11  12
ENDBRANCH  10  11
ENDBRANCH   7  10
ENDBRANCH   1   4
TORSDOF 7
ENDMDL
MODEL 6
REMARK VINA RESULT:      -6.3      3.014      5.501
REMARK  7 active torsions:
REMARK  status: ('A' for Active; 'I' for Inactive)
REMARK    1  A    between atoms: N_11  and  C_12 
REMARK    2  A    between atoms: C_12  and  C_13 
REMARK    3  A    between atoms: C_13  and  O_14 
REMARK    4  A    between atoms: C_13  and  C_15 
REMARK    5  A    between atoms: C_15  and  O_16 
REMARK    6  A    between atoms: O_16  and  C_17 
REMARK    7  A    between atoms: C_20  and  C_21 
ROOT
HETATM    1  C   UNL     1     -47.679 -51.251  16.579  1.00  0.00     0.162 C 
HETATM    2  C   UNL     1     -47.259 -51.763  17.891  1.00  0.00     0.063 C 
HETATM    3  N   UNL     1     -46.955 -52.164  18.939  1.00  0.00    -0.197 NA
ENDROOT
BRANCH   1   4
HETATM    4  C   UNL     1     -46.559 -51.218  15.567  1.00  0.00    -0.045 A 
HETATM    5  C   UNL     1     -45.244 -50.939  15.966  1.00  0.00     0.011 A 
HETATM    6  C   UNL     1     -44.208 -50.933  15.029  1.00  0.00     0.037 A 
HETATM    7  C   UNL     1     -44.463 -51.216  13.687  1.00  0.00     0.068 A 
HETATM    8  C   UNL     1     -45.773 -51.453  13.275  1.00  0.00     0.037 A 
HETATM    9  C   UNL     1     -46.815 -51.450  14.209  1.00  0.00     0.011 A 
BRANCH   7  10
HETATM   10  O   UNL     1     -43.371 -51.186  12.864  1.00  0.00    -0.349 OA
BRANCH  10  11
HETATM   11  C   UNL     1     -42.098 -51.357  13.504  1.00  0.00     0.209 C 
BRANCH  11  12
HETATM   12  C   UNL     1     -41.329 -52.453  12.747  1.00  0.00     0.160 C 
BRANCH  12  13
HETATM   13  C   UNL     1     -42.067 -53.796  12.844  1.00  0.00     0.164 C 
BRANCH  13  14
HETATM   14  N   UNL     1     -42.009 -54.398  14.166  1.00  0.00    -0.332 N 
HETATM   15  C   UNL     1     -43.085 -54.824  14.917  1.00  0.00     0.080 A 
HETATM   16  C   UNL     1     -44.505 -54.655  14.519  1.00  0.00     0.089 C 
HETATM   17  N   UNL     1     -42.679 -55.411  16.025  1.00  0.00    -0.344 N 
HETATM   18  C   UNL     1     -41.310 -55.366  15.994  1.00  0.00     0.060 A 
ATOM     19  HN  UNL     1     -43.264 -55.815  16.755  1.00  0.00     0.167 HD
HETATM   20  C   UNL     1     -40.381 -55.859  16.923  1.00  0.00     0.032 A 
HETATM   21  C   UNL     1     -40.856 -54.734  14.841  1.00  0.00     0.062 A 
HETATM   22  C   UNL     1     -39.015 -55.696  16.666  1.00  0.00     0.002 A 
HETATM   23  C   UNL     1     -38.581 -55.051  15.507  1.00  0.00     0.002 A 
HETATM   24  C   UNL     1     -39.493 -54.557  14.568  1.00  0.00     0.032 A 
ENDBRANCH  13  14
ENDBRANCH  12  13
BRANCH  12  25
HETATM   25  O   UNL     1     -41.185 -52.048  11.380  1.00  0.00    -0.392 OA
HETATM   26  H   UNL     1     -40.387 -52.486  11.031  1.00  0.00     0.210 HD
ENDBRANCH  12  25
ENDBRANCH  11  12
ENDBRANCH  10  11
ENDBRANCH   7  10
ENDBRANCH   1   4
TORSDOF 7
ENDMDL
MODEL 7
REMARK VINA RESULT:      -6.3      2.232      6.213
REMARK  7 active torsions:
REMARK  status: ('A' for Active; 'I' for Inactive)
REMARK    1  A    between atoms: N_11  and  C_12 
REMARK    2  A    between atoms: C_12  and  C_13 
REMARK    3  A    between atoms: C_13  and  O_14 
REMARK    4  A    between atoms: C_13  and  C_15 
REMARK    5  A    between atoms: C_15  and  O_16 
REMARK    6  A    between atoms: O_16  and  C_17 
REMARK    7  A    between atoms: C_20  and  C_21 
ROOT
HETATM    1  C   UNL     1     -43.230 -46.840  11.045  1.00  0.00     0.162 C 
HETATM    2  C   UNL     1     -42.419 -45.708  10.577  1.00  0.00     0.063 C 
HETATM    3  N   UNL     1     -41.803 -44.796  10.203  1.00  0.00    -0.197 NA
ENDROOT
BRANCH   1   4
HETATM    4  C   UNL     1     -42.408 -48.062  11.381  1.00  0.00    -0.045 A 
HETATM    5  C   UNL     1     -42.914 -49.049  12.238  1.00  0.00     0.011 A 
HETATM    6  C   UNL     1     -42.159 -50.188  12.526  1.00  0.00     0.037 A 
HETATM    7  C   UNL     1     -40.898 -50.367  11.955  1.00  0.00     0.068 A 
HETATM    8  C   UNL     1     -40.371 -49.372  11.135  1.00  0.00     0.037 A 
HETATM    9  C   UNL     1     -41.120 -48.224  10.853  1.00  0.00     0.011 A 
BRANCH   7  10
HETATM   10  O   UNL     1     -40.255 -51.523  12.305  1.00  0.00    -0.349 OA
BRANCH  10  11
HETATM   11  C   UNL     1     -40.999 -52.736  12.121  1.00  0.00     0.209 C 
BRANCH  11  12
HETATM   12  C   UNL     1     -40.766 -53.628  13.352  1.00  0.00     0.160 C 
BRANCH  12  13
HETATM   13  C   UNL     1     -42.075 -54.303  13.786  1.00  0.00     0.164 C 
BRANCH  13  14
HETATM   14  N   UNL     1     -43.007 -53.400  14.442  1.00  0.00    -0.332 N 
HETATM   15  C   UNL     1     -42.837 -52.806  15.675  1.00  0.00     0.080 A 
HETATM   16  C   UNL     1     -41.690 -53.068  16.581  1.00  0.00     0.089 C 
HETATM   17  N   UNL     1     -43.822 -51.970  15.931  1.00  0.00    -0.344 N 
HETATM   18  C   UNL     1     -44.650 -52.019  14.841  1.00  0.00     0.060 A 
ATOM     19  HN  UNL     1     -43.943 -51.402  16.769  1.00  0.00     0.167 HD
HETATM   20  C   UNL     1     -45.839 -51.316  14.591  1.00  0.00     0.032 A 
HETATM   21  C   UNL     1     -44.169 -52.911  13.887  1.00  0.00     0.062 A 
HETATM   22  C   UNL     1     -46.515 -51.536  13.386  1.00  0.00     0.002 A 
HETATM   23  C   UNL     1     -46.019 -52.441  12.446  1.00  0.00     0.002 A 
HETATM   24  C   UNL     1     -44.833 -53.147  12.676  1.00  0.00     0.032 A 
ENDBRANCH  13  14
ENDBRANCH  12  13
BRANCH  12  25
HETATM   25  O   UNL     1     -39.771 -54.605  13.026  1.00  0.00    -0.392 OA
HETATM   26  H   UNL     1     -39.687 -54.621  12.054  1.00  0.00     0.210 HD
ENDBRANCH  12  25
ENDBRANCH  11  12
ENDBRANCH  10  11
ENDBRANCH   7  10
ENDBRANCH   1   4
TORSDOF 7
ENDMDL
MODEL 8
REMARK VINA RESULT:      -6.0      2.974      7.171
REMARK  7 active torsions:
REMARK  status: ('A' for Active; 'I' for Inactive)
REMARK    1  A    between atoms: N_11  and  C_12 
REMARK    2  A    between atoms: C_12  and  C_13 
REMARK    3  A    between atoms: C_13  and  O_14 
REMARK    4  A    between atoms: C_13  and  C_15 
REMARK    5  A    between atoms: C_15  and  O_16 
REMARK    6  A    between atoms: O_16  and  C_17 
REMARK    7  A    between atoms: C_20  and  C_21 
ROOT
HETATM    1  C   UNL     1     -37.502 -48.196  16.212  1.00  0.00     0.162 C 
HETATM    2  C   UNL     1     -36.036 -48.255  16.282  1.00  0.00     0.063 C 
HETATM    3  N   UNL     1     -34.876 -48.281  16.359  1.00  0.00    -0.197 NA
ENDROOT
BRANCH   1   4
HETATM    4  C   UNL     1     -38.084 -49.092  15.143  1.00  0.00    -0.045 A 
HETATM    5  C   UNL     1     -37.415 -50.259  14.749  1.00  0.00     0.011 A 
HETATM    6  C   UNL     1     -37.970 -51.096  13.778  1.00  0.00     0.037 A 
HETATM    7  C   UNL     1     -39.201 -50.790  13.196  1.00  0.00     0.068 A 
HETATM    8  C   UNL     1     -39.851 -49.610  13.552  1.00  0.00     0.037 A 
HETATM    9  C   UNL     1     -39.294 -48.764  14.517  1.00  0.00     0.011 A 
BRANCH   7  10
HETATM   10  O   UNL     1     -39.646 -51.685  12.262  1.00  0.00    -0.349 OA
BRANCH  10  11
HETATM   11  C   UNL     1     -41.011 -52.107  12.397  1.00  0.00     0.209 C 
BRANCH  11  12
HETATM   12  C   UNL     1     -41.035 -53.361  13.286  1.00  0.00     0.160 C 
BRANCH  12  13
HETATM   13  C   UNL     1     -42.340 -54.144  13.081  1.00  0.00     0.164 C 
BRANCH  13  14
HETATM   14  N   UNL     1     -43.337 -53.893  14.109  1.00  0.00    -0.332 N 
HETATM   15  C   UNL     1     -43.338 -54.408  15.388  1.00  0.00     0.080 A 
HETATM   16  C   UNL     1     -42.345 -55.385  15.899  1.00  0.00     0.089 C 
HETATM   17  N   UNL     1     -44.331 -53.905  16.094  1.00  0.00    -0.344 N 
HETATM   18  C   UNL     1     -44.989 -53.043  15.257  1.00  0.00     0.060 A 
ATOM     19  HN  UNL     1     -44.561 -54.114  17.065  1.00  0.00     0.167 HD
HETATM   20  C   UNL     1     -46.111 -52.239  15.508  1.00  0.00     0.032 A 
HETATM   21  C   UNL     1     -44.392 -53.014  14.000  1.00  0.00     0.062 A 
HETATM   22  C   UNL     1     -46.605 -51.427  14.481  1.00  0.00     0.002 A 
HETATM   23  C   UNL     1     -45.997 -51.419  13.225  1.00  0.00     0.002 A 
HETATM   24  C   UNL     1     -44.875 -52.212  12.958  1.00  0.00     0.032 A 
ENDBRANCH  13  14
ENDBRANCH  12  13
BRANCH  12  25
HETATM   25  O   UNL     1     -39.898 -54.170  12.964  1.00  0.00    -0.392 OA
HETATM   26  H   UNL     1     -39.507 -53.809  12.146  1.00  0.00     0.210 HD
ENDBRANCH  12  25
ENDBRANCH  11  12
ENDBRANCH  10  11
ENDBRANCH   7  10
ENDBRANCH   1   4
TORSDOF 7
ENDMDL
MODEL 9
REMARK VINA RESULT:      -5.9      2.660      4.543
REMARK  7 active torsions:
REMARK  status: ('A' for Active; 'I' for Inactive)
REMARK    1  A    between atoms: N_11  and  C_12 
REMARK    2  A    between atoms: C_12  and  C_13 
REMARK    3  A    between atoms: C_13  and  O_14 
REMARK    4  A    between atoms: C_13  and  C_15 
REMARK    5  A    between atoms: C_15  and  O_16 
REMARK    6  A    between atoms: O_16  and  C_17 
REMARK    7  A    between atoms: C_20  and  C_21 
ROOT
HETATM    1  C   UNL     1     -47.631 -51.533  16.917  1.00  0.00     0.162 C 
HETATM    2  C   UNL     1     -47.139 -52.129  18.166  1.00  0.00     0.063 C 
HETATM    3  N   UNL     1     -46.770 -52.584  19.170  1.00  0.00    -0.197 NA
ENDROOT
BRANCH   1   4
HETATM    4  C   UNL     1     -46.911 -52.043  15.690  1.00  0.00    -0.045 A 
HETATM    5  C   UNL     1     -46.864 -51.275  14.519  1.00  0.00     0.011 A 
HETATM    6  C   UNL     1     -46.176 -51.741  13.396  1.00  0.00     0.037 A 
HETATM    7  C   UNL     1     -45.517 -52.970  13.427  1.00  0.00     0.068 A 
HETATM    8  C   UNL     1     -45.594 -53.759  14.573  1.00  0.00     0.037 A 
HETATM    9  C   UNL     1     -46.290 -53.300  15.697  1.00  0.00     0.011 A 
BRANCH   7  10
HETATM   10  O   UNL     1     -44.874 -53.320  12.272  1.00  0.00    -0.349 OA
BRANCH  10  11
HETATM   11  C   UNL     1     -43.494 -53.692  12.408  1.00  0.00     0.209 C 
BRANCH  11  12
HETATM   12  C   UNL     1     -42.639 -52.429  12.212  1.00  0.00     0.160 C 
BRANCH  12  13
HETATM   13  C   UNL     1     -42.078 -51.942  13.556  1.00  0.00     0.164 C 
BRANCH  13  14
HETATM   14  N   UNL     1     -40.908 -52.681  14.001  1.00  0.00    -0.332 N 
HETATM   15  C   UNL     1     -39.591 -52.344  13.767  1.00  0.00     0.080 A 
HETATM   16  C   UNL     1     -39.156 -51.194  12.936  1.00  0.00     0.089 C 
HETATM   17  N   UNL     1     -38.779 -53.172  14.390  1.00  0.00    -0.344 N 
HETATM   18  C   UNL     1     -39.583 -54.068  15.045  1.00  0.00     0.060 A 
ATOM     19  HN  UNL     1     -37.759 -53.151  14.386  1.00  0.00     0.167 HD
HETATM   20  C   UNL     1     -39.229 -55.150  15.865  1.00  0.00     0.032 A 
HETATM   21  C   UNL     1     -40.928 -53.790  14.819  1.00  0.00     0.062 A 
HETATM   22  C   UNL     1     -40.244 -55.928  16.434  1.00  0.00     0.002 A 
HETATM   23  C   UNL     1     -41.587 -55.637  16.187  1.00  0.00     0.002 A 
HETATM   24  C   UNL     1     -41.957 -54.559  15.375  1.00  0.00     0.032 A 
ENDBRANCH  13  14
ENDBRANCH  12  13
BRANCH  12  25
HETATM   25  O   UNL     1     -41.580 -52.733  11.297  1.00  0.00    -0.392 OA
HETATM   26  H   UNL     1     -41.063 -53.463  11.684  1.00  0.00     0.210 HD
ENDBRANCH  12  25
ENDBRANCH  11  12
ENDBRANCH  10  11
ENDBRANCH   7  10
ENDBRANCH   1   4
TORSDOF 7
ENDMDL
