MODEL 1
REMARK VINA RESULT:      -5.9      0.000      0.000
REMARK  8 active torsions:
REMARK  status: ('A' for Active; 'I' for Inactive)
REMARK    1  A    between atoms: O_2  and  C_3 
REMARK    2  A    between atoms: C_6  and  O_7 
REMARK    3  A    between atoms: O_7  and  C_8 
REMARK    4  A    between atoms: C_8  and  C_9 
REMARK    5  A    between atoms: C_9  and  N_10 
REMARK    6  A    between atoms: C_11  and  C_12 
REMARK    7  A    between atoms: C_12  and  C_13 
REMARK    8  A    between atoms: C_13  and  O_14 
ROOT
HETATM    1  N   UNL     1     -40.200 -49.569  12.939  1.00  0.00    -0.333 N 
HETATM    2  C   UNL     1     -39.096 -49.118  12.218  1.00  0.00     0.086 A 
HETATM    3  N   UNL     1     -39.457 -48.261  11.285  1.00  0.00    -0.344 N 
ATOM      4  HN  UNL     1     -38.843 -47.733  10.666  1.00  0.00     0.167 HD
HETATM    5  C   UNL     1     -40.824 -48.225  11.319  1.00  0.00     0.060 A 
HETATM    6  C   UNL     1     -41.703 -47.520  10.483  1.00  0.00     0.032 A 
HETATM    7  C   UNL     1     -43.079 -47.642  10.676  1.00  0.00     0.002 A 
HETATM    8  C   UNL     1     -43.575 -48.469  11.678  1.00  0.00     0.002 A 
HETATM    9  C   UNL     1     -42.712 -49.192  12.509  1.00  0.00     0.032 A 
HETATM   10  C   UNL     1     -41.327 -49.042  12.331  1.00  0.00     0.062 A 
ENDROOT
BRANCH   1  11
HETATM   11  C   UNL     1     -40.124 -50.559  14.002  1.00  0.00     0.157 C 
BRANCH  11  12
HETATM   12  C   UNL     1     -39.932 -52.039  13.642  1.00  0.00     0.196 C 
BRANCH  12  13
HETATM   13  O   UNL     1     -40.816 -52.556  12.655  1.00  0.00    -0.350 OA
BRANCH  13  14
HETATM   14  C   UNL     1     -41.981 -53.172  13.000  1.00  0.00     0.069 A 
HETATM   15  C   UNL     1     -41.853 -54.071  14.063  1.00  0.00     0.039 A 
HETATM   16  C   UNL     1     -42.952 -54.794  14.531  1.00  0.00     0.039 A 
HETATM   17  C   UNL     1     -44.202 -54.603  13.951  1.00  0.00     0.068 A 
HETATM   18  C   UNL     1     -44.335 -53.695  12.899  1.00  0.00     0.039 A 
HETATM   19  C   UNL     1     -43.229 -52.981  12.422  1.00  0.00     0.039 A 
BRANCH  17  20
HETATM   20  O   UNL     1     -45.346 -55.268  14.296  1.00  0.00    -0.356 OA
HETATM   21  C   UNL     1     -46.427 -54.452  14.733  1.00  0.00     0.210 C 
ENDBRANCH  17  20
ENDBRANCH  13  14
ENDBRANCH  12  13
ENDBRANCH  11  12
ENDBRANCH   1  11
BRANCH   2  22
HETATM   22  C   UNL     1     -37.679 -49.570  12.411  1.00  0.00     0.102 C 
BRANCH  22  23
HETATM   23  C   UNL     1     -37.267 -50.618  11.385  1.00  0.00     0.171 C 
BRANCH  23  24
HETATM   24  O   UNL     1     -37.323 -50.084  10.065  1.00  0.00    -0.400 OA
HETATM   25  H   UNL     1     -36.904 -49.207  10.112  1.00  0.00     0.209 HD
ENDBRANCH  23  24
ENDBRANCH  22  23
ENDBRANCH   2  22
TORSDOF 8
ENDMDL
MODEL 2
REMARK VINA RESULT:      -5.9      2.793      6.226
REMARK  8 active torsions:
REMARK  status: ('A' for Active; 'I' for Inactive)
REMARK    1  A    between atoms: O_2  and  C_3 
REMARK    2  A    between atoms: C_6  and  O_7 
REMARK    3  A    between atoms: O_7  and  C_8 
REMARK    4  A    between atoms: C_8  and  C_9 
REMARK    5  A    between atoms: C_9  and  N_10 
REMARK    6  A    between atoms: C_11  and  C_12 
REMARK    7  A    between atoms: C_12  and  C_13 
REMARK    8  A    between atoms: C_13  and  O_14 
ROOT
HETATM    1  N   UNL     1     -42.522 -51.660  13.620  1.00  0.00    -0.333 N 
HETATM    2  C   UNL     1     -42.181 -52.621  12.670  1.00  0.00     0.086 A 
HETATM    3  N   UNL     1     -43.254 -53.108  12.082  1.00  0.00    -0.344 N 
ATOM      4  HN  UNL     1     -43.282 -53.772  11.308  1.00  0.00     0.167 HD
HETATM    5  C   UNL     1     -44.321 -52.543  12.723  1.00  0.00     0.060 A 
HETATM    6  C   UNL     1     -45.690 -52.781  12.525  1.00  0.00     0.032 A 
HETATM    7  C   UNL     1     -46.625 -52.108  13.311  1.00  0.00     0.002 A 
HETATM    8  C   UNL     1     -46.202 -51.220  14.295  1.00  0.00     0.002 A 
HETATM    9  C   UNL     1     -44.841 -50.985  14.517  1.00  0.00     0.032 A 
HETATM   10  C   UNL     1     -43.905 -51.642  13.702  1.00  0.00     0.062 A 
ENDROOT
BRANCH   1  11
HETATM   11  C   UNL     1     -41.556 -50.978  14.466  1.00  0.00     0.157 C 
BRANCH  11  12
HETATM   12  C   UNL     1     -40.880 -49.697  13.958  1.00  0.00     0.196 C 
BRANCH  12  13
HETATM   13  O   UNL     1     -40.725 -49.597  12.547  1.00  0.00    -0.350 OA
BRANCH  13  14
HETATM   14  C   UNL     1     -41.197 -48.523  11.857  1.00  0.00     0.069 A 
HETATM   15  C   UNL     1     -42.583 -48.530  11.675  1.00  0.00     0.039 A 
HETATM   16  C   UNL     1     -43.223 -47.504  10.976  1.00  0.00     0.039 A 
HETATM   17  C   UNL     1     -42.479 -46.442  10.473  1.00  0.00     0.068 A 
HETATM   18  C   UNL     1     -41.097 -46.425  10.667  1.00  0.00     0.039 A 
HETATM   19  C   UNL     1     -40.454 -47.461  11.355  1.00  0.00     0.039 A 
BRANCH  17  20
HETATM   20  O   UNL     1     -42.980 -45.396   9.749  1.00  0.00    -0.356 OA
HETATM   21  C   UNL     1     -44.077 -45.705   8.897  1.00  0.00     0.210 C 
ENDBRANCH  17  20
ENDBRANCH  13  14
ENDBRANCH  12  13
ENDBRANCH  11  12
ENDBRANCH   1  11
BRANCH   2  22
HETATM   22  C   UNL     1     -40.792 -53.103  12.370  1.00  0.00     0.102 C 
BRANCH  22  23
HETATM   23  C   UNL     1     -40.342 -54.190  13.338  1.00  0.00     0.171 C 
BRANCH  23  24
HETATM   24  O   UNL     1     -38.920 -54.269  13.385  1.00  0.00    -0.400 OA
HETATM   25  H   UNL     1     -38.617 -54.185  12.465  1.00  0.00     0.209 HD
ENDBRANCH  23  24
ENDBRANCH  22  23
ENDBRANCH   2  22
TORSDOF 8
ENDMDL
MODEL 3
REMARK VINA RESULT:      -5.7      2.485      5.901
REMARK  8 active torsions:
REMARK  status: ('A' for Active; 'I' for Inactive)
REMARK    1  A    between atoms: O_2  and  C_3 
REMARK    2  A    between atoms: C_6  and  O_7 
REMARK    3  A    between atoms: O_7  and  C_8 
REMARK    4  A    between atoms: C_8  and  C_9 
REMARK    5  A    between atoms: C_9  and  N_10 
REMARK    6  A    between atoms: C_11  and  C_12 
REMARK    7  A    between atoms: C_12  and  C_13 
REMARK    8  A    between atoms: C_13  and  O_14 
ROOT
HETATM    1  N   UNL     1     -42.244 -51.932  12.721  1.00  0.00    -0.333 N 
HETATM    2  C   UNL     1     -42.346 -50.542  12.747  1.00  0.00     0.086 A 
HETATM    3  N   UNL     1     -43.565 -50.162  13.067  1.00  0.00    -0.344 N 
ATOM      4  HN  UNL     1     -43.891 -49.208  13.221  1.00  0.00     0.167 HD
HETATM    5  C   UNL     1     -44.305 -51.309  13.150  1.00  0.00     0.060 A 
HETATM    6  C   UNL     1     -45.680 -51.450  13.394  1.00  0.00     0.032 A 
HETATM    7  C   UNL     1     -46.247 -52.724  13.414  1.00  0.00     0.002 A 
HETATM    8  C   UNL     1     -45.458 -53.845  13.175  1.00  0.00     0.002 A 
HETATM    9  C   UNL     1     -44.089 -53.720  12.913  1.00  0.00     0.032 A 
HETATM   10  C   UNL     1     -43.518 -52.437  12.925  1.00  0.00     0.062 A 
ENDROOT
BRANCH   1  11
HETATM   11  C   UNL     1     -41.033 -52.649  12.354  1.00  0.00     0.157 C 
BRANCH  11  12
HETATM   12  C   UNL     1     -40.154 -53.257  13.455  1.00  0.00     0.196 C 
BRANCH  12  13
HETATM   13  O   UNL     1     -38.806 -52.803  13.491  1.00  0.00    -0.350 OA
BRANCH  13  14
HETATM   14  C   UNL     1     -38.502 -51.508  13.780  1.00  0.00     0.069 A 
HETATM   15  C   UNL     1     -37.905 -50.817  12.721  1.00  0.00     0.039 A 
HETATM   16  C   UNL     1     -37.521 -49.481  12.859  1.00  0.00     0.039 A 
HETATM   17  C   UNL     1     -37.757 -48.814  14.057  1.00  0.00     0.068 A 
HETATM   18  C   UNL     1     -38.366 -49.498  15.109  1.00  0.00     0.039 A 
HETATM   19  C   UNL     1     -38.738 -50.841  14.975  1.00  0.00     0.039 A 
BRANCH  17  20
HETATM   20  O   UNL     1     -37.403 -47.521  14.327  1.00  0.00    -0.356 OA
HETATM   21  C   UNL     1     -38.480 -46.598  14.443  1.00  0.00     0.210 C 
ENDBRANCH  17  20
ENDBRANCH  13  14
ENDBRANCH  12  13
ENDBRANCH  11  12
ENDBRANCH   1  11
BRANCH   2  22
HETATM   22  C   UNL     1     -41.250 -49.577  12.406  1.00  0.00     0.102 C 
BRANCH  22  23
HETATM   23  C   UNL     1     -41.327 -49.111  10.957  1.00  0.00     0.171 C 
BRANCH  23  24
HETATM   24  O   UNL     1     -40.491 -49.909  10.123  1.00  0.00    -0.400 OA
HETATM   25  H   UNL     1     -41.059 -50.617   9.773  1.00  0.00     0.209 HD
ENDBRANCH  23  24
ENDBRANCH  22  23
ENDBRANCH   2  22
TORSDOF 8
ENDMDL
MODEL 4
REMARK VINA RESULT:      -5.7      3.407      6.634
REMARK  8 active torsions:
REMARK  status: ('A' for Active; 'I' for Inactive)
REMARK    1  A    between atoms: O_2  and  C_3 
REMARK    2  A    between atoms: C_6  and  O_7 
REMARK    3  A    between atoms: O_7  and  C_8 
REMARK    4  A    between atoms: C_8  and  C_9 
REMARK    5  A    between atoms: C_9  and  N_10 
REMARK    6  A    between atoms: C_11  and  C_12 
REMARK    7  A    between atoms: C_12  and  C_13 
REMARK    8  A    between atoms: C_13  and  O_14 
ROOT
HETATM    1  N   UNL     1     -42.176 -53.538  13.730  1.00  0.00    -0.333 N 
HETATM    2  C   UNL     1     -43.269 -54.359  14.002  1.00  0.00     0.086 A 
HETATM    3  N   UNL     1     -43.020 -55.158  15.020  1.00  0.00    -0.344 N 
ATOM      4  HN  UNL     1     -43.670 -55.807  15.464  1.00  0.00     0.167 HD
HETATM    5  C   UNL     1     -41.714 -54.938  15.358  1.00  0.00     0.060 A 
HETATM    6  C   UNL     1     -40.940 -55.584  16.333  1.00  0.00     0.032 A 
HETATM    7  C   UNL     1     -39.604 -55.220  16.502  1.00  0.00     0.002 A 
HETATM    8  C   UNL     1     -39.040 -54.235  15.697  1.00  0.00     0.002 A 
HETATM    9  C   UNL     1     -39.793 -53.593  14.709  1.00  0.00     0.032 A 
HETATM   10  C   UNL     1     -41.146 -53.942  14.564  1.00  0.00     0.062 A 
ENDROOT
BRANCH   1  11
HETATM   11  C   UNL     1     -42.133 -52.584  12.633  1.00  0.00     0.157 C 
BRANCH  11  12
HETATM   12  C   UNL     1     -42.163 -51.081  12.940  1.00  0.00     0.196 C 
BRANCH  12  13
HETATM   13  O   UNL     1     -43.440 -50.459  12.864  1.00  0.00    -0.350 OA
BRANCH  13  14
HETATM   14  C   UNL     1     -44.430 -50.764  13.749  1.00  0.00     0.069 A 
HETATM   15  C   UNL     1     -45.632 -51.144  13.146  1.00  0.00     0.039 A 
HETATM   16  C   UNL     1     -46.750 -51.476  13.915  1.00  0.00     0.039 A 
HETATM   17  C   UNL     1     -46.664 -51.457  15.303  1.00  0.00     0.068 A 
HETATM   18  C   UNL     1     -45.460 -51.092  15.907  1.00  0.00     0.039 A 
HETATM   19  C   UNL     1     -44.345 -50.745  15.135  1.00  0.00     0.039 A 
BRANCH  17  20
HETATM   20  O   UNL     1     -47.690 -51.731  16.165  1.00  0.00    -0.356 OA
HETATM   21  C   UNL     1     -47.828 -50.837  17.263  1.00  0.00     0.210 C 
ENDBRANCH  17  20
ENDBRANCH  13  14
ENDBRANCH  12  13
ENDBRANCH  11  12
ENDBRANCH   1  11
BRANCH   2  22
HETATM   22  C   UNL     1     -44.551 -54.398  13.225  1.00  0.00     0.102 C 
BRANCH  22  23
HETATM   23  C   UNL     1     -45.587 -55.307  13.874  1.00  0.00     0.171 C 
BRANCH  23  24
HETATM   24  O   UNL     1     -45.974 -54.804  15.150  1.00  0.00    -0.400 OA
HETATM   25  H   UNL     1     -46.039 -55.578  15.735  1.00  0.00     0.209 HD
ENDBRANCH  23  24
ENDBRANCH  22  23
ENDBRANCH   2  22
TORSDOF 8
ENDMDL
MODEL 5
REMARK VINA RESULT:      -5.7      2.137      3.840
REMARK  8 active torsions:
REMARK  status: ('A' for Active; 'I' for Inactive)
REMARK    1  A    between atoms: O_2  and  C_3 
REMARK    2  A    between atoms: C_6  and  O_7 
REMARK    3  A    between atoms: O_7  and  C_8 
REMARK    4  A    between atoms: C_8  and  C_9 
REMARK    5  A    between atoms: C_9  and  N_10 
REMARK    6  A    between atoms: C_11  and  C_12 
REMARK    7  A    between atoms: C_12  and  C_13 
REMARK    8  A    between atoms: C_13  and  O_14 
ROOT
HETATM    1  N   UNL     1     -40.466 -48.326  13.234  1.00  0.00    -0.333 N 
HETATM    2  C   UNL     1     -40.423 -47.533  12.088  1.00  0.00     0.086 A 
HETATM    3  N   UNL     1     -39.530 -47.985  11.232  1.00  0.00    -0.344 N 
ATOM      4  HN  UNL     1     -39.346 -47.632  10.293  1.00  0.00     0.167 HD
HETATM    5  C   UNL     1     -38.901 -49.024  11.861  1.00  0.00     0.060 A 
HETATM    6  C   UNL     1     -37.825 -49.800  11.407  1.00  0.00     0.032 A 
HETATM    7  C   UNL     1     -37.312 -50.808  12.225  1.00  0.00     0.002 A 
HETATM    8  C   UNL     1     -37.853 -51.028  13.487  1.00  0.00     0.002 A 
HETATM    9  C   UNL     1     -38.915 -50.250  13.961  1.00  0.00     0.032 A 
HETATM   10  C   UNL     1     -39.448 -49.259  13.122  1.00  0.00     0.062 A 
ENDROOT
BRANCH   1  11
HETATM   11  C   UNL     1     -41.320 -48.050  14.379  1.00  0.00     0.157 C 
BRANCH  11  12
HETATM   12  C   UNL     1     -42.674 -48.762  14.498  1.00  0.00     0.196 C 
BRANCH  12  13
HETATM   13  O   UNL     1     -43.235 -49.233  13.279  1.00  0.00    -0.350 OA
BRANCH  13  14
HETATM   14  C   UNL     1     -43.526 -50.550  13.094  1.00  0.00     0.069 A 
HETATM   15  C   UNL     1     -44.873 -50.866  13.291  1.00  0.00     0.039 A 
HETATM   16  C   UNL     1     -45.333 -52.178  13.152  1.00  0.00     0.039 A 
HETATM   17  C   UNL     1     -44.446 -53.186  12.786  1.00  0.00     0.068 A 
HETATM   18  C   UNL     1     -43.103 -52.869  12.575  1.00  0.00     0.039 A 
HETATM   19  C   UNL     1     -42.641 -51.557  12.728  1.00  0.00     0.039 A 
BRANCH  17  20
HETATM   20  O   UNL     1     -44.763 -54.509  12.647  1.00  0.00    -0.356 OA
HETATM   21  C   UNL     1     -45.440 -55.100  13.750  1.00  0.00     0.210 C 
ENDBRANCH  17  20
ENDBRANCH  13  14
ENDBRANCH  12  13
ENDBRANCH  11  12
ENDBRANCH   1  11
BRANCH   2  22
HETATM   22  C   UNL     1     -41.229 -46.291  11.852  1.00  0.00     0.102 C 
BRANCH  22  23
HETATM   23  C   UNL     1     -40.449 -45.242  11.069  1.00  0.00     0.171 C 
BRANCH  23  24
HETATM   24  O   UNL     1     -40.598 -45.441   9.667  1.00  0.00    -0.400 OA
HETATM   25  H   UNL     1     -41.186 -44.731   9.356  1.00  0.00     0.209 HD
ENDBRANCH  23  24
ENDBRANCH  22  23
ENDBRANCH   2  22
TORSDOF 8
ENDMDL
MODEL 6
REMARK VINA RESULT:      -5.7      2.832      5.667
REMARK  8 active torsions:
REMARK  status: ('A' for Active; 'I' for Inactive)
REMARK    1  A    between atoms: O_2  and  C_3 
REMARK    2  A    between atoms: C_6  and  O_7 
REMARK    3  A    between atoms: O_7  and  C_8 
REMARK    4  A    between atoms: C_8  and  C_9 
REMARK    5  A    between atoms: C_9  and  N_10 
REMARK    6  A    between atoms: C_11  and  C_12 
REMARK    7  A    between atoms: C_12  and  C_13 
REMARK    8  A    between atoms: C_13  and  O_14 
ROOT
HETATM    1  N   UNL     1     -43.274 -52.785  14.527  1.00  0.00    -0.333 N 
HETATM    2  C   UNL     1     -42.829 -53.531  13.436  1.00  0.00     0.086 A 
HETATM    3  N   UNL     1     -43.685 -53.467  12.438  1.00  0.00    -0.344 N 
ATOM      4  HN  UNL     1     -43.571 -53.864  11.505  1.00  0.00     0.167 HD
HETATM    5  C   UNL     1     -44.757 -52.761  12.908  1.00  0.00     0.060 A 
HETATM    6  C   UNL     1     -45.968 -52.472  12.262  1.00  0.00     0.032 A 
HETATM    7  C   UNL     1     -46.951 -51.748  12.937  1.00  0.00     0.002 A 
HETATM    8  C   UNL     1     -46.738 -51.332  14.247  1.00  0.00     0.002 A 
HETATM    9  C   UNL     1     -45.543 -51.628  14.912  1.00  0.00     0.032 A 
HETATM   10  C   UNL     1     -44.545 -52.329  14.217  1.00  0.00     0.062 A 
ENDROOT
BRANCH   1  11
HETATM   11  C   UNL     1     -42.566 -52.702  15.795  1.00  0.00     0.157 C 
BRANCH  11  12
HETATM   12  C   UNL     1     -41.491 -51.624  15.989  1.00  0.00     0.196 C 
BRANCH  12  13
HETATM   13  O   UNL     1     -41.907 -50.285  15.746  1.00  0.00    -0.350 OA
BRANCH  13  14
HETATM   14  C   UNL     1     -41.993 -49.788  14.481  1.00  0.00     0.069 A 
HETATM   15  C   UNL     1     -40.886 -50.085  13.680  1.00  0.00     0.039 A 
HETATM   16  C   UNL     1     -40.813 -49.637  12.358  1.00  0.00     0.039 A 
HETATM   17  C   UNL     1     -41.866 -48.907  11.817  1.00  0.00     0.068 A 
HETATM   18  C   UNL     1     -42.978 -48.622  12.611  1.00  0.00     0.039 A 
HETATM   19  C   UNL     1     -43.044 -49.059  13.939  1.00  0.00     0.039 A 
BRANCH  17  20
HETATM   20  O   UNL     1     -41.903 -48.388  10.552  1.00  0.00    -0.356 OA
HETATM   21  C   UNL     1     -41.658 -46.990  10.452  1.00  0.00     0.210 C 
ENDBRANCH  17  20
ENDBRANCH  13  14
ENDBRANCH  12  13
ENDBRANCH  11  12
ENDBRANCH   1  11
BRANCH   2  22
HETATM   22  C   UNL     1     -41.577 -54.355  13.390  1.00  0.00     0.102 C 
BRANCH  22  23
HETATM   23  C   UNL     1     -40.396 -53.573  12.828  1.00  0.00     0.171 C 
BRANCH  23  24
HETATM   24  O   UNL     1     -40.594 -53.281  11.447  1.00  0.00    -0.400 OA
HETATM   25  H   UNL     1     -41.233 -53.939  11.123  1.00  0.00     0.209 HD
ENDBRANCH  23  24
ENDBRANCH  22  23
ENDBRANCH   2  22
TORSDOF 8
ENDMDL
MODEL 7
REMARK VINA RESULT:      -5.7      2.933      4.282
REMARK  8 active torsions:
REMARK  status: ('A' for Active; 'I' for Inactive)
REMARK    1  A    between atoms: O_2  and  C_3 
REMARK    2  A    between atoms: C_6  and  O_7 
REMARK    3  A    between atoms: O_7  and  C_8 
REMARK    4  A    between atoms: C_8  and  C_9 
REMARK    5  A    between atoms: C_9  and  N_10 
REMARK    6  A    between atoms: C_11  and  C_12 
REMARK    7  A    between atoms: C_12  and  C_13 
REMARK    8  A    between atoms: C_13  and  O_14 
ROOT
HETATM    1  N   UNL     1     -41.491 -47.069  11.178  1.00  0.00    -0.333 N 
HETATM    2  C   UNL     1     -42.708 -46.568  10.719  1.00  0.00     0.086 A 
HETATM    3  N   UNL     1     -42.794 -45.270  10.924  1.00  0.00    -0.344 N 
ATOM      4  HN  UNL     1     -43.546 -44.650  10.625  1.00  0.00     0.167 HD
HETATM    5  C   UNL     1     -41.669 -44.926  11.621  1.00  0.00     0.060 A 
HETATM    6  C   UNL     1     -41.311 -43.675  12.145  1.00  0.00     0.032 A 
HETATM    7  C   UNL     1     -40.116 -43.543  12.853  1.00  0.00     0.002 A 
HETATM    8  C   UNL     1     -39.295 -44.649  13.052  1.00  0.00     0.002 A 
HETATM    9  C   UNL     1     -39.647 -45.907  12.552  1.00  0.00     0.032 A 
HETATM   10  C   UNL     1     -40.835 -46.027  11.813  1.00  0.00     0.062 A 
ENDROOT
BRANCH   1  11
HETATM   11  C   UNL     1     -41.125 -48.476  11.133  1.00  0.00     0.157 C 
BRANCH  11  12
HETATM   12  C   UNL     1     -41.244 -49.327  12.404  1.00  0.00     0.196 C 
BRANCH  12  13
HETATM   13  O   UNL     1     -42.550 -49.435  12.957  1.00  0.00    -0.350 OA
BRANCH  13  14
HETATM   14  C   UNL     1     -43.235 -50.612  12.933  1.00  0.00     0.069 A 
HETATM   15  C   UNL     1     -42.471 -51.703  12.508  1.00  0.00     0.039 A 
HETATM   16  C   UNL     1     -43.029 -52.980  12.416  1.00  0.00     0.039 A 
HETATM   17  C   UNL     1     -44.358 -53.182  12.776  1.00  0.00     0.068 A 
HETATM   18  C   UNL     1     -45.117 -52.096  13.214  1.00  0.00     0.039 A 
HETATM   19  C   UNL     1     -44.562 -50.814  13.292  1.00  0.00     0.039 A 
BRANCH  17  20
HETATM   20  O   UNL     1     -45.027 -54.371  12.702  1.00  0.00    -0.356 OA
HETATM   21  C   UNL     1     -45.458 -54.914  13.945  1.00  0.00     0.210 C 
ENDBRANCH  17  20
ENDBRANCH  13  14
ENDBRANCH  12  13
ENDBRANCH  11  12
ENDBRANCH   1  11
BRANCH   2  22
HETATM   22  C   UNL     1     -43.819 -47.378  10.119  1.00  0.00     0.102 C 
BRANCH  22  23
HETATM   23  C   UNL     1     -44.020 -47.068   8.640  1.00  0.00     0.171 C 
BRANCH  23  24
HETATM   24  O   UNL     1     -42.974 -46.233   8.151  1.00  0.00    -0.400 OA
HETATM   25  H   UNL     1     -42.188 -46.801   8.082  1.00  0.00     0.209 HD
ENDBRANCH  23  24
ENDBRANCH  22  23
ENDBRANCH   2  22
TORSDOF 8
ENDMDL
MODEL 8
REMARK VINA RESULT:      -5.6      2.491      3.898
REMARK  8 active torsions:
REMARK  status: ('A' for Active; 'I' for Inactive)
REMARK    1  A    between atoms: O_2  and  C_3 
REMARK    2  A    between atoms: C_6  and  O_7 
REMARK    3  A    between atoms: O_7  and  C_8 
REMARK    4  A    between atoms: C_8  and  C_9 
REMARK    5  A    between atoms: C_9  and  N_10 
REMARK    6  A    between atoms: C_11  and  C_12 
REMARK    7  A    between atoms: C_12  and  C_13 
REMARK    8  A    between atoms: C_13  and  O_14 
ROOT
HETATM    1  N   UNL     1     -41.336 -47.924  11.535  1.00  0.00    -0.333 N 
HETATM    2  C   UNL     1     -41.817 -47.259  10.409  1.00  0.00     0.086 A 
HETATM    3  N   UNL     1     -41.244 -46.081  10.272  1.00  0.00    -0.344 N 
ATOM      4  HN  UNL     1     -41.365 -45.425   9.502  1.00  0.00     0.167 HD
HETATM    5  C   UNL     1     -40.453 -45.920  11.376  1.00  0.00     0.060 A 
HETATM    6  C   UNL     1     -39.683 -44.807  11.748  1.00  0.00     0.032 A 
HETATM    7  C   UNL     1     -38.960 -44.840  12.941  1.00  0.00     0.002 A 
HETATM    8  C   UNL     1     -39.017 -45.961  13.763  1.00  0.00     0.002 A 
HETATM    9  C   UNL     1     -39.794 -47.071  13.415  1.00  0.00     0.032 A 
HETATM   10  C   UNL     1     -40.495 -47.045  12.199  1.00  0.00     0.062 A 
ENDROOT
BRANCH   1  11
HETATM   11  C   UNL     1     -41.815 -49.225  11.975  1.00  0.00     0.157 C 
BRANCH  11  12
HETATM   12  C   UNL     1     -40.830 -50.399  12.067  1.00  0.00     0.196 C 
BRANCH  12  13
HETATM   13  O   UNL     1     -41.328 -51.659  11.634  1.00  0.00    -0.350 OA
BRANCH  13  14
HETATM   14  C   UNL     1     -41.723 -52.610  12.525  1.00  0.00     0.069 A 
HETATM   15  C   UNL     1     -43.101 -52.851  12.523  1.00  0.00     0.039 A 
HETATM   16  C   UNL     1     -43.668 -53.789  13.388  1.00  0.00     0.039 A 
HETATM   17  C   UNL     1     -42.854 -54.517  14.250  1.00  0.00     0.068 A 
HETATM   18  C   UNL     1     -41.477 -54.288  14.242  1.00  0.00     0.039 A 
HETATM   19  C   UNL     1     -40.910 -53.338  13.385  1.00  0.00     0.039 A 
BRANCH  17  20
HETATM   20  O   UNL     1     -43.288 -55.438  15.162  1.00  0.00    -0.356 OA
HETATM   21  C   UNL     1     -42.356 -55.786  16.179  1.00  0.00     0.210 C 
ENDBRANCH  17  20
ENDBRANCH  13  14
ENDBRANCH  12  13
ENDBRANCH  11  12
ENDBRANCH   1  11
BRANCH   2  22
HETATM   22  C   UNL     1     -42.887 -47.761   9.485  1.00  0.00     0.102 C 
BRANCH  22  23
HETATM   23  C   UNL     1     -43.575 -46.627   8.736  1.00  0.00     0.171 C 
BRANCH  23  24
HETATM   24  O   UNL     1     -42.701 -46.057   7.765  1.00  0.00    -0.400 OA
HETATM   25  H   UNL     1     -41.920 -45.749   8.256  1.00  0.00     0.209 HD
ENDBRANCH  23  24
ENDBRANCH  22  23
ENDBRANCH   2  22
TORSDOF 8
ENDMDL
MODEL 9
REMARK VINA RESULT:      -5.5      2.869      6.143
REMARK  8 active torsions:
REMARK  status: ('A' for Active; 'I' for Inactive)
REMARK    1  A    between atoms: O_2  and  C_3 
REMARK    2  A    between atoms: C_6  and  O_7 
REMARK    3  A    between atoms: O_7  and  C_8 
REMARK    4  A    between atoms: C_8  and  C_9 
REMARK    5  A    between atoms: C_9  and  N_10 
REMARK    6  A    between atoms: C_11  and  C_12 
REMARK    7  A    between atoms: C_12  and  C_13 
REMARK    8  A    between atoms: C_13  and  O_14 
ROOT
HETATM    1  N   UNL     1     -40.945 -52.765  13.608  1.00  0.00    -0.333 N 
HETATM    2  C   UNL     1     -40.993 -51.883  12.530  1.00  0.00     0.086 A 
HETATM    3  N   UNL     1     -42.192 -51.867  11.984  1.00  0.00    -0.344 N 
ATOM      4  HN  UNL     1     -42.514 -51.264  11.227  1.00  0.00     0.167 HD
HETATM    5  C   UNL     1     -42.915 -52.825  12.639  1.00  0.00     0.060 A 
HETATM    6  C   UNL     1     -44.228 -53.253  12.394  1.00  0.00     0.032 A 
HETATM    7  C   UNL     1     -44.774 -54.273  13.173  1.00  0.00     0.002 A 
HETATM    8  C   UNL     1     -44.016 -54.872  14.174  1.00  0.00     0.002 A 
HETATM    9  C   UNL     1     -42.699 -54.469  14.419  1.00  0.00     0.032 A 
HETATM   10  C   UNL     1     -42.165 -53.420  13.653  1.00  0.00     0.062 A 
ENDROOT
BRANCH   1  11
HETATM   11  C   UNL     1     -39.743 -53.035  14.381  1.00  0.00     0.157 C 
BRANCH  11  12
HETATM   12  C   UNL     1     -39.628 -52.488  15.811  1.00  0.00     0.196 C 
BRANCH  12  13
HETATM   13  O   UNL     1     -38.607 -51.520  16.023  1.00  0.00    -0.350 OA
BRANCH  13  14
HETATM   14  C   UNL     1     -38.618 -50.325  15.372  1.00  0.00     0.069 A 
HETATM   15  C   UNL     1     -39.814 -49.614  15.512  1.00  0.00     0.039 A 
HETATM   16  C   UNL     1     -39.991 -48.374  14.895  1.00  0.00     0.039 A 
HETATM   17  C   UNL     1     -38.957 -47.818  14.150  1.00  0.00     0.068 A 
HETATM   18  C   UNL     1     -37.757 -48.519  14.021  1.00  0.00     0.039 A 
HETATM   19  C   UNL     1     -37.585 -49.769  14.628  1.00  0.00     0.039 A 
BRANCH  17  20
HETATM   20  O   UNL     1     -39.015 -46.630  13.475  1.00  0.00    -0.356 OA
HETATM   21  C   UNL     1     -39.022 -45.461  14.285  1.00  0.00     0.210 C 
ENDBRANCH  17  20
ENDBRANCH  13  14
ENDBRANCH  12  13
ENDBRANCH  11  12
ENDBRANCH   1  11
BRANCH   2  22
HETATM   22  C   UNL     1     -39.840 -51.086  11.997  1.00  0.00     0.102 C 
BRANCH  22  23
HETATM   23  C   UNL     1     -40.285 -49.746  11.425  1.00  0.00     0.171 C 
BRANCH  23  24
HETATM   24  O   UNL     1     -40.526 -49.847  10.025  1.00  0.00    -0.400 OA
HETATM   25  H   UNL     1     -40.970 -50.702   9.890  1.00  0.00     0.209 HD
ENDBRANCH  23  24
ENDBRANCH  22  23
ENDBRANCH   2  22
TORSDOF 8
ENDMDL
