MODEL 1
REMARK VINA RESULT:      -5.9      0.000      0.000
REMARK  5 active torsions:
REMARK  status: ('A' for Active; 'I' for Inactive)
REMARK    1  A    between atoms: S_2  and  N_5 
REMARK    2  A    between atoms: C_8  and  C_11 
REMARK       I    between atoms: C_11  and  N_13 
REMARK    3  A    between atoms: N_13  and  C_14 
REMARK    4  A    between atoms: C_14  and  C_15 
REMARK    5  A    between atoms: C_15  and  C_16 
ROOT
HETATM    1  C   UNL     1     -42.412 -54.063  13.349  1.00  0.00     0.221 C 
HETATM    2  O   UNL     1     -42.652 -54.336  14.521  1.00  0.00    -0.273 OA
HETATM    3  N   UNL     1     -43.412 -53.870  12.419  1.00  0.00    -0.360 N 
HETATM    4  H   UNL     1     -43.182 -53.586  11.475  1.00  0.00     0.162 HD
ENDROOT
BRANCH   1   5
HETATM    5  C   UNL     1     -40.992 -53.882  12.813  1.00  0.00     0.081 C 
HETATM    6  C   UNL     1     -39.944 -53.949  13.929  1.00  0.00     0.034 C 
HETATM    7  C   UNL     1     -39.988 -52.710  14.819  1.00  0.00     0.136 C 
HETATM    8  N   UNL     1     -39.829 -51.479  14.019  1.00  0.00    -0.311 N 
HETATM    9  C   UNL     1     -40.839 -51.338  12.943  1.00  0.00     0.136 C 
HETATM   10  C   UNL     1     -40.850 -52.565  12.033  1.00  0.00     0.034 C 
BRANCH   8  11
HETATM   11  S   UNL     1     -38.270 -50.887  13.738  1.00  0.00     0.224 S 
HETATM   12  C   UNL     1     -38.627 -49.337  12.933  1.00  0.00     0.186 C 
HETATM   13  O   UNL     1     -37.621 -51.735  12.761  1.00  0.00    -0.206 OA
HETATM   14  O   UNL     1     -37.653 -50.606  15.015  1.00  0.00    -0.206 OA
ENDBRANCH   8  11
ENDBRANCH   1   5
BRANCH   3  15
HETATM   15  C   UNL     1     -44.803 -54.006  12.812  1.00  0.00     0.128 C 
BRANCH  15  16
HETATM   16  C   UNL     1     -45.523 -52.672  12.966  1.00  0.00     0.076 C 
BRANCH  16  17
HETATM   17  C   UNL     1     -46.012 -52.518  14.383  1.00  0.00     0.010 A 
HETATM   18  C   UNL     1     -46.861 -51.470  14.732  1.00  0.00     0.025 A 
HETATM   19  C   UNL     1     -47.216 -51.310  16.068  1.00  0.00     0.003 A 
HETATM   20  C   UNL     1     -46.716 -52.194  17.016  1.00  0.00     0.017 A 
HETATM   21  C   UNL     1     -45.883 -53.211  16.584  1.00  0.00     0.088 A 
HETATM   22  N   UNL     1     -45.522 -53.392  15.294  1.00  0.00    -0.369 N 
ATOM     23  HN  UNL     1     -44.904 -54.155  15.018  1.00  0.00     0.165 HD
ENDBRANCH  16  17
ENDBRANCH  15  16
ENDBRANCH   3  15
TORSDOF 5
ENDMDL
MODEL 2
REMARK VINA RESULT:      -5.7      4.499      5.312
REMARK  5 active torsions:
REMARK  status: ('A' for Active; 'I' for Inactive)
REMARK    1  A    between atoms: S_2  and  N_5 
REMARK    2  A    between atoms: C_8  and  C_11 
REMARK       I    between atoms: C_11  and  N_13 
REMARK    3  A    between atoms: N_13  and  C_14 
REMARK    4  A    between atoms: C_14  and  C_15 
REMARK    5  A    between atoms: C_15  and  C_16 
ROOT
HETATM    1  C   UNL     1     -42.696 -49.207  12.592  1.00  0.00     0.221 C 
HETATM    2  O   UNL     1     -42.683 -49.170  13.820  1.00  0.00    -0.273 OA
HETATM    3  N   UNL     1     -42.403 -50.356  11.889  1.00  0.00    -0.360 N 
HETATM    4  H   UNL     1     -42.483 -50.370  10.880  1.00  0.00     0.162 HD
ENDROOT
BRANCH   1   5
HETATM    5  C   UNL     1     -43.065 -48.001  11.729  1.00  0.00     0.081 C 
HETATM    6  C   UNL     1     -42.125 -47.847  10.528  1.00  0.00     0.034 C 
HETATM    7  C   UNL     1     -40.737 -47.378  10.954  1.00  0.00     0.136 C 
HETATM    8  N   UNL     1     -40.818 -46.122  11.727  1.00  0.00    -0.311 N 
HETATM    9  C   UNL     1     -41.684 -46.218  12.925  1.00  0.00     0.136 C 
HETATM   10  C   UNL     1     -43.084 -46.704  12.554  1.00  0.00     0.034 C 
BRANCH   8  11
HETATM   11  S   UNL     1     -40.760 -44.650  10.895  1.00  0.00     0.224 S 
HETATM   12  C   UNL     1     -40.064 -43.578  12.136  1.00  0.00     0.186 C 
HETATM   13  O   UNL     1     -42.114 -44.201  10.654  1.00  0.00    -0.206 OA
HETATM   14  O   UNL     1     -39.808 -44.776   9.813  1.00  0.00    -0.206 OA
ENDBRANCH   8  11
ENDBRANCH   1   5
BRANCH   3  15
HETATM   15  C   UNL     1     -42.048 -51.571  12.601  1.00  0.00     0.128 C 
BRANCH  15  16
HETATM   16  C   UNL     1     -43.118 -52.653  12.525  1.00  0.00     0.076 C 
BRANCH  16  17
HETATM   17  C   UNL     1     -44.318 -52.239  13.338  1.00  0.00     0.010 A 
HETATM   18  C   UNL     1     -45.580 -52.164  12.754  1.00  0.00     0.025 A 
HETATM   19  C   UNL     1     -46.644 -51.690  13.515  1.00  0.00     0.003 A 
HETATM   20  C   UNL     1     -46.422 -51.304  14.831  1.00  0.00     0.017 A 
HETATM   21  C   UNL     1     -45.139 -51.416  15.336  1.00  0.00     0.088 A 
HETATM   22  N   UNL     1     -44.086 -51.873  14.622  1.00  0.00    -0.369 N 
ATOM     23  HN  UNL     1     -43.155 -51.939  15.032  1.00  0.00     0.165 HD
ENDBRANCH  16  17
ENDBRANCH  15  16
ENDBRANCH   3  15
TORSDOF 5
ENDMDL
MODEL 3
REMARK VINA RESULT:      -5.7      3.552      6.721
REMARK  5 active torsions:
REMARK  status: ('A' for Active; 'I' for Inactive)
REMARK    1  A    between atoms: S_2  and  N_5 
REMARK    2  A    between atoms: C_8  and  C_11 
REMARK       I    between atoms: C_11  and  N_13 
REMARK    3  A    between atoms: N_13  and  C_14 
REMARK    4  A    between atoms: C_14  and  C_15 
REMARK    5  A    between atoms: C_15  and  C_16 
ROOT
HETATM    1  C   UNL     1     -41.163 -52.473  12.729  1.00  0.00     0.221 C 
HETATM    2  O   UNL     1     -40.326 -52.277  13.606  1.00  0.00    -0.273 OA
HETATM    3  N   UNL     1     -41.292 -51.640  11.638  1.00  0.00    -0.360 N 
HETATM    4  H   UNL     1     -41.949 -51.864  10.902  1.00  0.00     0.162 HD
ENDROOT
BRANCH   1   5
HETATM    5  C   UNL     1     -42.118 -53.666  12.745  1.00  0.00     0.081 C 
HETATM    6  C   UNL     1     -43.544 -53.264  12.353  1.00  0.00     0.034 C 
HETATM    7  C   UNL     1     -44.220 -52.445  13.449  1.00  0.00     0.136 C 
HETATM    8  N   UNL     1     -44.210 -53.173  14.735  1.00  0.00    -0.311 N 
HETATM    9  C   UNL     1     -42.852 -53.557  15.186  1.00  0.00     0.136 C 
HETATM   10  C   UNL     1     -42.123 -54.364  14.114  1.00  0.00     0.034 C 
BRANCH   8  11
HETATM   11  S   UNL     1     -45.498 -54.208  15.093  1.00  0.00     0.224 S 
HETATM   12  C   UNL     1     -46.894 -53.192  14.650  1.00  0.00     0.186 C 
HETATM   13  O   UNL     1     -45.551 -54.403  16.526  1.00  0.00    -0.206 OA
HETATM   14  O   UNL     1     -45.445 -55.333  14.185  1.00  0.00    -0.206 OA
ENDBRANCH   8  11
ENDBRANCH   1   5
BRANCH   3  15
HETATM   15  C   UNL     1     -40.431 -50.477  11.508  1.00  0.00     0.128 C 
BRANCH  15  16
HETATM   16  C   UNL     1     -40.924 -49.268  12.294  1.00  0.00     0.076 C 
BRANCH  16  17
HETATM   17  C   UNL     1     -41.442 -48.220  11.344  1.00  0.00     0.010 A 
HETATM   18  C   UNL     1     -40.828 -46.973  11.258  1.00  0.00     0.025 A 
HETATM   19  C   UNL     1     -41.393 -46.002  10.436  1.00  0.00     0.003 A 
HETATM   20  C   UNL     1     -42.549 -46.299   9.726  1.00  0.00     0.017 A 
HETATM   21  C   UNL     1     -43.092 -47.565   9.863  1.00  0.00     0.088 A 
HETATM   22  N   UNL     1     -42.566 -48.527  10.653  1.00  0.00    -0.369 N 
ATOM     23  HN  UNL     1     -42.999 -49.448  10.726  1.00  0.00     0.165 HD
ENDBRANCH  16  17
ENDBRANCH  15  16
ENDBRANCH   3  15
TORSDOF 5
ENDMDL
MODEL 4
REMARK VINA RESULT:      -5.6      3.358      7.143
REMARK  5 active torsions:
REMARK  status: ('A' for Active; 'I' for Inactive)
REMARK    1  A    between atoms: S_2  and  N_5 
REMARK    2  A    between atoms: C_8  and  C_11 
REMARK       I    between atoms: C_11  and  N_13 
REMARK    3  A    between atoms: N_13  and  C_14 
REMARK    4  A    between atoms: C_14  and  C_15 
REMARK    5  A    between atoms: C_15  and  C_16 
ROOT
HETATM    1  C   UNL     1     -40.533 -51.786  12.489  1.00  0.00     0.221 C 
HETATM    2  O   UNL     1     -39.864 -51.445  13.460  1.00  0.00    -0.273 OA
HETATM    3  N   UNL     1     -40.724 -50.960  11.402  1.00  0.00    -0.360 N 
HETATM    4  H   UNL     1     -41.229 -51.294  10.591  1.00  0.00     0.162 HD
ENDROOT
BRANCH   1   5
HETATM    5  C   UNL     1     -41.192 -53.161  12.375  1.00  0.00     0.081 C 
HETATM    6  C   UNL     1     -42.640 -53.064  11.885  1.00  0.00     0.034 C 
HETATM    7  C   UNL     1     -43.560 -52.484  12.955  1.00  0.00     0.136 C 
HETATM    8  N   UNL     1     -43.476 -53.266  14.205  1.00  0.00    -0.311 N 
HETATM    9  C   UNL     1     -42.102 -53.364  14.750  1.00  0.00     0.136 C 
HETATM   10  C   UNL     1     -41.135 -53.923  13.709  1.00  0.00     0.034 C 
BRANCH   8  11
HETATM   11  S   UNL     1     -44.518 -54.582  14.412  1.00  0.00     0.224 S 
HETATM   12  C   UNL     1     -45.638 -53.947  15.645  1.00  0.00     0.186 C 
HETATM   13  O   UNL     1     -43.779 -55.665  15.025  1.00  0.00    -0.206 OA
HETATM   14  O   UNL     1     -45.255 -54.777  13.183  1.00  0.00    -0.206 OA
ENDBRANCH   8  11
ENDBRANCH   1   5
BRANCH   3  15
HETATM   15  C   UNL     1     -40.138 -49.631  11.390  1.00  0.00     0.128 C 
BRANCH  15  16
HETATM   16  C   UNL     1     -41.140 -48.530  11.064  1.00  0.00     0.076 C 
BRANCH  16  17
HETATM   17  C   UNL     1     -40.513 -47.182  11.310  1.00  0.00     0.010 A 
HETATM   18  C   UNL     1     -40.120 -46.804  12.592  1.00  0.00     0.025 A 
HETATM   19  C   UNL     1     -39.630 -45.517  12.792  1.00  0.00     0.003 A 
HETATM   20  C   UNL     1     -39.547 -44.645  11.715  1.00  0.00     0.017 A 
HETATM   21  C   UNL     1     -39.952 -45.101  10.473  1.00  0.00     0.088 A 
HETATM   22  N   UNL     1     -40.431 -46.345  10.248  1.00  0.00    -0.369 N 
ATOM     23  HN  UNL     1     -40.721 -46.642   9.316  1.00  0.00     0.165 HD
ENDBRANCH  16  17
ENDBRANCH  15  16
ENDBRANCH   3  15
TORSDOF 5
ENDMDL
MODEL 5
REMARK VINA RESULT:      -5.4      4.088      5.501
REMARK  5 active torsions:
REMARK  status: ('A' for Active; 'I' for Inactive)
REMARK    1  A    between atoms: S_2  and  N_5 
REMARK    2  A    between atoms: C_8  and  C_11 
REMARK       I    between atoms: C_11  and  N_13 
REMARK    3  A    between atoms: N_13  and  C_14 
REMARK    4  A    between atoms: C_14  and  C_15 
REMARK    5  A    between atoms: C_15  and  C_16 
ROOT
HETATM    1  C   UNL     1     -42.019 -50.103  12.713  1.00  0.00     0.221 C 
HETATM    2  O   UNL     1     -43.178 -50.507  12.672  1.00  0.00    -0.273 OA
HETATM    3  N   UNL     1     -40.959 -50.864  12.265  1.00  0.00    -0.360 N 
HETATM    4  H   UNL     1     -40.024 -50.478  12.254  1.00  0.00     0.162 HD
ENDROOT
BRANCH   1   5
HETATM    5  C   UNL     1     -41.640 -48.717  13.233  1.00  0.00     0.081 C 
HETATM    6  C   UNL     1     -42.814 -47.735  13.157  1.00  0.00     0.034 C 
HETATM    7  C   UNL     1     -43.124 -47.336  11.718  1.00  0.00     0.136 C 
HETATM    8  N   UNL     1     -41.927 -46.781  11.053  1.00  0.00    -0.311 N 
HETATM    9  C   UNL     1     -40.765 -47.701  11.061  1.00  0.00     0.136 C 
HETATM   10  C   UNL     1     -40.425 -48.148  12.482  1.00  0.00     0.034 C 
BRANCH   8  11
HETATM   11  S   UNL     1     -41.634 -45.119  11.162  1.00  0.00     0.224 S 
HETATM   12  C   UNL     1     -40.024 -45.001  10.407  1.00  0.00     0.186 C 
HETATM   13  O   UNL     1     -41.479 -44.766  12.557  1.00  0.00    -0.206 OA
HETATM   14  O   UNL     1     -42.587 -44.433  10.317  1.00  0.00    -0.206 OA
ENDBRANCH   8  11
ENDBRANCH   1   5
BRANCH   3  15
HETATM   15  C   UNL     1     -41.196 -52.197  11.738  1.00  0.00     0.128 C 
BRANCH  15  16
HETATM   16  C   UNL     1     -40.936 -53.304  12.752  1.00  0.00     0.076 C 
BRANCH  16  17
HETATM   17  C   UNL     1     -42.245 -53.821  13.288  1.00  0.00     0.010 A 
HETATM   18  C   UNL     1     -42.291 -54.546  14.477  1.00  0.00     0.025 A 
HETATM   19  C   UNL     1     -43.506 -55.083  14.889  1.00  0.00     0.003 A 
HETATM   20  C   UNL     1     -44.638 -54.887  14.108  1.00  0.00     0.017 A 
HETATM   21  C   UNL     1     -44.508 -54.149  12.944  1.00  0.00     0.088 A 
HETATM   22  N   UNL     1     -43.342 -53.615  12.519  1.00  0.00    -0.369 N 
ATOM     23  HN  UNL     1     -43.289 -53.078  11.653  1.00  0.00     0.165 HD
ENDBRANCH  16  17
ENDBRANCH  15  16
ENDBRANCH   3  15
TORSDOF 5
ENDMDL
MODEL 6
REMARK VINA RESULT:      -5.4      2.810      6.867
REMARK  5 active torsions:
REMARK  status: ('A' for Active; 'I' for Inactive)
REMARK    1  A    between atoms: S_2  and  N_5 
REMARK    2  A    between atoms: C_8  and  C_11 
REMARK       I    between atoms: C_11  and  N_13 
REMARK    3  A    between atoms: N_13  and  C_14 
REMARK    4  A    between atoms: C_14  and  C_15 
REMARK    5  A    between atoms: C_15  and  C_16 
ROOT
HETATM    1  C   UNL     1     -41.457 -54.027  13.565  1.00  0.00     0.221 C 
HETATM    2  O   UNL     1     -41.153 -53.650  12.437  1.00  0.00    -0.273 OA
HETATM    3  N   UNL     1     -40.544 -54.069  14.597  1.00  0.00    -0.360 N 
HETATM    4  H   UNL     1     -40.841 -54.325  15.530  1.00  0.00     0.162 HD
ENDROOT
BRANCH   1   5
HETATM    5  C   UNL     1     -42.875 -54.456  13.944  1.00  0.00     0.081 C 
HETATM    6  C   UNL     1     -43.912 -53.970  12.925  1.00  0.00     0.034 C 
HETATM    7  C   UNL     1     -44.124 -52.461  13.013  1.00  0.00     0.136 C 
HETATM    8  N   UNL     1     -44.499 -52.058  14.383  1.00  0.00    -0.311 N 
HETATM    9  C   UNL     1     -43.514 -52.468  15.412  1.00  0.00     0.136 C 
HETATM   10  C   UNL     1     -43.250 -53.972  15.353  1.00  0.00     0.034 C 
BRANCH   8  11
HETATM   11  S   UNL     1     -46.137 -52.037  14.805  1.00  0.00     0.224 S 
HETATM   12  C   UNL     1     -46.089 -51.122  16.334  1.00  0.00     0.186 C 
HETATM   13  O   UNL     1     -46.550 -53.386  15.128  1.00  0.00    -0.206 OA
HETATM   14  O   UNL     1     -46.849 -51.249  13.823  1.00  0.00    -0.206 OA
ENDBRANCH   8  11
ENDBRANCH   1   5
BRANCH   3  15
HETATM   15  C   UNL     1     -39.165 -53.676  14.362  1.00  0.00     0.128 C 
BRANCH  15  16
HETATM   16  C   UNL     1     -38.870 -52.235  14.761  1.00  0.00     0.076 C 
BRANCH  16  17
HETATM   17  C   UNL     1     -38.723 -51.384  13.527  1.00  0.00     0.010 A 
HETATM   18  C   UNL     1     -37.462 -51.085  13.015  1.00  0.00     0.025 A 
HETATM   19  C   UNL     1     -37.366 -50.222  11.928  1.00  0.00     0.003 A 
HETATM   20  C   UNL     1     -38.524 -49.681  11.383  1.00  0.00     0.017 A 
HETATM   21  C   UNL     1     -39.737 -50.034  11.947  1.00  0.00     0.088 A 
HETATM   22  N   UNL     1     -39.862 -50.870  13.002  1.00  0.00    -0.369 N 
ATOM     23  HN  UNL     1     -40.776 -51.104  13.389  1.00  0.00     0.165 HD
ENDBRANCH  16  17
ENDBRANCH  15  16
ENDBRANCH   3  15
TORSDOF 5
ENDMDL
MODEL 7
REMARK VINA RESULT:      -5.3      2.216      3.048
REMARK  5 active torsions:
REMARK  status: ('A' for Active; 'I' for Inactive)
REMARK    1  A    between atoms: S_2  and  N_5 
REMARK    2  A    between atoms: C_8  and  C_11 
REMARK       I    between atoms: C_11  and  N_13 
REMARK    3  A    between atoms: N_13  and  C_14 
REMARK    4  A    between atoms: C_14  and  C_15 
REMARK    5  A    between atoms: C_15  and  C_16 
ROOT
HETATM    1  C   UNL     1     -45.052 -54.221  14.777  1.00  0.00     0.221 C 
HETATM    2  O   UNL     1     -45.152 -54.531  15.961  1.00  0.00    -0.273 OA
HETATM    3  N   UNL     1     -46.015 -53.477  14.128  1.00  0.00    -0.360 N 
HETATM    4  H   UNL     1     -45.873 -53.187  13.169  1.00  0.00     0.162 HD
ENDROOT
BRANCH   1   5
HETATM    5  C   UNL     1     -43.846 -54.601  13.919  1.00  0.00     0.081 C 
HETATM    6  C   UNL     1     -42.533 -54.519  14.706  1.00  0.00     0.034 C 
HETATM    7  C   UNL     1     -42.136 -53.074  14.990  1.00  0.00     0.136 C 
HETATM    8  N   UNL     1     -42.052 -52.292  13.739  1.00  0.00    -0.311 N 
HETATM    9  C   UNL     1     -43.306 -52.302  12.950  1.00  0.00     0.136 C 
HETATM   10  C   UNL     1     -43.760 -53.731  12.654  1.00  0.00     0.034 C 
BRANCH   8  11
HETATM   11  S   UNL     1     -40.580 -52.245  12.907  1.00  0.00     0.224 S 
HETATM   12  C   UNL     1     -39.417 -52.306  14.255  1.00  0.00     0.186 C 
HETATM   13  O   UNL     1     -40.443 -50.947  12.282  1.00  0.00    -0.206 OA
HETATM   14  O   UNL     1     -40.453 -53.464  12.138  1.00  0.00    -0.206 OA
ENDBRANCH   8  11
ENDBRANCH   1   5
BRANCH   3  15
HETATM   15  C   UNL     1     -47.204 -53.049  14.843  1.00  0.00     0.128 C 
BRANCH  15  16
HETATM   16  C   UNL     1     -47.121 -51.614  15.351  1.00  0.00     0.076 C 
BRANCH  16  17
HETATM   17  C   UNL     1     -47.399 -51.582  16.832  1.00  0.00     0.010 A 
HETATM   18  C   UNL     1     -48.162 -50.560  17.390  1.00  0.00     0.025 A 
HETATM   19  C   UNL     1     -48.318 -50.516  18.772  1.00  0.00     0.003 A 
HETATM   20  C   UNL     1     -47.710 -51.488  19.557  1.00  0.00     0.017 A 
HETATM   21  C   UNL     1     -46.974 -52.473  18.923  1.00  0.00     0.088 A 
HETATM   22  N   UNL     1     -46.805 -52.541  17.583  1.00  0.00    -0.369 N 
ATOM     23  HN  UNL     1     -46.253 -53.284  17.155  1.00  0.00     0.165 HD
ENDBRANCH  16  17
ENDBRANCH  15  16
ENDBRANCH   3  15
TORSDOF 5
ENDMDL
MODEL 8
REMARK VINA RESULT:      -5.3      2.657      6.770
REMARK  5 active torsions:
REMARK  status: ('A' for Active; 'I' for Inactive)
REMARK    1  A    between atoms: S_2  and  N_5 
REMARK    2  A    between atoms: C_8  and  C_11 
REMARK       I    between atoms: C_11  and  N_13 
REMARK    3  A    between atoms: N_13  and  C_14 
REMARK    4  A    between atoms: C_14  and  C_15 
REMARK    5  A    between atoms: C_15  and  C_16 
ROOT
HETATM    1  C   UNL     1     -41.254 -52.572  12.557  1.00  0.00     0.221 C 
HETATM    2  O   UNL     1     -40.163 -52.594  13.119  1.00  0.00    -0.273 OA
HETATM    3  N   UNL     1     -41.662 -51.505  11.785  1.00  0.00    -0.360 N 
HETATM    4  H   UNL     1     -42.541 -51.545  11.286  1.00  0.00     0.162 HD
ENDROOT
BRANCH   1   5
HETATM    5  C   UNL     1     -42.250 -53.729  12.632  1.00  0.00     0.081 C 
HETATM    6  C   UNL     1     -43.682 -53.274  12.332  1.00  0.00     0.034 C 
HETATM    7  C   UNL     1     -44.257 -52.435  13.469  1.00  0.00     0.136 C 
HETATM    8  N   UNL     1     -44.192 -53.166  14.752  1.00  0.00    -0.311 N 
HETATM    9  C   UNL     1     -42.823 -53.601  15.116  1.00  0.00     0.136 C 
HETATM   10  C   UNL     1     -42.193 -54.431  13.999  1.00  0.00     0.034 C 
BRANCH   8  11
HETATM   11  S   UNL     1     -45.492 -54.155  15.191  1.00  0.00     0.224 S 
HETATM   12  C   UNL     1     -46.875 -53.092  14.824  1.00  0.00     0.186 C 
HETATM   13  O   UNL     1     -45.467 -54.343  16.625  1.00  0.00    -0.206 OA
HETATM   14  O   UNL     1     -45.530 -55.283  14.287  1.00  0.00    -0.206 OA
ENDBRANCH   8  11
ENDBRANCH   1   5
BRANCH   3  15
HETATM   15  C   UNL     1     -40.796 -50.349  11.631  1.00  0.00     0.128 C 
BRANCH  15  16
HETATM   16  C   UNL     1     -41.095 -49.231  12.622  1.00  0.00     0.076 C 
BRANCH  16  17
HETATM   17  C   UNL     1     -39.833 -48.847  13.351  1.00  0.00     0.010 A 
HETATM   18  C   UNL     1     -39.498 -47.508  13.536  1.00  0.00     0.025 A 
HETATM   19  C   UNL     1     -38.281 -47.197  14.133  1.00  0.00     0.003 A 
HETATM   20  C   UNL     1     -37.432 -48.224  14.526  1.00  0.00     0.017 A 
HETATM   21  C   UNL     1     -37.844 -49.528  14.312  1.00  0.00     0.088 A 
HETATM   22  N   UNL     1     -39.020 -49.860  13.736  1.00  0.00    -0.369 N 
ATOM     23  HN  UNL     1     -39.285 -50.835  13.595  1.00  0.00     0.165 HD
ENDBRANCH  16  17
ENDBRANCH  15  16
ENDBRANCH   3  15
TORSDOF 5
ENDMDL
MODEL 9
REMARK VINA RESULT:      -5.3      1.690      1.938
REMARK  5 active torsions:
REMARK  status: ('A' for Active; 'I' for Inactive)
REMARK    1  A    between atoms: S_2  and  N_5 
REMARK    2  A    between atoms: C_8  and  C_11 
REMARK       I    between atoms: C_11  and  N_13 
REMARK    3  A    between atoms: N_13  and  C_14 
REMARK    4  A    between atoms: C_14  and  C_15 
REMARK    5  A    between atoms: C_15  and  C_16 
ROOT
HETATM    1  C   UNL     1     -44.074 -54.073  14.502  1.00  0.00     0.221 C 
HETATM    2  O   UNL     1     -44.520 -54.069  15.646  1.00  0.00    -0.273 OA
HETATM    3  N   UNL     1     -44.813 -53.635  13.423  1.00  0.00    -0.360 N 
HETATM    4  H   UNL     1     -44.395 -53.594  12.503  1.00  0.00     0.162 HD
ENDROOT
BRANCH   1   5
HETATM    5  C   UNL     1     -42.657 -54.534  14.165  1.00  0.00     0.081 C 
HETATM    6  C   UNL     1     -41.719 -54.435  15.373  1.00  0.00     0.034 C 
HETATM    7  C   UNL     1     -41.388 -52.985  15.713  1.00  0.00     0.136 C 
HETATM    8  N   UNL     1     -40.819 -52.285  14.543  1.00  0.00    -0.311 N 
HETATM    9  C   UNL     1     -41.698 -52.314  13.351  1.00  0.00     0.136 C 
HETATM   10  C   UNL     1     -42.076 -53.746  12.979  1.00  0.00     0.034 C 
BRANCH   8  11
HETATM   11  S   UNL     1     -39.145 -52.325  14.307  1.00  0.00     0.224 S 
HETATM   12  C   UNL     1     -38.949 -51.119  13.009  1.00  0.00     0.186 C 
HETATM   13  O   UNL     1     -38.786 -53.612  13.751  1.00  0.00    -0.206 OA
HETATM   14  O   UNL     1     -38.504 -51.819  15.501  1.00  0.00    -0.206 OA
ENDBRANCH   8  11
ENDBRANCH   1   5
BRANCH   3  15
HETATM   15  C   UNL     1     -46.173 -53.163  13.620  1.00  0.00     0.128 C 
BRANCH  15  16
HETATM   16  C   UNL     1     -46.274 -51.649  13.763  1.00  0.00     0.076 C 
BRANCH  16  17
HETATM   17  C   UNL     1     -46.301 -51.277  15.223  1.00  0.00     0.010 A 
HETATM   18  C   UNL     1     -47.482 -51.358  15.956  1.00  0.00     0.025 A 
HETATM   19  C   UNL     1     -47.484 -50.919  17.276  1.00  0.00     0.003 A 
HETATM   20  C   UNL     1     -46.315 -50.411  17.828  1.00  0.00     0.017 A 
HETATM   21  C   UNL     1     -45.183 -50.371  17.033  1.00  0.00     0.088 A 
HETATM   22  N   UNL     1     -45.150 -50.791  15.748  1.00  0.00    -0.369 N 
ATOM     23  HN  UNL     1     -44.294 -50.743  15.196  1.00  0.00     0.165 HD
ENDBRANCH  16  17
ENDBRANCH  15  16
ENDBRANCH   3  15
TORSDOF 5
ENDMDL
