MODEL 1
REMARK VINA RESULT:      -6.4      0.000      0.000
REMARK  3 active torsions:
REMARK  status: ('A' for Active; 'I' for Inactive)
REMARK       I    between atoms: C_2  and  N_3 
REMARK       I    between atoms: C_2  and  N_11 
REMARK    1  A    between atoms: N_3  and  C_4 
REMARK    2  A    between atoms: N_11  and  C_12 
REMARK    3  A    between atoms: C_15  and  N_19 
ROOT
HETATM    1  C   UNL     1     -41.136 -49.052  11.531  1.00  0.00     0.051 A 
HETATM    2  C   UNL     1     -39.909 -48.795  12.121  1.00  0.00     0.035 A 
HETATM    3  C   UNL     1     -39.394 -47.495  12.132  1.00  0.00     0.051 A 
HETATM    4  C   UNL     1     -40.098 -46.444  11.552  1.00  0.00     0.103 A 
HETATM    5  N   UNL     1     -41.269 -46.707  10.926  1.00  0.00    -0.350 N 
ATOM      6  HN  UNL     1     -41.785 -45.956  10.466  1.00  0.00     0.166 HD
HETATM    7  C   UNL     1     -41.752 -47.976  10.916  1.00  0.00     0.119 A 
ENDROOT
BRANCH   1   8
HETATM    8  N   UNL     1     -41.763 -50.319  11.550  1.00  0.00    -0.308 N 
HETATM    9  C   UNL     1     -42.392 -50.845  12.652  1.00  0.00     0.321 C 
HETATM   10  O   UNL     1     -42.531 -50.287  13.734  1.00  0.00    -0.247 OA
HETATM   11  N   UNL     1     -42.916 -52.098  12.422  1.00  0.00    -0.337 N 
HETATM   12  H   UNL     1     -42.522 -52.638  11.665  1.00  0.00     0.164 HD
HETATM   13  H   UNL     1     -42.004 -50.728  10.659  1.00  0.00     0.170 HD
BRANCH  11  14
HETATM   14  C   UNL     1     -43.629 -52.811  13.482  1.00  0.00     0.101 C 
HETATM   15  C   UNL     1     -42.720 -53.806  14.237  1.00  0.00     0.041 C 
HETATM   16  C   UNL     1     -43.541 -54.980  14.760  1.00  0.00     0.142 C 
HETATM   17  S   UNL     1     -45.229 -54.696  14.288  1.00  0.00     0.146 S 
HETATM   18  O   UNL     1     -45.785 -55.907  13.721  1.00  0.00    -0.228 OA
HETATM   19  O   UNL     1     -45.885 -53.976  15.360  1.00  0.00    -0.228 OA
HETATM   20  C   UNL     1     -44.877 -53.546  12.993  1.00  0.00     0.165 C 
ENDBRANCH  11  14
ENDBRANCH   1   8
BRANCH   4  21
HETATM   21  N   UNL     1     -39.644 -45.146  11.570  1.00  0.00    -0.363 N 
HETATM   22  C   UNL     1     -38.947 -44.495  12.686  1.00  0.00     0.150 C 
HETATM   23  C   UNL     1     -39.798 -43.338  13.234  1.00  0.00     0.187 C 
HETATM   24  O   UNL     1     -40.132 -42.398  12.200  1.00  0.00    -0.388 OA
HETATM   25  C   UNL     1     -40.873 -43.053  11.154  1.00  0.00     0.187 C 
HETATM   26  C   UNL     1     -40.075 -44.207  10.523  1.00  0.00     0.150 C 
ENDBRANCH   4  21
TORSDOF 3
ENDMDL
MODEL 2
REMARK VINA RESULT:      -6.2      4.010      9.058
REMARK  3 active torsions:
REMARK  status: ('A' for Active; 'I' for Inactive)
REMARK       I    between atoms: C_2  and  N_3 
REMARK       I    between atoms: C_2  and  N_11 
REMARK    1  A    between atoms: N_3  and  C_4 
REMARK    2  A    between atoms: N_11  and  C_12 
REMARK    3  A    between atoms: C_15  and  N_19 
ROOT
HETATM    1  C   UNL     1     -40.766 -52.432  12.559  1.00  0.00     0.051 A 
HETATM    2  C   UNL     1     -41.682 -53.423  12.871  1.00  0.00     0.035 A 
HETATM    3  C   UNL     1     -41.409 -54.332  13.897  1.00  0.00     0.051 A 
HETATM    4  C   UNL     1     -40.220 -54.262  14.616  1.00  0.00     0.103 A 
HETATM    5  N   UNL     1     -39.301 -53.329  14.272  1.00  0.00    -0.350 N 
ATOM      6  HN  UNL     1     -38.409 -53.281  14.765  1.00  0.00     0.166 HD
HETATM    7  C   UNL     1     -39.577 -52.458  13.267  1.00  0.00     0.119 A 
ENDROOT
BRANCH   1   8
HETATM    8  N   UNL     1     -41.000 -51.425  11.595  1.00  0.00    -0.308 N 
HETATM    9  C   UNL     1     -41.460 -50.167  11.898  1.00  0.00     0.321 C 
HETATM   10  O   UNL     1     -41.687 -49.737  13.023  1.00  0.00    -0.247 OA
HETATM   11  N   UNL     1     -41.617 -49.372  10.785  1.00  0.00    -0.337 N 
HETATM   12  H   UNL     1     -41.731 -49.832   9.892  1.00  0.00     0.164 HD
HETATM   13  H   UNL     1     -40.552 -51.533  10.696  1.00  0.00     0.170 HD
BRANCH  11  14
HETATM   14  C   UNL     1     -42.092 -47.994  10.916  1.00  0.00     0.101 C 
HETATM   15  C   UNL     1     -43.023 -47.579   9.755  1.00  0.00     0.041 C 
HETATM   16  C   UNL     1     -42.909 -46.080   9.497  1.00  0.00     0.142 C 
HETATM   17  S   UNL     1     -41.749 -45.428  10.672  1.00  0.00     0.146 S 
HETATM   18  O   UNL     1     -40.809 -44.560   9.996  1.00  0.00    -0.228 OA
HETATM   19  O   UNL     1     -42.484 -45.002  11.846  1.00  0.00    -0.228 OA
HETATM   20  C   UNL     1     -40.967 -46.968  11.047  1.00  0.00     0.165 C 
ENDBRANCH  11  14
ENDBRANCH   1   8
BRANCH   4  21
HETATM   21  N   UNL     1     -39.928 -55.116  15.654  1.00  0.00    -0.363 N 
HETATM   22  C   UNL     1     -40.870 -55.575  16.681  1.00  0.00     0.150 C 
HETATM   23  C   UNL     1     -40.433 -55.063  18.062  1.00  0.00     0.187 C 
HETATM   24  O   UNL     1     -39.086 -55.461  18.366  1.00  0.00    -0.388 OA
HETATM   25  C   UNL     1     -38.179 -54.939  17.379  1.00  0.00     0.187 C 
HETATM   26  C   UNL     1     -38.525 -55.434  15.964  1.00  0.00     0.150 C 
ENDBRANCH   4  21
TORSDOF 3
ENDMDL
MODEL 3
REMARK VINA RESULT:      -6.0      4.173      5.543
REMARK  3 active torsions:
REMARK  status: ('A' for Active; 'I' for Inactive)
REMARK       I    between atoms: C_2  and  N_3 
REMARK       I    between atoms: C_2  and  N_11 
REMARK    1  A    between atoms: N_3  and  C_4 
REMARK    2  A    between atoms: N_11  and  C_12 
REMARK    3  A    between atoms: C_15  and  N_19 
ROOT
HETATM    1  C   UNL     1     -41.000 -45.177  10.740  1.00  0.00     0.051 A 
HETATM    2  C   UNL     1     -40.202 -44.050  10.856  1.00  0.00     0.035 A 
HETATM    3  C   UNL     1     -40.785 -42.793  11.034  1.00  0.00     0.051 A 
HETATM    4  C   UNL     1     -42.168 -42.649  11.094  1.00  0.00     0.103 A 
HETATM    5  N   UNL     1     -42.948 -43.742  10.924  1.00  0.00    -0.350 N 
ATOM      6  HN  UNL     1     -43.964 -43.654  10.932  1.00  0.00     0.166 HD
HETATM    7  C   UNL     1     -42.367 -44.956  10.742  1.00  0.00     0.119 A 
ENDROOT
BRANCH   1   8
HETATM    8  N   UNL     1     -40.489 -46.491  10.641  1.00  0.00    -0.308 N 
HETATM    9  C   UNL     1     -39.846 -47.141  11.665  1.00  0.00     0.321 C 
HETATM   10  O   UNL     1     -39.665 -46.701  12.795  1.00  0.00    -0.247 OA
HETATM   11  N   UNL     1     -39.432 -48.408  11.319  1.00  0.00    -0.337 N 
HETATM   12  H   UNL     1     -39.310 -48.609  10.336  1.00  0.00     0.164 HD
HETATM   13  H   UNL     1     -40.853 -47.073   9.900  1.00  0.00     0.170 HD
BRANCH  11  14
HETATM   14  C   UNL     1     -38.734 -49.254  12.288  1.00  0.00     0.101 C 
HETATM   15  C   UNL     1     -37.456 -49.891  11.700  1.00  0.00     0.041 C 
HETATM   16  C   UNL     1     -37.179 -51.233  12.371  1.00  0.00     0.142 C 
HETATM   17  S   UNL     1     -38.453 -51.494  13.579  1.00  0.00     0.146 S 
HETATM   18  O   UNL     1     -38.969 -52.840  13.457  1.00  0.00    -0.228 OA
HETATM   19  O   UNL     1     -37.996 -50.955  14.844  1.00  0.00    -0.228 OA
HETATM   20  C   UNL     1     -39.612 -50.352  12.887  1.00  0.00     0.165 C 
ENDBRANCH  11  14
ENDBRANCH   1   8
BRANCH   4  21
HETATM   21  N   UNL     1     -42.780 -41.435  11.302  1.00  0.00    -0.363 N 
HETATM   22  C   UNL     1     -42.133 -40.121  11.220  1.00  0.00     0.150 C 
HETATM   23  C   UNL     1     -42.150 -39.439  12.597  1.00  0.00     0.187 C 
HETATM   24  O   UNL     1     -43.487 -39.337  13.114  1.00  0.00    -0.388 OA
HETATM   25  C   UNL     1     -44.070 -40.646  13.246  1.00  0.00     0.187 C 
HETATM   26  C   UNL     1     -44.124 -41.388  11.900  1.00  0.00     0.150 C 
ENDBRANCH   4  21
TORSDOF 3
ENDMDL
MODEL 4
REMARK VINA RESULT:      -5.7      3.091      3.514
REMARK  3 active torsions:
REMARK  status: ('A' for Active; 'I' for Inactive)
REMARK       I    between atoms: C_2  and  N_3 
REMARK       I    between atoms: C_2  and  N_11 
REMARK    1  A    between atoms: N_3  and  C_4 
REMARK    2  A    between atoms: N_11  and  C_12 
REMARK    3  A    between atoms: C_15  and  N_19 
ROOT
HETATM    1  C   UNL     1     -41.499 -50.064  12.225  1.00  0.00     0.051 A 
HETATM    2  C   UNL     1     -42.490 -49.141  12.521  1.00  0.00     0.035 A 
HETATM    3  C   UNL     1     -42.444 -47.860  11.964  1.00  0.00     0.051 A 
HETATM    4  C   UNL     1     -41.409 -47.489  11.111  1.00  0.00     0.103 A 
HETATM    5  N   UNL     1     -40.412 -48.372  10.868  1.00  0.00    -0.350 N 
ATOM      6  HN  UNL     1     -39.627 -48.109  10.272  1.00  0.00     0.166 HD
HETATM    7  C   UNL     1     -40.466 -49.610  11.424  1.00  0.00     0.119 A 
ENDROOT
BRANCH   1   8
HETATM    8  N   UNL     1     -41.515 -51.402  12.680  1.00  0.00    -0.308 N 
HETATM    9  C   UNL     1     -40.853 -51.836  13.802  1.00  0.00     0.321 C 
HETATM   10  O   UNL     1     -40.205 -51.136  14.570  1.00  0.00    -0.247 OA
HETATM   11  N   UNL     1     -41.014 -53.185  14.030  1.00  0.00    -0.337 N 
HETATM   12  H   UNL     1     -41.267 -53.766  13.243  1.00  0.00     0.164 HD
HETATM   13  H   UNL     1     -42.257 -51.997  12.340  1.00  0.00     0.170 HD
BRANCH  11  14
HETATM   14  C   UNL     1     -40.385 -53.824  15.186  1.00  0.00     0.101 C 
HETATM   15  C   UNL     1     -38.940 -54.285  14.890  1.00  0.00     0.041 C 
HETATM   16  C   UNL     1     -38.592 -55.505  15.737  1.00  0.00     0.142 C 
HETATM   17  S   UNL     1     -40.010 -55.878  16.737  1.00  0.00     0.146 S 
HETATM   18  O   UNL     1     -40.289 -57.297  16.674  1.00  0.00    -0.228 OA
HETATM   19  O   UNL     1     -39.876 -55.174  17.995  1.00  0.00    -0.228 OA
HETATM   20  C   UNL     1     -41.182 -55.003  15.744  1.00  0.00     0.165 C 
ENDBRANCH  11  14
ENDBRANCH   1   8
BRANCH   4  21
HETATM   21  N   UNL     1     -41.345 -46.251  10.516  1.00  0.00    -0.363 N 
HETATM   22  C   UNL     1     -40.124 -45.472  10.282  1.00  0.00     0.150 C 
HETATM   23  C   UNL     1     -40.165 -44.170  11.097  1.00  0.00     0.187 C 
HETATM   24  O   UNL     1     -41.344 -43.404  10.801  1.00  0.00    -0.388 OA
HETATM   25  C   UNL     1     -42.524 -44.170  11.106  1.00  0.00     0.187 C 
HETATM   26  C   UNL     1     -42.580 -45.480  10.301  1.00  0.00     0.150 C 
ENDBRANCH   4  21
TORSDOF 3
ENDMDL
MODEL 5
REMARK VINA RESULT:      -5.6      3.348      9.504
REMARK  3 active torsions:
REMARK  status: ('A' for Active; 'I' for Inactive)
REMARK       I    between atoms: C_2  and  N_3 
REMARK       I    between atoms: C_2  and  N_11 
REMARK    1  A    between atoms: N_3  and  C_4 
REMARK    2  A    between atoms: N_11  and  C_12 
REMARK    3  A    between atoms: C_15  and  N_19 
ROOT
HETATM    1  C   UNL     1     -42.154 -49.230  12.940  1.00  0.00     0.051 A 
HETATM    2  C   UNL     1     -43.136 -49.632  13.829  1.00  0.00     0.035 A 
HETATM    3  C   UNL     1     -43.566 -50.962  13.845  1.00  0.00     0.051 A 
HETATM    4  C   UNL     1     -43.022 -51.899  12.971  1.00  0.00     0.103 A 
HETATM    5  N   UNL     1     -42.103 -51.492  12.065  1.00  0.00    -0.350 N 
ATOM      6  HN  UNL     1     -41.715 -52.155  11.394  1.00  0.00     0.166 HD
HETATM    7  C   UNL     1     -41.702 -50.194  12.055  1.00  0.00     0.119 A 
ENDROOT
BRANCH   1   8
HETATM    8  N   UNL     1     -41.606 -47.927  12.915  1.00  0.00    -0.308 N 
HETATM    9  C   UNL     1     -42.230 -46.846  12.340  1.00  0.00     0.321 C 
HETATM   10  O   UNL     1     -43.337 -46.850  11.816  1.00  0.00    -0.247 OA
HETATM   11  N   UNL     1     -41.490 -45.688  12.436  1.00  0.00    -0.337 N 
HETATM   12  H   UNL     1     -40.493 -45.779  12.573  1.00  0.00     0.164 HD
HETATM   13  H   UNL     1     -40.876 -47.720  13.581  1.00  0.00     0.170 HD
BRANCH  11  14
HETATM   14  C   UNL     1     -42.000 -44.432  11.885  1.00  0.00     0.101 C 
HETATM   15  C   UNL     1     -40.887 -43.583  11.230  1.00  0.00     0.041 C 
HETATM   16  C   UNL     1     -41.226 -42.100  11.335  1.00  0.00     0.142 C 
HETATM   17  S   UNL     1     -42.791 -41.971  12.163  1.00  0.00     0.146 S 
HETATM   18  O   UNL     1     -42.712 -40.960  13.196  1.00  0.00    -0.228 OA
HETATM   19  O   UNL     1     -43.836 -41.968  11.160  1.00  0.00    -0.228 OA
HETATM   20  C   UNL     1     -42.750 -43.575  12.903  1.00  0.00     0.165 C 
ENDBRANCH  11  14
ENDBRANCH   1   8
BRANCH   4  21
HETATM   21  N   UNL     1     -43.393 -53.223  12.977  1.00  0.00    -0.363 N 
HETATM   22  C   UNL     1     -44.709 -53.749  12.597  1.00  0.00     0.150 C 
HETATM   23  C   UNL     1     -45.385 -54.403  13.813  1.00  0.00     0.187 C 
HETATM   24  O   UNL     1     -44.554 -55.426  14.387  1.00  0.00    -0.388 OA
HETATM   25  C   UNL     1     -43.298 -54.865  14.811  1.00  0.00     0.187 C 
HETATM   26  C   UNL     1     -42.535 -54.218  13.642  1.00  0.00     0.150 C 
ENDBRANCH   4  21
TORSDOF 3
ENDMDL
MODEL 6
REMARK VINA RESULT:      -5.5      4.487      9.556
REMARK  3 active torsions:
REMARK  status: ('A' for Active; 'I' for Inactive)
REMARK       I    between atoms: C_2  and  N_3 
REMARK       I    between atoms: C_2  and  N_11 
REMARK    1  A    between atoms: N_3  and  C_4 
REMARK    2  A    between atoms: N_11  and  C_12 
REMARK    3  A    between atoms: C_15  and  N_19 
ROOT
HETATM    1  C   UNL     1     -42.459 -47.283  11.851  1.00  0.00     0.051 A 
HETATM    2  C   UNL     1     -42.400 -47.979  13.048  1.00  0.00     0.035 A 
HETATM    3  C   UNL     1     -41.783 -49.232  13.101  1.00  0.00     0.051 A 
HETATM    4  C   UNL     1     -41.224 -49.802  11.961  1.00  0.00     0.103 A 
HETATM    5  N   UNL     1     -41.333 -49.147  10.781  1.00  0.00    -0.350 N 
ATOM      6  HN  UNL     1     -40.959 -49.561   9.928  1.00  0.00     0.166 HD
HETATM    7  C   UNL     1     -41.943 -47.934  10.744  1.00  0.00     0.119 A 
ENDROOT
BRANCH   1   8
HETATM    8  N   UNL     1     -42.990 -45.979  11.730  1.00  0.00    -0.308 N 
HETATM    9  C   UNL     1     -42.295 -44.837  12.048  1.00  0.00     0.321 C 
HETATM   10  O   UNL     1     -41.133 -44.787  12.432  1.00  0.00    -0.247 OA
HETATM   11  N   UNL     1     -43.033 -43.690  11.853  1.00  0.00    -0.337 N 
HETATM   12  H   UNL     1     -44.039 -43.776  11.850  1.00  0.00     0.164 HD
HETATM   13  H   UNL     1     -43.793 -45.861  11.129  1.00  0.00     0.170 HD
BRANCH  11  14
HETATM   14  C   UNL     1     -42.452 -42.377  12.133  1.00  0.00     0.101 C 
HETATM   15  C   UNL     1     -43.414 -41.465  12.927  1.00  0.00     0.041 C 
HETATM   16  C   UNL     1     -43.156 -40.001  12.585  1.00  0.00     0.142 C 
HETATM   17  S   UNL     1     -41.823 -39.958  11.413  1.00  0.00     0.146 S 
HETATM   18  O   UNL     1     -42.165 -39.073  10.321  1.00  0.00    -0.228 OA
HETATM   19  O   UNL     1     -40.579 -39.835  12.145  1.00  0.00    -0.228 OA
HETATM   20  C   UNL     1     -41.978 -41.637  10.882  1.00  0.00     0.165 C 
ENDBRANCH  11  14
ENDBRANCH   1   8
BRANCH   4  21
HETATM   21  N   UNL     1     -40.579 -51.016  11.977  1.00  0.00    -0.363 N 
HETATM   22  C   UNL     1     -41.210 -52.327  11.784  1.00  0.00     0.150 C 
HETATM   23  C   UNL     1     -41.081 -53.167  13.064  1.00  0.00     0.187 C 
HETATM   24  O   UNL     1     -39.709 -53.296  13.470  1.00  0.00    -0.388 OA
HETATM   25  C   UNL     1     -39.140 -51.998  13.718  1.00  0.00     0.187 C 
HETATM   26  C   UNL     1     -39.195 -51.100  12.470  1.00  0.00     0.150 C 
ENDBRANCH   4  21
TORSDOF 3
ENDMDL
MODEL 7
REMARK VINA RESULT:      -5.5      1.300      1.946
REMARK  3 active torsions:
REMARK  status: ('A' for Active; 'I' for Inactive)
REMARK       I    between atoms: C_2  and  N_3 
REMARK       I    between atoms: C_2  and  N_11 
REMARK    1  A    between atoms: N_3  and  C_4 
REMARK    2  A    between atoms: N_11  and  C_12 
REMARK    3  A    between atoms: C_15  and  N_19 
ROOT
HETATM    1  C   UNL     1     -41.417 -49.148  11.386  1.00  0.00     0.051 A 
HETATM    2  C   UNL     1     -42.500 -48.392  10.965  1.00  0.00     0.035 A 
HETATM    3  C   UNL     1     -42.405 -46.999  10.912  1.00  0.00     0.051 A 
HETATM    4  C   UNL     1     -41.231 -46.349  11.281  1.00  0.00     0.103 A 
HETATM    5  N   UNL     1     -40.194 -47.084  11.746  1.00  0.00    -0.350 N 
ATOM      6  HN  UNL     1     -39.337 -46.625  12.053  1.00  0.00     0.166 HD
HETATM    7  C   UNL     1     -40.305 -48.437  11.801  1.00  0.00     0.119 A 
ENDROOT
BRANCH   1   8
HETATM    8  N   UNL     1     -41.404 -50.561  11.390  1.00  0.00    -0.308 N 
HETATM    9  C   UNL     1     -42.149 -51.330  12.250  1.00  0.00     0.321 C 
HETATM   10  O   UNL     1     -42.941 -50.912  13.086  1.00  0.00    -0.247 OA
HETATM   11  N   UNL     1     -41.955 -52.681  12.064  1.00  0.00    -0.337 N 
HETATM   12  H   UNL     1     -41.098 -52.974  11.617  1.00  0.00     0.164 HD
HETATM   13  H   UNL     1     -41.061 -51.022  10.560  1.00  0.00     0.170 HD
BRANCH  11  14
HETATM   14  C   UNL     1     -42.672 -53.656  12.887  1.00  0.00     0.101 C 
HETATM   15  C   UNL     1     -44.169 -53.754  12.513  1.00  0.00     0.041 C 
HETATM   16  C   UNL     1     -44.993 -54.143  13.736  1.00  0.00     0.142 C 
HETATM   17  S   UNL     1     -43.866 -54.342  15.093  1.00  0.00     0.146 S 
HETATM   18  O   UNL     1     -44.383 -53.655  16.258  1.00  0.00    -0.228 OA
HETATM   19  O   UNL     1     -43.451 -55.729  15.138  1.00  0.00    -0.228 OA
HETATM   20  C   UNL     1     -42.547 -53.400  14.389  1.00  0.00     0.165 C 
ENDBRANCH  11  14
ENDBRANCH   1   8
BRANCH   4  21
HETATM   21  N   UNL     1     -41.086 -44.983  11.212  1.00  0.00    -0.363 N 
HETATM   22  C   UNL     1     -39.845 -44.237  11.451  1.00  0.00     0.150 C 
HETATM   23  C   UNL     1     -40.003 -43.335  12.685  1.00  0.00     0.187 C 
HETATM   24  O   UNL     1     -41.130 -42.454  12.548  1.00  0.00    -0.388 OA
HETATM   25  C   UNL     1     -42.339 -43.216  12.383  1.00  0.00     0.187 C 
HETATM   26  C   UNL     1     -42.279 -44.125  11.144  1.00  0.00     0.150 C 
ENDBRANCH   4  21
TORSDOF 3
ENDMDL
MODEL 8
REMARK VINA RESULT:      -5.4      3.665      9.782
REMARK  3 active torsions:
REMARK  status: ('A' for Active; 'I' for Inactive)
REMARK       I    between atoms: C_2  and  N_3 
REMARK       I    between atoms: C_2  and  N_11 
REMARK    1  A    between atoms: N_3  and  C_4 
REMARK    2  A    between atoms: N_11  and  C_12 
REMARK    3  A    between atoms: C_15  and  N_19 
ROOT
HETATM    1  C   UNL     1     -42.862 -48.993  14.025  1.00  0.00     0.051 A 
HETATM    2  C   UNL     1     -43.364 -49.442  15.236  1.00  0.00     0.035 A 
HETATM    3  C   UNL     1     -44.253 -50.520  15.269  1.00  0.00     0.051 A 
HETATM    4  C   UNL     1     -44.650 -51.155  14.096  1.00  0.00     0.103 A 
HETATM    5  N   UNL     1     -44.203 -50.679  12.911  1.00  0.00    -0.350 N 
ATOM      6  HN  UNL     1     -44.506 -51.109  12.037  1.00  0.00     0.166 HD
HETATM    7  C   UNL     1     -43.347 -49.625  12.893  1.00  0.00     0.119 A 
ENDROOT
BRANCH   1   8
HETATM    8  N   UNL     1     -41.898 -47.965  13.912  1.00  0.00    -0.308 N 
HETATM    9  C   UNL     1     -42.208 -46.651  13.657  1.00  0.00     0.321 C 
HETATM   10  O   UNL     1     -43.337 -46.189  13.537  1.00  0.00    -0.247 OA
HETATM   11  N   UNL     1     -41.095 -45.843  13.582  1.00  0.00    -0.337 N 
HETATM   12  H   UNL     1     -40.210 -46.283  13.370  1.00  0.00     0.164 HD
HETATM   13  H   UNL     1     -40.986 -48.141  14.307  1.00  0.00     0.170 HD
BRANCH  11  14
HETATM   14  C   UNL     1     -41.232 -44.409  13.325  1.00  0.00     0.101 C 
HETATM   15  C   UNL     1     -41.108 -44.067  11.823  1.00  0.00     0.041 C 
HETATM   16  C   UNL     1     -40.535 -42.665  11.648  1.00  0.00     0.142 C 
HETATM   17  S   UNL     1     -40.264 -41.997  13.270  1.00  0.00     0.146 S 
HETATM   18  O   UNL     1     -38.947 -41.399  13.335  1.00  0.00    -0.228 OA
HETATM   19  O   UNL     1     -41.457 -41.279  13.670  1.00  0.00    -0.228 OA
HETATM   20  C   UNL     1     -40.251 -43.548  14.118  1.00  0.00     0.165 C 
ENDBRANCH  11  14
ENDBRANCH   1   8
BRANCH   4  21
HETATM   21  N   UNL     1     -45.495 -52.240  14.088  1.00  0.00    -0.363 N 
HETATM   22  C   UNL     1     -46.376 -52.651  15.187  1.00  0.00     0.150 C 
HETATM   23  C   UNL     1     -45.946 -54.028  15.719  1.00  0.00     0.187 C 
HETATM   24  O   UNL     1     -45.918 -55.009  14.670  1.00  0.00    -0.388 OA
HETATM   25  C   UNL     1     -44.995 -54.610  13.641  1.00  0.00     0.187 C 
HETATM   26  C   UNL     1     -45.374 -53.251  13.026  1.00  0.00     0.150 C 
ENDBRANCH   4  21
TORSDOF 3
ENDMDL
MODEL 9
REMARK VINA RESULT:      -5.4      2.147      2.410
REMARK  3 active torsions:
REMARK  status: ('A' for Active; 'I' for Inactive)
REMARK       I    between atoms: C_2  and  N_3 
REMARK       I    between atoms: C_2  and  N_11 
REMARK    1  A    between atoms: N_3  and  C_4 
REMARK    2  A    between atoms: N_11  and  C_12 
REMARK    3  A    between atoms: C_15  and  N_19 
ROOT
HETATM    1  C   UNL     1     -42.348 -47.531  13.414  1.00  0.00     0.051 A 
HETATM    2  C   UNL     1     -41.232 -47.374  12.609  1.00  0.00     0.035 A 
HETATM    3  C   UNL     1     -41.008 -46.162  11.949  1.00  0.00     0.051 A 
HETATM    4  C   UNL     1     -41.898 -45.100  12.085  1.00  0.00     0.103 A 
HETATM    5  N   UNL     1     -43.016 -45.274  12.826  1.00  0.00    -0.350 N 
ATOM      6  HN  UNL     1     -43.698 -44.520  12.913  1.00  0.00     0.166 HD
HETATM    7  C   UNL     1     -43.225 -46.461  13.454  1.00  0.00     0.119 A 
ENDROOT
BRANCH   1   8
HETATM    8  N   UNL     1     -42.604 -48.692  14.179  1.00  0.00    -0.308 N 
HETATM    9  C   UNL     1     -43.346 -49.756  13.728  1.00  0.00     0.321 C 
HETATM   10  O   UNL     1     -43.844 -49.865  12.614  1.00  0.00    -0.247 OA
HETATM   11  N   UNL     1     -43.461 -50.762  14.662  1.00  0.00    -0.337 N 
HETATM   12  H   UNL     1     -43.326 -50.518  15.633  1.00  0.00     0.164 HD
HETATM   13  H   UNL     1     -41.995 -48.872  14.964  1.00  0.00     0.170 HD
BRANCH  11  14
HETATM   14  C   UNL     1     -44.212 -51.980  14.354  1.00  0.00     0.101 C 
HETATM   15  C   UNL     1     -45.305 -52.279  15.405  1.00  0.00     0.041 C 
HETATM   16  C   UNL     1     -45.542 -53.782  15.506  1.00  0.00     0.142 C 
HETATM   17  S   UNL     1     -44.457 -54.569  14.342  1.00  0.00     0.146 S 
HETATM   18  O   UNL     1     -43.788 -55.684  14.978  1.00  0.00    -0.228 OA
HETATM   19  O   UNL     1     -45.166 -54.710  13.086  1.00  0.00    -0.228 OA
HETATM   20  C   UNL     1     -43.330 -53.216  14.183  1.00  0.00     0.165 C 
ENDBRANCH  11  14
ENDBRANCH   1   8
BRANCH   4  21
HETATM   21  N   UNL     1     -41.697 -43.882  11.480  1.00  0.00    -0.363 N 
HETATM   22  C   UNL     1     -40.405 -43.206  11.315  1.00  0.00     0.150 C 
HETATM   23  C   UNL     1     -40.393 -41.891  12.110  1.00  0.00     0.187 C 
HETATM   24  O   UNL     1     -41.486 -41.039  11.730  1.00  0.00    -0.388 OA
HETATM   25  C   UNL     1     -42.740 -41.704  11.967  1.00  0.00     0.187 C 
HETATM   26  C   UNL     1     -42.850 -43.019  11.177  1.00  0.00     0.150 C 
ENDBRANCH   4  21
TORSDOF 3
ENDMDL
