MODEL 1
REMARK VINA RESULT:      -6.7      0.000      0.000
REMARK  7 active torsions:
REMARK  status: ('A' for Active; 'I' for Inactive)
REMARK    1  A    between atoms: N_1  and  C_8 
REMARK    2  A    between atoms: N_2  and  C_7 
REMARK    3  A    between atoms: C_8  and  C_13 
REMARK    4  A    between atoms: C_13  and  C_16 
REMARK    5  A    between atoms: C_13  and  O_17 
REMARK    6  A    between atoms: C_14  and  C_16 
REMARK    7  A    between atoms: C_14  and  C_15 
ROOT
HETATM    1  N   UNL     1     -38.793 -50.999  13.691  1.00  0.00    -0.261 N 
HETATM    2  N   UNL     1     -39.956 -49.176  12.716  1.00  0.00    -0.279 N 
HETATM    3  C   UNL     1     -39.852 -50.084  13.769  1.00  0.00     0.333 A 
HETATM    4  C   UNL     1     -37.829 -50.983  12.686  1.00  0.00     0.291 A 
HETATM    5  C   UNL     1     -37.935 -49.878  11.717  1.00  0.00     0.200 A 
HETATM    6  C   UNL     1     -38.984 -49.062  11.747  1.00  0.00     0.146 A 
HETATM    7  O   UNL     1     -40.664 -50.092  14.697  1.00  0.00    -0.246 OA
HETATM    8  O   UNL     1     -36.944 -51.824  12.560  1.00  0.00    -0.264 OA
HETATM    9  F   UNL     1     -36.994 -49.797  10.757  1.00  0.00    -0.199 F 
ENDROOT
BRANCH   1  10
HETATM   10  C   UNL     1     -38.881 -52.192  14.535  1.00  0.00     0.168 C 
BRANCH  10  11
HETATM   11  C   UNL     1     -39.591 -53.435  13.964  1.00  0.00     0.137 C 
BRANCH  11  12
HETATM   12  C   UNL     1     -40.653 -53.109  12.907  1.00  0.00     0.038 C 
BRANCH  12  13
HETATM   13  C   UNL     1     -41.930 -53.936  13.145  1.00  0.00     0.041 C 
BRANCH  13  14
HETATM   14  C   UNL     1     -43.228 -53.162  13.125  1.00  0.00    -0.058 A 
HETATM   15  C   UNL     1     -43.188 -51.775  13.347  1.00  0.00     0.007 A 
HETATM   16  C   UNL     1     -44.359 -51.017  13.361  1.00  0.00     0.001 A 
HETATM   17  C   UNL     1     -45.587 -51.631  13.133  1.00  0.00     0.000 A 
HETATM   18  C   UNL     1     -45.638 -52.998  12.866  1.00  0.00     0.001 A 
HETATM   19  C   UNL     1     -44.465 -53.759  12.852  1.00  0.00     0.007 A 
ENDBRANCH  13  14
ENDBRANCH  12  13
ENDBRANCH  11  12
BRANCH  11  20
HETATM   20  O   UNL     1     -38.588 -54.282  13.378  1.00  0.00    -0.394 OA
HETATM   21  H   UNL     1     -38.053 -53.746  12.765  1.00  0.00     0.210 HD
ENDBRANCH  11  20
ENDBRANCH  10  11
ENDBRANCH   1  10
BRANCH   2  22
HETATM   22  C   UNL     1     -41.170 -48.370  12.638  1.00  0.00     0.232 C 
HETATM   23  O   UNL     1     -42.044 -48.880  11.609  1.00  0.00    -0.366 OA
HETATM   24  C   UNL     1     -42.621 -47.763  10.915  1.00  0.00     0.170 C 
HETATM   25  C   UNL     1     -42.282 -46.526  11.717  1.00  0.00     0.031 C 
HETATM   26  C   UNL     1     -40.943 -46.901  12.311  1.00  0.00     0.056 C 
ENDBRANCH   2  22
TORSDOF 7
ENDMDL
MODEL 2
REMARK VINA RESULT:      -6.6      3.178      5.124
REMARK  7 active torsions:
REMARK  status: ('A' for Active; 'I' for Inactive)
REMARK    1  A    between atoms: N_1  and  C_8 
REMARK    2  A    between atoms: N_2  and  C_7 
REMARK    3  A    between atoms: C_8  and  C_13 
REMARK    4  A    between atoms: C_13  and  C_16 
REMARK    5  A    between atoms: C_13  and  O_17 
REMARK    6  A    between atoms: C_14  and  C_16 
REMARK    7  A    between atoms: C_14  and  C_15 
ROOT
HETATM    1  N   UNL     1     -42.505 -53.590  13.662  1.00  0.00    -0.261 N 
HETATM    2  N   UNL     1     -40.504 -52.315  13.649  1.00  0.00    -0.279 N 
HETATM    3  C   UNL     1     -41.776 -52.524  13.116  1.00  0.00     0.333 A 
HETATM    4  C   UNL     1     -42.061 -54.364  14.730  1.00  0.00     0.291 A 
HETATM    5  C   UNL     1     -40.778 -53.952  15.327  1.00  0.00     0.200 A 
HETATM    6  C   UNL     1     -40.054 -52.994  14.758  1.00  0.00     0.146 A 
HETATM    7  O   UNL     1     -42.215 -51.824  12.201  1.00  0.00    -0.246 OA
HETATM    8  O   UNL     1     -42.650 -55.349  15.166  1.00  0.00    -0.264 OA
HETATM    9  F   UNL     1     -40.336 -54.645  16.395  1.00  0.00    -0.199 F 
ENDROOT
BRANCH   1  10
HETATM   10  C   UNL     1     -43.641 -54.086  12.882  1.00  0.00     0.168 C 
BRANCH  10  11
HETATM   11  C   UNL     1     -45.061 -53.804  13.407  1.00  0.00     0.137 C 
BRANCH  11  12
HETATM   12  C   UNL     1     -45.824 -52.753  12.591  1.00  0.00     0.038 C 
BRANCH  12  13
HETATM   13  C   UNL     1     -45.578 -51.342  13.154  1.00  0.00     0.041 C 
BRANCH  13  14
HETATM   14  C   UNL     1     -45.834 -51.170  14.634  1.00  0.00    -0.058 A 
HETATM   15  C   UNL     1     -47.115 -51.458  15.133  1.00  0.00     0.007 A 
HETATM   16  C   UNL     1     -47.412 -51.295  16.487  1.00  0.00     0.001 A 
HETATM   17  C   UNL     1     -46.424 -50.861  17.366  1.00  0.00     0.000 A 
HETATM   18  C   UNL     1     -45.136 -50.616  16.895  1.00  0.00     0.001 A 
HETATM   19  C   UNL     1     -44.839 -50.779  15.538  1.00  0.00     0.007 A 
ENDBRANCH  13  14
ENDBRANCH  12  13
ENDBRANCH  11  12
BRANCH  11  20
HETATM   20  O   UNL     1     -45.792 -55.041  13.383  1.00  0.00    -0.394 OA
HETATM   21  H   UNL     1     -45.301 -55.698  13.908  1.00  0.00     0.210 HD
ENDBRANCH  11  20
ENDBRANCH  10  11
ENDBRANCH   1  10
BRANCH   2  22
HETATM   22  C   UNL     1     -39.629 -51.377  12.954  1.00  0.00     0.232 C 
HETATM   23  O   UNL     1     -38.301 -51.929  12.830  1.00  0.00    -0.366 OA
HETATM   24  C   UNL     1     -37.352 -50.878  13.066  1.00  0.00     0.170 C 
HETATM   25  C   UNL     1     -38.131 -49.581  13.084  1.00  0.00     0.031 C 
HETATM   26  C   UNL     1     -39.463 -50.028  13.641  1.00  0.00     0.056 C 
ENDBRANCH   2  22
TORSDOF 7
ENDMDL
MODEL 3
REMARK VINA RESULT:      -6.6      1.494      1.854
REMARK  7 active torsions:
REMARK  status: ('A' for Active; 'I' for Inactive)
REMARK    1  A    between atoms: N_1  and  C_8 
REMARK    2  A    between atoms: N_2  and  C_7 
REMARK    3  A    between atoms: C_8  and  C_13 
REMARK    4  A    between atoms: C_13  and  C_16 
REMARK    5  A    between atoms: C_13  and  O_17 
REMARK    6  A    between atoms: C_14  and  C_16 
REMARK    7  A    between atoms: C_14  and  C_15 
ROOT
HETATM    1  N   UNL     1     -40.447 -51.016  12.402  1.00  0.00    -0.261 N 
HETATM    2  N   UNL     1     -40.964 -48.710  12.192  1.00  0.00    -0.279 N 
HETATM    3  C   UNL     1     -41.429 -50.018  12.329  1.00  0.00     0.333 A 
HETATM    4  C   UNL     1     -39.080 -50.755  12.428  1.00  0.00     0.291 A 
HETATM    5  C   UNL     1     -38.701 -49.331  12.448  1.00  0.00     0.200 A 
HETATM    6  C   UNL     1     -39.630 -48.392  12.298  1.00  0.00     0.146 A 
HETATM    7  O   UNL     1     -42.635 -50.275  12.356  1.00  0.00    -0.246 OA
HETATM    8  O   UNL     1     -38.208 -51.620  12.412  1.00  0.00    -0.264 OA
HETATM    9  F   UNL     1     -37.390 -49.035  12.523  1.00  0.00    -0.199 F 
ENDROOT
BRANCH   1  10
HETATM   10  C   UNL     1     -40.877 -52.392  12.144  1.00  0.00     0.168 C 
BRANCH  10  11
HETATM   11  C   UNL     1     -40.825 -53.400  13.308  1.00  0.00     0.137 C 
BRANCH  11  12
HETATM   12  C   UNL     1     -42.088 -54.260  13.437  1.00  0.00     0.038 C 
BRANCH  12  13
HETATM   13  C   UNL     1     -42.992 -53.734  14.566  1.00  0.00     0.041 C 
BRANCH  13  14
HETATM   14  C   UNL     1     -44.215 -52.964  14.124  1.00  0.00    -0.058 A 
HETATM   15  C   UNL     1     -44.765 -53.242  12.861  1.00  0.00     0.007 A 
HETATM   16  C   UNL     1     -45.880 -52.544  12.395  1.00  0.00     0.001 A 
HETATM   17  C   UNL     1     -46.474 -51.572  13.194  1.00  0.00     0.000 A 
HETATM   18  C   UNL     1     -45.970 -51.318  14.467  1.00  0.00     0.001 A 
HETATM   19  C   UNL     1     -44.852 -52.016  14.935  1.00  0.00     0.007 A 
ENDBRANCH  13  14
ENDBRANCH  12  13
ENDBRANCH  11  12
BRANCH  11  20
HETATM   20  O   UNL     1     -39.691 -54.257  13.095  1.00  0.00    -0.394 OA
HETATM   21  H   UNL     1     -39.770 -54.657  12.211  1.00  0.00     0.210 HD
ENDBRANCH  11  20
ENDBRANCH  10  11
ENDBRANCH   1  10
BRANCH   2  22
HETATM   22  C   UNL     1     -41.945 -47.677  11.876  1.00  0.00     0.232 C 
HETATM   23  O   UNL     1     -42.112 -47.565  10.447  1.00  0.00    -0.366 OA
HETATM   24  C   UNL     1     -42.224 -46.173  10.115  1.00  0.00     0.170 C 
HETATM   25  C   UNL     1     -42.386 -45.422  11.418  1.00  0.00     0.031 C 
HETATM   26  C   UNL     1     -41.586 -46.282  12.371  1.00  0.00     0.056 C 
ENDBRANCH   2  22
TORSDOF 7
ENDMDL
MODEL 4
REMARK VINA RESULT:      -6.4      3.244      6.154
REMARK  7 active torsions:
REMARK  status: ('A' for Active; 'I' for Inactive)
REMARK    1  A    between atoms: N_1  and  C_8 
REMARK    2  A    between atoms: N_2  and  C_7 
REMARK    3  A    between atoms: C_8  and  C_13 
REMARK    4  A    between atoms: C_13  and  C_16 
REMARK    5  A    between atoms: C_13  and  O_17 
REMARK    6  A    between atoms: C_14  and  C_16 
REMARK    7  A    between atoms: C_14  and  C_15 
ROOT
HETATM    1  N   UNL     1     -41.281 -53.340  13.281  1.00  0.00    -0.261 N 
HETATM    2  N   UNL     1     -40.097 -54.381  15.053  1.00  0.00    -0.279 N 
HETATM    3  C   UNL     1     -40.077 -53.484  13.985  1.00  0.00     0.333 A 
HETATM    4  C   UNL     1     -42.469 -53.967  13.643  1.00  0.00     0.291 A 
HETATM    5  C   UNL     1     -42.421 -54.759  14.884  1.00  0.00     0.200 A 
HETATM    6  C   UNL     1     -41.262 -54.959  15.504  1.00  0.00     0.146 A 
HETATM    7  O   UNL     1     -39.050 -52.879  13.670  1.00  0.00    -0.246 OA
HETATM    8  O   UNL     1     -43.509 -53.913  12.992  1.00  0.00    -0.264 OA
HETATM    9  F   UNL     1     -43.563 -55.343  15.297  1.00  0.00    -0.199 F 
ENDROOT
BRANCH   1  10
HETATM   10  C   UNL     1     -41.202 -52.739  11.947  1.00  0.00     0.168 C 
BRANCH  10  11
HETATM   11  C   UNL     1     -41.238 -51.202  11.839  1.00  0.00     0.137 C 
BRANCH  11  12
HETATM   12  C   UNL     1     -41.746 -50.506  13.107  1.00  0.00     0.038 C 
BRANCH  12  13
HETATM   13  C   UNL     1     -43.149 -49.915  12.878  1.00  0.00     0.041 C 
BRANCH  13  14
HETATM   14  C   UNL     1     -44.260 -50.515  13.710  1.00  0.00    -0.058 A 
HETATM   15  C   UNL     1     -45.385 -51.039  13.051  1.00  0.00     0.007 A 
HETATM   16  C   UNL     1     -46.449 -51.584  13.770  1.00  0.00     0.001 A 
HETATM   17  C   UNL     1     -46.394 -51.632  15.160  1.00  0.00     0.000 A 
HETATM   18  C   UNL     1     -45.265 -51.159  15.826  1.00  0.00     0.001 A 
HETATM   19  C   UNL     1     -44.199 -50.611  15.105  1.00  0.00     0.007 A 
ENDBRANCH  13  14
ENDBRANCH  12  13
ENDBRANCH  11  12
BRANCH  11  20
HETATM   20  O   UNL     1     -39.903 -50.752  11.557  1.00  0.00    -0.394 OA
HETATM   21  H   UNL     1     -39.800 -50.682  10.591  1.00  0.00     0.210 HD
ENDBRANCH  11  20
ENDBRANCH  10  11
ENDBRANCH   1  10
BRANCH   2  22
HETATM   22  C   UNL     1     -38.817 -54.737  15.657  1.00  0.00     0.232 C 
HETATM   23  O   UNL     1     -38.761 -56.157  15.913  1.00  0.00    -0.366 OA
HETATM   24  C   UNL     1     -38.126 -56.360  17.184  1.00  0.00     0.170 C 
HETATM   25  C   UNL     1     -37.545 -55.027  17.602  1.00  0.00     0.031 C 
HETATM   26  C   UNL     1     -38.527 -54.056  16.988  1.00  0.00     0.056 C 
ENDBRANCH   2  22
TORSDOF 7
ENDMDL
MODEL 5
REMARK VINA RESULT:      -6.2      2.346      3.750
REMARK  7 active torsions:
REMARK  status: ('A' for Active; 'I' for Inactive)
REMARK    1  A    between atoms: N_1  and  C_8 
REMARK    2  A    between atoms: N_2  and  C_7 
REMARK    3  A    between atoms: C_8  and  C_13 
REMARK    4  A    between atoms: C_13  and  C_16 
REMARK    5  A    between atoms: C_13  and  O_17 
REMARK    6  A    between atoms: C_14  and  C_16 
REMARK    7  A    between atoms: C_14  and  C_15 
ROOT
HETATM    1  N   UNL     1     -40.672 -50.843  12.515  1.00  0.00    -0.261 N 
HETATM    2  N   UNL     1     -39.134 -49.387  13.584  1.00  0.00    -0.279 N 
HETATM    3  C   UNL     1     -39.341 -50.555  12.850  1.00  0.00     0.333 A 
HETATM    4  C   UNL     1     -41.742 -50.000  12.801  1.00  0.00     0.291 A 
HETATM    5  C   UNL     1     -41.391 -48.714  13.430  1.00  0.00     0.200 A 
HETATM    6  C   UNL     1     -40.142 -48.479  13.818  1.00  0.00     0.146 A 
HETATM    7  O   UNL     1     -38.407 -51.298  12.541  1.00  0.00    -0.246 OA
HETATM    8  O   UNL     1     -42.919 -50.274  12.586  1.00  0.00    -0.264 OA
HETATM    9  F   UNL     1     -42.392 -47.848  13.679  1.00  0.00    -0.199 F 
ENDROOT
BRANCH   1  10
HETATM   10  C   UNL     1     -40.973 -52.219  12.113  1.00  0.00     0.168 C 
BRANCH  10  11
HETATM   11  C   UNL     1     -40.943 -53.315  13.195  1.00  0.00     0.137 C 
BRANCH  11  12
HETATM   12  C   UNL     1     -42.159 -54.249  13.162  1.00  0.00     0.038 C 
BRANCH  12  13
HETATM   13  C   UNL     1     -43.117 -53.938  14.326  1.00  0.00     0.041 C 
BRANCH  13  14
HETATM   14  C   UNL     1     -44.327 -53.102  13.977  1.00  0.00    -0.058 A 
HETATM   15  C   UNL     1     -44.797 -52.173  14.921  1.00  0.00     0.007 A 
HETATM   16  C   UNL     1     -45.923 -51.392  14.660  1.00  0.00     0.001 A 
HETATM   17  C   UNL     1     -46.584 -51.514  13.441  1.00  0.00     0.000 A 
HETATM   18  C   UNL     1     -46.103 -52.397  12.477  1.00  0.00     0.001 A 
HETATM   19  C   UNL     1     -44.975 -53.181  12.739  1.00  0.00     0.007 A 
ENDBRANCH  13  14
ENDBRANCH  12  13
ENDBRANCH  11  12
BRANCH  11  20
HETATM   20  O   UNL     1     -39.748 -54.090  13.001  1.00  0.00    -0.394 OA
HETATM   21  H   UNL     1     -40.003 -55.023  12.883  1.00  0.00     0.210 HD
ENDBRANCH  11  20
ENDBRANCH  10  11
ENDBRANCH   1  10
BRANCH   2  22
HETATM   22  C   UNL     1     -37.807 -49.176  14.152  1.00  0.00     0.232 C 
HETATM   23  O   UNL     1     -37.672 -49.900  15.393  1.00  0.00    -0.366 OA
HETATM   24  C   UNL     1     -36.955 -49.073  16.322  1.00  0.00     0.170 C 
HETATM   25  C   UNL     1     -36.412 -47.900  15.535  1.00  0.00     0.031 C 
HETATM   26  C   UNL     1     -37.471 -47.726  14.470  1.00  0.00     0.056 C 
ENDBRANCH   2  22
TORSDOF 7
ENDMDL
MODEL 6
REMARK VINA RESULT:      -6.2      2.399      3.905
REMARK  7 active torsions:
REMARK  status: ('A' for Active; 'I' for Inactive)
REMARK    1  A    between atoms: N_1  and  C_8 
REMARK    2  A    between atoms: N_2  and  C_7 
REMARK    3  A    between atoms: C_8  and  C_13 
REMARK    4  A    between atoms: C_13  and  C_16 
REMARK    5  A    between atoms: C_13  and  O_17 
REMARK    6  A    between atoms: C_14  and  C_16 
REMARK    7  A    between atoms: C_14  and  C_15 
ROOT
HETATM    1  N   UNL     1     -39.827 -51.103  13.356  1.00  0.00    -0.261 N 
HETATM    2  N   UNL     1     -38.121 -50.046  14.620  1.00  0.00    -0.279 N 
HETATM    3  C   UNL     1     -39.093 -51.043  14.549  1.00  0.00     0.333 A 
HETATM    4  C   UNL     1     -39.576 -50.294  12.252  1.00  0.00     0.291 A 
HETATM    5  C   UNL     1     -38.418 -49.390  12.372  1.00  0.00     0.200 A 
HETATM    6  C   UNL     1     -37.776 -49.279  13.530  1.00  0.00     0.146 A 
HETATM    7  O   UNL     1     -39.306 -51.806  15.495  1.00  0.00    -0.246 OA
HETATM    8  O   UNL     1     -40.260 -50.280  11.232  1.00  0.00    -0.264 OA
HETATM    9  F   UNL     1     -38.111 -48.625  11.307  1.00  0.00    -0.199 F 
ENDROOT
BRANCH   1  10
HETATM   10  C   UNL     1     -41.091 -51.843  13.390  1.00  0.00     0.168 C 
BRANCH  10  11
HETATM   11  C   UNL     1     -41.081 -53.319  12.947  1.00  0.00     0.137 C 
BRANCH  11  12
HETATM   12  C   UNL     1     -42.430 -54.025  13.123  1.00  0.00     0.038 C 
BRANCH  12  13
HETATM   13  C   UNL     1     -43.556 -53.225  12.442  1.00  0.00     0.041 C 
BRANCH  13  14
HETATM   14  C   UNL     1     -44.766 -52.932  13.300  1.00  0.00    -0.058 A 
HETATM   15  C   UNL     1     -45.445 -54.009  13.894  1.00  0.00     0.007 A 
HETATM   16  C   UNL     1     -46.581 -53.798  14.676  1.00  0.00     0.001 A 
HETATM   17  C   UNL     1     -47.043 -52.503  14.892  1.00  0.00     0.000 A 
HETATM   18  C   UNL     1     -46.354 -51.421  14.348  1.00  0.00     0.001 A 
HETATM   19  C   UNL     1     -45.216 -51.633  13.564  1.00  0.00     0.007 A 
ENDBRANCH  13  14
ENDBRANCH  12  13
ENDBRANCH  11  12
BRANCH  11  20
HETATM   20  O   UNL     1     -40.705 -53.357  11.561  1.00  0.00    -0.394 OA
HETATM   21  H   UNL     1     -41.076 -54.166  11.164  1.00  0.00     0.210 HD
ENDBRANCH  11  20
ENDBRANCH  10  11
ENDBRANCH   1  10
BRANCH   2  22
HETATM   22  C   UNL     1     -37.504 -49.798  15.919  1.00  0.00     0.232 C 
HETATM   23  O   UNL     1     -37.770 -48.447  16.351  1.00  0.00    -0.366 OA
HETATM   24  C   UNL     1     -36.579 -47.925  16.958  1.00  0.00     0.170 C 
HETATM   25  C   UNL     1     -35.629 -49.090  17.131  1.00  0.00     0.031 C 
HETATM   26  C   UNL     1     -35.990 -49.961  15.950  1.00  0.00     0.056 C 
ENDBRANCH   2  22
TORSDOF 7
ENDMDL
MODEL 7
REMARK VINA RESULT:      -6.1      4.637      6.919
REMARK  7 active torsions:
REMARK  status: ('A' for Active; 'I' for Inactive)
REMARK    1  A    between atoms: N_1  and  C_8 
REMARK    2  A    between atoms: N_2  and  C_7 
REMARK    3  A    between atoms: C_8  and  C_13 
REMARK    4  A    between atoms: C_13  and  C_16 
REMARK    5  A    between atoms: C_13  and  O_17 
REMARK    6  A    between atoms: C_14  and  C_16 
REMARK    7  A    between atoms: C_14  and  C_15 
ROOT
HETATM    1  N   UNL     1     -43.290 -54.244  14.419  1.00  0.00    -0.261 N 
HETATM    2  N   UNL     1     -41.337 -54.340  15.762  1.00  0.00    -0.279 N 
HETATM    3  C   UNL     1     -41.891 -54.187  14.491  1.00  0.00     0.333 A 
HETATM    4  C   UNL     1     -44.119 -54.357  15.532  1.00  0.00     0.291 A 
HETATM    5  C   UNL     1     -43.438 -54.342  16.839  1.00  0.00     0.200 A 
HETATM    6  C   UNL     1     -42.111 -54.369  16.900  1.00  0.00     0.146 A 
HETATM    7  O   UNL     1     -41.184 -54.038  13.492  1.00  0.00    -0.246 OA
HETATM    8  O   UNL     1     -45.339 -54.488  15.479  1.00  0.00    -0.264 OA
HETATM    9  F   UNL     1     -44.207 -54.401  17.943  1.00  0.00    -0.199 F 
ENDROOT
BRANCH   1  10
HETATM   10  C   UNL     1     -43.878 -54.489  13.100  1.00  0.00     0.168 C 
BRANCH  10  11
HETATM   11  C   UNL     1     -44.302 -53.272  12.256  1.00  0.00     0.137 C 
BRANCH  11  12
HETATM   12  C   UNL     1     -45.670 -52.697  12.644  1.00  0.00     0.038 C 
BRANCH  12  13
HETATM   13  C   UNL     1     -45.517 -51.287  13.244  1.00  0.00     0.041 C 
BRANCH  13  14
HETATM   14  C   UNL     1     -45.813 -51.165  14.721  1.00  0.00    -0.058 A 
HETATM   15  C   UNL     1     -47.104 -51.482  15.177  1.00  0.00     0.007 A 
HETATM   16  C   UNL     1     -47.438 -51.364  16.527  1.00  0.00     0.001 A 
HETATM   17  C   UNL     1     -46.478 -50.948  17.445  1.00  0.00     0.000 A 
HETATM   18  C   UNL     1     -45.181 -50.676  17.016  1.00  0.00     0.001 A 
HETATM   19  C   UNL     1     -44.846 -50.792  15.663  1.00  0.00     0.007 A 
ENDBRANCH  13  14
ENDBRANCH  12  13
ENDBRANCH  11  12
BRANCH  11  20
HETATM   20  O   UNL     1     -43.300 -52.255  12.419  1.00  0.00    -0.394 OA
HETATM   21  H   UNL     1     -43.289 -51.982  13.354  1.00  0.00     0.210 HD
ENDBRANCH  11  20
ENDBRANCH  10  11
ENDBRANCH   1  10
BRANCH   2  22
HETATM   22  C   UNL     1     -39.893 -54.524  15.848  1.00  0.00     0.232 C 
HETATM   23  O   UNL     1     -39.567 -55.930  15.870  1.00  0.00    -0.366 OA
HETATM   24  C   UNL     1     -38.505 -56.132  16.815  1.00  0.00     0.170 C 
HETATM   25  C   UNL     1     -37.992 -54.761  17.197  1.00  0.00     0.031 C 
HETATM   26  C   UNL     1     -39.244 -53.921  17.087  1.00  0.00     0.056 C 
ENDBRANCH   2  22
TORSDOF 7
ENDMDL
MODEL 8
REMARK VINA RESULT:      -6.1      2.840      5.678
REMARK  7 active torsions:
REMARK  status: ('A' for Active; 'I' for Inactive)
REMARK    1  A    between atoms: N_1  and  C_8 
REMARK    2  A    between atoms: N_2  and  C_7 
REMARK    3  A    between atoms: C_8  and  C_13 
REMARK    4  A    between atoms: C_13  and  C_16 
REMARK    5  A    between atoms: C_13  and  O_17 
REMARK    6  A    between atoms: C_14  and  C_16 
REMARK    7  A    between atoms: C_14  and  C_15 
ROOT
HETATM    1  N   UNL     1     -39.273 -52.079  14.052  1.00  0.00    -0.261 N 
HETATM    2  N   UNL     1     -39.019 -53.894  15.558  1.00  0.00    -0.279 N 
HETATM    3  C   UNL     1     -39.191 -53.466  14.242  1.00  0.00     0.333 A 
HETATM    4  C   UNL     1     -39.110 -51.148  15.073  1.00  0.00     0.291 A 
HETATM    5  C   UNL     1     -38.766 -51.702  16.394  1.00  0.00     0.200 A 
HETATM    6  C   UNL     1     -38.768 -53.017  16.588  1.00  0.00     0.146 A 
HETATM    7  O   UNL     1     -39.291 -54.267  13.310  1.00  0.00    -0.246 OA
HETATM    8  O   UNL     1     -39.258 -49.936  14.938  1.00  0.00    -0.264 OA
HETATM    9  F   UNL     1     -38.552 -50.831  17.400  1.00  0.00    -0.199 F 
ENDROOT
BRANCH   1  10
HETATM   10  C   UNL     1     -39.842 -51.614  12.785  1.00  0.00     0.168 C 
BRANCH  10  11
HETATM   11  C   UNL     1     -41.304 -51.985  12.467  1.00  0.00     0.137 C 
BRANCH  11  12
HETATM   12  C   UNL     1     -42.276 -50.803  12.566  1.00  0.00     0.038 C 
BRANCH  12  13
HETATM   13  C   UNL     1     -42.747 -50.607  14.019  1.00  0.00     0.041 C 
BRANCH  13  14
HETATM   14  C   UNL     1     -44.205 -50.904  14.283  1.00  0.00    -0.058 A 
HETATM   15  C   UNL     1     -44.689 -50.780  15.597  1.00  0.00     0.007 A 
HETATM   16  C   UNL     1     -46.021 -51.065  15.901  1.00  0.00     0.001 A 
HETATM   17  C   UNL     1     -46.894 -51.458  14.891  1.00  0.00     0.000 A 
HETATM   18  C   UNL     1     -46.441 -51.541  13.576  1.00  0.00     0.001 A 
HETATM   19  C   UNL     1     -45.106 -51.257  13.271  1.00  0.00     0.007 A 
ENDBRANCH  13  14
ENDBRANCH  12  13
ENDBRANCH  11  12
BRANCH  11  20
HETATM   20  O   UNL     1     -41.340 -52.513  11.130  1.00  0.00    -0.394 OA
HETATM   21  H   UNL     1     -40.986 -51.839  10.523  1.00  0.00     0.210 HD
ENDBRANCH  11  20
ENDBRANCH  10  11
ENDBRANCH   1  10
BRANCH   2  22
HETATM   22  C   UNL     1     -39.167 -55.321  15.826  1.00  0.00     0.232 C 
HETATM   23  O   UNL     1     -40.518 -55.616  16.239  1.00  0.00    -0.366 OA
HETATM   24  C   UNL     1     -40.463 -56.581  17.301  1.00  0.00     0.170 C 
HETATM   25  C   UNL     1     -39.037 -57.083  17.364  1.00  0.00     0.031 C 
HETATM   26  C   UNL     1     -38.261 -55.863  16.923  1.00  0.00     0.056 C 
ENDBRANCH   2  22
TORSDOF 7
ENDMDL
MODEL 9
REMARK VINA RESULT:      -6.0      2.765      6.750
REMARK  7 active torsions:
REMARK  status: ('A' for Active; 'I' for Inactive)
REMARK    1  A    between atoms: N_1  and  C_8 
REMARK    2  A    between atoms: N_2  and  C_7 
REMARK    3  A    between atoms: C_8  and  C_13 
REMARK    4  A    between atoms: C_13  and  C_16 
REMARK    5  A    between atoms: C_13  and  O_17 
REMARK    6  A    between atoms: C_14  and  C_16 
REMARK    7  A    between atoms: C_14  and  C_15 
ROOT
HETATM    1  N   UNL     1     -41.427 -51.184  12.760  1.00  0.00    -0.261 N 
HETATM    2  N   UNL     1     -43.133 -52.708  13.389  1.00  0.00    -0.279 N 
HETATM    3  C   UNL     1     -42.788 -51.412  13.008  1.00  0.00     0.333 A 
HETATM    4  C   UNL     1     -40.457 -52.182  12.794  1.00  0.00     0.291 A 
HETATM    5  C   UNL     1     -40.954 -53.547  13.041  1.00  0.00     0.200 A 
HETATM    6  C   UNL     1     -42.230 -53.747  13.355  1.00  0.00     0.146 A 
HETATM    7  O   UNL     1     -43.633 -50.517  12.924  1.00  0.00    -0.246 OA
HETATM    8  O   UNL     1     -39.253 -51.984  12.658  1.00  0.00    -0.264 OA
HETATM    9  F   UNL     1     -40.054 -54.549  13.034  1.00  0.00    -0.199 F 
ENDROOT
BRANCH   1  10
HETATM   10  C   UNL     1     -40.976 -49.791  12.756  1.00  0.00     0.168 C 
BRANCH  10  11
HETATM   11  C   UNL     1     -40.765 -49.100  11.395  1.00  0.00     0.137 C 
BRANCH  11  12
HETATM   12  C   UNL     1     -39.668 -48.028  11.410  1.00  0.00     0.038 C 
BRANCH  12  13
HETATM   13  C   UNL     1     -39.790 -47.143  12.663  1.00  0.00     0.041 C 
BRANCH  13  14
HETATM   14  C   UNL     1     -39.919 -45.658  12.409  1.00  0.00    -0.058 A 
HETATM   15  C   UNL     1     -39.600 -44.768  13.449  1.00  0.00     0.007 A 
HETATM   16  C   UNL     1     -39.723 -43.389  13.276  1.00  0.00     0.001 A 
HETATM   17  C   UNL     1     -40.148 -42.878  12.052  1.00  0.00     0.000 A 
HETATM   18  C   UNL     1     -40.423 -43.745  10.998  1.00  0.00     0.001 A 
HETATM   19  C   UNL     1     -40.300 -45.128  11.170  1.00  0.00     0.007 A 
ENDBRANCH  13  14
ENDBRANCH  12  13
ENDBRANCH  11  12
BRANCH  11  20
HETATM   20  O   UNL     1     -40.419 -50.115  10.437  1.00  0.00    -0.394 OA
HETATM   21  H   UNL     1     -39.497 -50.385  10.595  1.00  0.00     0.210 HD
ENDBRANCH  11  20
ENDBRANCH  10  11
ENDBRANCH   1  10
BRANCH   2  22
HETATM   22  C   UNL     1     -44.488 -52.927  13.882  1.00  0.00     0.232 C 
HETATM   23  O   UNL     1     -44.498 -52.955  15.325  1.00  0.00    -0.366 OA
HETATM   24  C   UNL     1     -45.395 -53.992  15.750  1.00  0.00     0.170 C 
HETATM   25  C   UNL     1     -46.154 -54.444  14.522  1.00  0.00     0.031 C 
HETATM   26  C   UNL     1     -45.130 -54.232  13.430  1.00  0.00     0.056 C 
ENDBRANCH   2  22
TORSDOF 7
ENDMDL
