MODEL 1
REMARK VINA RESULT:      -6.0      0.000      0.000
REMARK  5 active torsions:
REMARK  status: ('A' for Active; 'I' for Inactive)
REMARK    1  A    between atoms: C_2  and  C_3 
REMARK    2  A    between atoms: C_6  and  C_7 
REMARK    3  A    between atoms: C_7  and  C_8 
REMARK    4  A    between atoms: C_8  and  N_9 
REMARK       I    between atoms: N_9  and  C_10 
REMARK    5  A    between atoms: C_10  and  C_12 
ROOT
HETATM    1  N   UNL     1     -43.154 -51.382  12.432  1.00  0.00    -0.360 N 
HETATM    2  C   UNL     1     -42.801 -52.717  12.488  1.00  0.00     0.222 C 
HETATM    3  O   UNL     1     -41.640 -53.112  12.472  1.00  0.00    -0.273 OA
HETATM    4  H   UNL     1     -44.134 -51.133  12.480  1.00  0.00     0.162 HD
ENDROOT
BRANCH   1   5
HETATM    5  C   UNL     1     -42.180 -50.298  12.392  1.00  0.00     0.128 C 
BRANCH   5   6
HETATM    6  C   UNL     1     -42.797 -48.937  12.711  1.00  0.00     0.077 C 
BRANCH   6   7
HETATM    7  C   UNL     1     -43.054 -48.091  11.500  1.00  0.00     0.018 A 
HETATM    8  N   UNL     1     -44.269 -48.193  10.831  1.00  0.00    -0.357 N 
HETATM    9  C   UNL     1     -44.317 -47.317   9.846  1.00  0.00     0.050 A 
ATOM     10  HN  UNL     1     -45.014 -48.848  11.068  1.00  0.00     0.166 HD
HETATM   11  S   UNL     1     -42.913 -46.343   9.654  1.00  0.00    -0.087 SA
HETATM   12  C   UNL     1     -42.196 -47.135  10.988  1.00  0.00     0.076 A 
BRANCH   9  13
HETATM   13  C   UNL     1     -45.497 -47.119   8.944  1.00  0.00     0.060 C 
HETATM   14  C   UNL     1     -46.438 -48.313   8.968  1.00  0.00     0.012 C 
ENDBRANCH   9  13
ENDBRANCH   6   7
ENDBRANCH   5   6
ENDBRANCH   1   5
BRANCH   2  15
HETATM   15  C   UNL     1     -44.005 -53.637  12.649  1.00  0.00     0.082 C 
HETATM   16  C   UNL     1     -45.395 -52.981  12.775  1.00  0.00     0.019 C 
HETATM   17  C   UNL     1     -46.047 -53.768  13.938  1.00  0.00    -0.013 C 
HETATM   18  C   UNL     1     -45.484 -53.236  15.260  1.00  0.00     0.005 C 
HETATM   19  C   UNL     1     -45.361 -55.132  13.861  1.00  0.00     0.010 C 
HETATM   20  C   UNL     1     -44.012 -53.671  15.189  1.00  0.00     0.006 C 
HETATM   21  C   UNL     1     -43.955 -54.531  13.906  1.00  0.00    -0.001 C 
ENDBRANCH   2  15
TORSDOF 5
ENDMDL
MODEL 2
REMARK VINA RESULT:      -5.8      1.524      1.994
REMARK  5 active torsions:
REMARK  status: ('A' for Active; 'I' for Inactive)
REMARK    1  A    between atoms: C_2  and  C_3 
REMARK    2  A    between atoms: C_6  and  C_7 
REMARK    3  A    between atoms: C_7  and  C_8 
REMARK    4  A    between atoms: C_8  and  N_9 
REMARK       I    between atoms: N_9  and  C_10 
REMARK    5  A    between atoms: C_10  and  C_12 
ROOT
HETATM    1  N   UNL     1     -43.164 -52.102  12.328  1.00  0.00    -0.360 N 
HETATM    2  C   UNL     1     -43.630 -53.265  12.910  1.00  0.00     0.222 C 
HETATM    3  O   UNL     1     -42.908 -54.215  13.198  1.00  0.00    -0.273 OA
HETATM    4  H   UNL     1     -43.818 -51.350  12.147  1.00  0.00     0.162 HD
ENDROOT
BRANCH   1   5
HETATM    5  C   UNL     1     -41.756 -51.863  12.035  1.00  0.00     0.128 C 
BRANCH   5   6
HETATM    6  C   UNL     1     -41.217 -50.604  12.715  1.00  0.00     0.077 C 
BRANCH   6   7
HETATM    7  C   UNL     1     -41.396 -49.356  11.905  1.00  0.00     0.018 A 
HETATM    8  N   UNL     1     -42.599 -49.125  11.247  1.00  0.00    -0.357 N 
HETATM    9  C   UNL     1     -42.573 -47.945  10.657  1.00  0.00     0.050 A 
ATOM     10  HN  UNL     1     -43.386 -49.772  11.224  1.00  0.00     0.166 HD
HETATM   11  S   UNL     1     -41.109 -47.060  10.841  1.00  0.00    -0.087 SA
HETATM   12  C   UNL     1     -40.471 -48.334  11.784  1.00  0.00     0.076 A 
BRANCH   9  13
HETATM   13  C   UNL     1     -43.718 -47.353   9.895  1.00  0.00     0.060 C 
HETATM   14  C   UNL     1     -43.543 -47.507   8.393  1.00  0.00     0.012 C 
ENDBRANCH   9  13
ENDBRANCH   6   7
ENDBRANCH   5   6
ENDBRANCH   1   5
BRANCH   2  15
HETATM   15  C   UNL     1     -45.120 -53.209  13.225  1.00  0.00     0.082 C 
HETATM   16  C   UNL     1     -45.858 -51.883  12.955  1.00  0.00     0.019 C 
HETATM   17  C   UNL     1     -46.722 -51.701  14.228  1.00  0.00    -0.013 C 
HETATM   18  C   UNL     1     -45.825 -51.176  15.353  1.00  0.00     0.005 C 
HETATM   19  C   UNL     1     -46.957 -53.138  14.695  1.00  0.00     0.010 C 
HETATM   20  C   UNL     1     -44.887 -52.365  15.609  1.00  0.00     0.006 C 
HETATM   21  C   UNL     1     -45.465 -53.477  14.704  1.00  0.00    -0.001 C 
ENDBRANCH   2  15
TORSDOF 5
ENDMDL
MODEL 3
REMARK VINA RESULT:      -5.8      3.800      4.915
REMARK  5 active torsions:
REMARK  status: ('A' for Active; 'I' for Inactive)
REMARK    1  A    between atoms: C_2  and  C_3 
REMARK    2  A    between atoms: C_6  and  C_7 
REMARK    3  A    between atoms: C_7  and  C_8 
REMARK    4  A    between atoms: C_8  and  N_9 
REMARK       I    between atoms: N_9  and  C_10 
REMARK    5  A    between atoms: C_10  and  C_12 
ROOT
HETATM    1  N   UNL     1     -43.651 -52.299  12.567  1.00  0.00    -0.360 N 
HETATM    2  C   UNL     1     -44.616 -53.282  12.670  1.00  0.00     0.222 C 
HETATM    3  O   UNL     1     -44.454 -54.434  12.282  1.00  0.00    -0.273 OA
HETATM    4  H   UNL     1     -43.849 -51.378  12.937  1.00  0.00     0.162 HD
ENDROOT
BRANCH   1   5
HETATM    5  C   UNL     1     -42.318 -52.540  12.026  1.00  0.00     0.128 C 
BRANCH   5   6
HETATM    6  C   UNL     1     -41.334 -53.045  13.081  1.00  0.00     0.077 C 
BRANCH   6   7
HETATM    7  C   UNL     1     -40.138 -52.160  13.264  1.00  0.00     0.018 A 
HETATM    8  N   UNL     1     -39.752 -51.299  12.242  1.00  0.00    -0.357 N 
HETATM    9  C   UNL     1     -38.729 -50.564  12.633  1.00  0.00     0.050 A 
ATOM     10  HN  UNL     1     -40.196 -51.244  11.326  1.00  0.00     0.166 HD
HETATM   11  S   UNL     1     -38.164 -50.873  14.228  1.00  0.00    -0.087 SA
HETATM   12  C   UNL     1     -39.377 -52.061  14.415  1.00  0.00     0.076 A 
BRANCH   9  13
HETATM   13  C   UNL     1     -38.084 -49.499  11.800  1.00  0.00     0.060 C 
HETATM   14  C   UNL     1     -37.139 -50.081  10.762  1.00  0.00     0.012 C 
ENDBRANCH   9  13
ENDBRANCH   6   7
ENDBRANCH   5   6
ENDBRANCH   1   5
BRANCH   2  15
HETATM   15  C   UNL     1     -45.872 -52.800  13.385  1.00  0.00     0.082 C 
HETATM   16  C   UNL     1     -46.005 -51.287  13.654  1.00  0.00     0.019 C 
HETATM   17  C   UNL     1     -46.503 -51.237  15.120  1.00  0.00    -0.013 C 
HETATM   18  C   UNL     1     -45.307 -51.475  16.047  1.00  0.00     0.005 C 
HETATM   19  C   UNL     1     -47.254 -52.560  15.276  1.00  0.00     0.010 C 
HETATM   20  C   UNL     1     -44.939 -52.935  15.744  1.00  0.00     0.006 C 
HETATM   21  C   UNL     1     -46.067 -53.397  14.794  1.00  0.00    -0.001 C 
ENDBRANCH   2  15
TORSDOF 5
ENDMDL
MODEL 4
REMARK VINA RESULT:      -5.7      3.835      5.118
REMARK  5 active torsions:
REMARK  status: ('A' for Active; 'I' for Inactive)
REMARK    1  A    between atoms: C_2  and  C_3 
REMARK    2  A    between atoms: C_6  and  C_7 
REMARK    3  A    between atoms: C_7  and  C_8 
REMARK    4  A    between atoms: C_8  and  N_9 
REMARK       I    between atoms: N_9  and  C_10 
REMARK    5  A    between atoms: C_10  and  C_12 
ROOT
HETATM    1  N   UNL     1     -42.727 -53.590  15.129  1.00  0.00    -0.360 N 
HETATM    2  C   UNL     1     -44.033 -54.039  15.095  1.00  0.00     0.222 C 
HETATM    3  O   UNL     1     -44.364 -55.126  14.633  1.00  0.00    -0.273 OA
HETATM    4  H   UNL     1     -42.528 -52.693  15.554  1.00  0.00     0.162 HD
ENDROOT
BRANCH   1   5
HETATM    5  C   UNL     1     -41.597 -54.383  14.658  1.00  0.00     0.128 C 
BRANCH   5   6
HETATM    6  C   UNL     1     -41.301 -54.167  13.174  1.00  0.00     0.077 C 
BRANCH   6   7
HETATM    7  C   UNL     1     -40.944 -52.752  12.829  1.00  0.00     0.018 A 
HETATM    8  N   UNL     1     -39.691 -52.253  13.165  1.00  0.00    -0.357 N 
HETATM    9  C   UNL     1     -39.557 -51.022  12.710  1.00  0.00     0.050 A 
ATOM     10  HN  UNL     1     -38.979 -52.764  13.686  1.00  0.00     0.166 HD
HETATM   11  S   UNL     1     -40.923 -50.391  11.875  1.00  0.00    -0.087 SA
HETATM   12  C   UNL     1     -41.744 -51.868  12.127  1.00  0.00     0.076 A 
BRANCH   9  13
HETATM   13  C   UNL     1     -38.316 -50.195  12.852  1.00  0.00     0.060 C 
HETATM   14  C   UNL     1     -37.451 -50.247  11.604  1.00  0.00     0.012 C 
ENDBRANCH   9  13
ENDBRANCH   6   7
ENDBRANCH   5   6
ENDBRANCH   1   5
BRANCH   2  15
HETATM   15  C   UNL     1     -45.003 -53.072  15.761  1.00  0.00     0.082 C 
HETATM   16  C   UNL     1     -46.509 -53.272  15.495  1.00  0.00     0.019 C 
HETATM   17  C   UNL     1     -47.009 -51.832  15.223  1.00  0.00    -0.013 C 
HETATM   18  C   UNL     1     -46.628 -51.448  13.790  1.00  0.00     0.005 C 
HETATM   19  C   UNL     1     -46.031 -50.969  16.021  1.00  0.00     0.010 C 
HETATM   20  C   UNL     1     -45.095 -51.388  13.861  1.00  0.00     0.006 C 
HETATM   21  C   UNL     1     -44.799 -51.595  15.364  1.00  0.00    -0.001 C 
ENDBRANCH   2  15
TORSDOF 5
ENDMDL
MODEL 5
REMARK VINA RESULT:      -5.5      2.697      3.892
REMARK  5 active torsions:
REMARK  status: ('A' for Active; 'I' for Inactive)
REMARK    1  A    between atoms: C_2  and  C_3 
REMARK    2  A    between atoms: C_6  and  C_7 
REMARK    3  A    between atoms: C_7  and  C_8 
REMARK    4  A    between atoms: C_8  and  N_9 
REMARK       I    between atoms: N_9  and  C_10 
REMARK    5  A    between atoms: C_10  and  C_12 
ROOT
HETATM    1  N   UNL     1     -43.005 -53.930  13.584  1.00  0.00    -0.360 N 
HETATM    2  C   UNL     1     -43.943 -54.631  14.319  1.00  0.00     0.222 C 
HETATM    3  O   UNL     1     -43.658 -55.550  15.079  1.00  0.00    -0.273 OA
HETATM    4  H   UNL     1     -43.315 -53.163  13.000  1.00  0.00     0.162 HD
ENDROOT
BRANCH   1   5
HETATM    5  C   UNL     1     -41.572 -54.182  13.669  1.00  0.00     0.128 C 
BRANCH   5   6
HETATM    6  C   UNL     1     -40.802 -53.625  12.472  1.00  0.00     0.077 C 
BRANCH   6   7
HETATM    7  C   UNL     1     -40.584 -52.143  12.531  1.00  0.00     0.018 A 
HETATM    8  N   UNL     1     -41.016 -51.339  11.482  1.00  0.00    -0.357 N 
HETATM    9  C   UNL     1     -40.794 -50.069  11.765  1.00  0.00     0.050 A 
ATOM     10  HN  UNL     1     -41.443 -51.680  10.621  1.00  0.00     0.166 HD
HETATM   11  S   UNL     1     -40.044 -49.771  13.283  1.00  0.00    -0.087 SA
HETATM   12  C   UNL     1     -40.026 -51.452  13.591  1.00  0.00     0.076 A 
BRANCH   9  13
HETATM   13  C   UNL     1     -41.176 -48.924  10.878  1.00  0.00     0.060 C 
HETATM   14  C   UNL     1     -42.499 -48.300  11.290  1.00  0.00     0.012 C 
ENDBRANCH   9  13
ENDBRANCH   6   7
ENDBRANCH   5   6
ENDBRANCH   1   5
BRANCH   2  15
HETATM   15  C   UNL     1     -45.355 -54.087  14.140  1.00  0.00     0.082 C 
HETATM   16  C   UNL     1     -45.580 -53.028  13.042  1.00  0.00     0.019 C 
HETATM   17  C   UNL     1     -46.466 -51.974  13.751  1.00  0.00    -0.013 C 
HETATM   18  C   UNL     1     -45.571 -51.111  14.645  1.00  0.00     0.005 C 
HETATM   19  C   UNL     1     -47.211 -52.799  14.801  1.00  0.00     0.010 C 
HETATM   20  C   UNL     1     -45.112 -52.111  15.717  1.00  0.00     0.006 C 
HETATM   21  C   UNL     1     -45.925 -53.384  15.389  1.00  0.00    -0.001 C 
ENDBRANCH   2  15
TORSDOF 5
ENDMDL
MODEL 6
REMARK VINA RESULT:      -5.4      3.851      6.832
REMARK  5 active torsions:
REMARK  status: ('A' for Active; 'I' for Inactive)
REMARK    1  A    between atoms: C_2  and  C_3 
REMARK    2  A    between atoms: C_6  and  C_7 
REMARK    3  A    between atoms: C_7  and  C_8 
REMARK    4  A    between atoms: C_8  and  N_9 
REMARK       I    between atoms: N_9  and  C_10 
REMARK    5  A    between atoms: C_10  and  C_12 
ROOT
HETATM    1  N   UNL     1     -40.885 -52.211  13.066  1.00  0.00    -0.360 N 
HETATM    2  C   UNL     1     -39.614 -52.167  13.607  1.00  0.00     0.222 C 
HETATM    3  O   UNL     1     -38.926 -53.164  13.802  1.00  0.00    -0.273 OA
HETATM    4  H   UNL     1     -41.380 -51.341  12.908  1.00  0.00     0.162 HD
ENDROOT
BRANCH   1   5
HETATM    5  C   UNL     1     -41.526 -53.445  12.628  1.00  0.00     0.128 C 
BRANCH   5   6
HETATM    6  C   UNL     1     -42.128 -54.241  13.785  1.00  0.00     0.077 C 
BRANCH   6   7
HETATM    7  C   UNL     1     -43.595 -54.002  13.984  1.00  0.00     0.018 A 
HETATM    8  N   UNL     1     -44.162 -52.803  13.569  1.00  0.00    -0.357 N 
HETATM    9  C   UNL     1     -45.466 -52.826  13.768  1.00  0.00     0.050 A 
ATOM     10  HN  UNL     1     -43.646 -52.020  13.169  1.00  0.00     0.166 HD
HETATM   11  S   UNL     1     -46.079 -54.270  14.475  1.00  0.00    -0.087 SA
HETATM   12  C   UNL     1     -44.496 -54.913  14.505  1.00  0.00     0.076 A 
BRANCH   9  13
HETATM   13  C   UNL     1     -46.401 -51.717  13.396  1.00  0.00     0.060 C 
HETATM   14  C   UNL     1     -46.780 -51.761  11.924  1.00  0.00     0.012 C 
ENDBRANCH   9  13
ENDBRANCH   6   7
ENDBRANCH   5   6
ENDBRANCH   1   5
BRANCH   2  15
HETATM   15  C   UNL     1     -39.133 -50.745  13.863  1.00  0.00     0.082 C 
HETATM   16  C   UNL     1     -39.756 -49.616  13.018  1.00  0.00     0.019 C 
HETATM   17  C   UNL     1     -38.526 -48.766  12.612  1.00  0.00    -0.013 C 
HETATM   18  C   UNL     1     -37.808 -49.472  11.458  1.00  0.00     0.005 C 
HETATM   19  C   UNL     1     -37.542 -49.012  13.757  1.00  0.00     0.010 C 
HETATM   20  C   UNL     1     -37.275 -50.745  12.131  1.00  0.00     0.006 C 
HETATM   21  C   UNL     1     -37.624 -50.534  13.623  1.00  0.00    -0.001 C 
ENDBRANCH   2  15
TORSDOF 5
ENDMDL
MODEL 7
REMARK VINA RESULT:      -5.3      3.768      5.728
REMARK  5 active torsions:
REMARK  status: ('A' for Active; 'I' for Inactive)
REMARK    1  A    between atoms: C_2  and  C_3 
REMARK    2  A    between atoms: C_6  and  C_7 
REMARK    3  A    between atoms: C_7  and  C_8 
REMARK    4  A    between atoms: C_8  and  N_9 
REMARK       I    between atoms: N_9  and  C_10 
REMARK    5  A    between atoms: C_10  and  C_12 
ROOT
HETATM    1  N   UNL     1     -42.481 -51.940  12.082  1.00  0.00    -0.360 N 
HETATM    2  C   UNL     1     -43.137 -52.015  13.295  1.00  0.00     0.222 C 
HETATM    3  O   UNL     1     -42.616 -52.438  14.322  1.00  0.00    -0.273 OA
HETATM    4  H   UNL     1     -42.970 -51.552  11.284  1.00  0.00     0.162 HD
ENDROOT
BRANCH   1   5
HETATM    5  C   UNL     1     -41.084 -52.316  11.903  1.00  0.00     0.128 C 
BRANCH   5   6
HETATM    6  C   UNL     1     -40.120 -51.170  12.211  1.00  0.00     0.077 C 
BRANCH   6   7
HETATM    7  C   UNL     1     -39.492 -51.257  13.569  1.00  0.00     0.018 A 
HETATM    8  N   UNL     1     -39.618 -52.423  14.316  1.00  0.00    -0.357 N 
HETATM    9  C   UNL     1     -38.935 -52.317  15.440  1.00  0.00     0.050 A 
ATOM     10  HN  UNL     1     -40.158 -53.241  14.035  1.00  0.00     0.166 HD
HETATM   11  S   UNL     1     -38.124 -50.818  15.672  1.00  0.00    -0.087 SA
HETATM   12  C   UNL     1     -38.715 -50.278  14.162  1.00  0.00     0.076 A 
BRANCH   9  13
HETATM   13  C   UNL     1     -38.813 -53.404  16.463  1.00  0.00     0.060 C 
HETATM   14  C   UNL     1     -40.134 -54.118  16.696  1.00  0.00     0.012 C 
ENDBRANCH   9  13
ENDBRANCH   6   7
ENDBRANCH   5   6
ENDBRANCH   1   5
BRANCH   2  15
HETATM   15  C   UNL     1     -44.549 -51.446  13.237  1.00  0.00     0.082 C 
HETATM   16  C   UNL     1     -45.215 -51.046  14.569  1.00  0.00     0.019 C 
HETATM   17  C   UNL     1     -46.645 -51.625  14.430  1.00  0.00    -0.013 C 
HETATM   18  C   UNL     1     -46.589 -53.130  14.707  1.00  0.00     0.005 C 
HETATM   19  C   UNL     1     -46.875 -51.620  12.918  1.00  0.00     0.010 C 
HETATM   20  C   UNL     1     -45.771 -53.654  13.518  1.00  0.00     0.006 C 
HETATM   21  C   UNL     1     -45.593 -52.403  12.627  1.00  0.00    -0.001 C 
ENDBRANCH   2  15
TORSDOF 5
ENDMDL
MODEL 8
REMARK VINA RESULT:      -5.2      3.850      5.366
REMARK  5 active torsions:
REMARK  status: ('A' for Active; 'I' for Inactive)
REMARK    1  A    between atoms: C_2  and  C_3 
REMARK    2  A    between atoms: C_6  and  C_7 
REMARK    3  A    between atoms: C_7  and  C_8 
REMARK    4  A    between atoms: C_8  and  N_9 
REMARK       I    between atoms: N_9  and  C_10 
REMARK    5  A    between atoms: C_10  and  C_12 
ROOT
HETATM    1  N   UNL     1     -43.842 -54.460  15.098  1.00  0.00    -0.360 N 
HETATM    2  C   UNL     1     -45.087 -54.142  15.603  1.00  0.00     0.222 C 
HETATM    3  O   UNL     1     -45.434 -54.386  16.754  1.00  0.00    -0.273 OA
HETATM    4  H   UNL     1     -43.618 -54.200  14.145  1.00  0.00     0.162 HD
ENDROOT
BRANCH   1   5
HETATM    5  C   UNL     1     -42.791 -55.082  15.895  1.00  0.00     0.128 C 
BRANCH   5   6
HETATM    6  C   UNL     1     -41.392 -54.820  15.336  1.00  0.00     0.077 C 
BRANCH   6   7
HETATM    7  C   UNL     1     -41.345 -53.721  14.318  1.00  0.00     0.018 A 
HETATM    8  N   UNL     1     -41.174 -52.404  14.729  1.00  0.00    -0.357 N 
HETATM    9  C   UNL     1     -41.088 -51.609  13.679  1.00  0.00     0.050 A 
ATOM     10  HN  UNL     1     -41.122 -52.097  15.700  1.00  0.00     0.166 HD
HETATM   11  S   UNL     1     -41.224 -52.388  12.151  1.00  0.00    -0.087 SA
HETATM   12  C   UNL     1     -41.396 -53.891  12.946  1.00  0.00     0.076 A 
BRANCH   9  13
HETATM   13  C   UNL     1     -40.856 -50.131  13.751  1.00  0.00     0.060 C 
HETATM   14  C   UNL     1     -41.468 -49.519  15.001  1.00  0.00     0.012 C 
ENDBRANCH   9  13
ENDBRANCH   6   7
ENDBRANCH   5   6
ENDBRANCH   1   5
BRANCH   2  15
HETATM   15  C   UNL     1     -45.952 -53.388  14.601  1.00  0.00     0.082 C 
HETATM   16  C   UNL     1     -45.431 -53.266  13.155  1.00  0.00     0.019 C 
HETATM   17  C   UNL     1     -45.700 -51.780  12.812  1.00  0.00    -0.013 C 
HETATM   18  C   UNL     1     -44.607 -50.926  13.464  1.00  0.00     0.005 C 
HETATM   19  C   UNL     1     -46.899 -51.432  13.694  1.00  0.00     0.010 C 
HETATM   20  C   UNL     1     -44.899 -51.104  14.961  1.00  0.00     0.006 C 
HETATM   21  C   UNL     1     -46.215 -51.914  14.975  1.00  0.00    -0.001 C 
ENDBRANCH   2  15
TORSDOF 5
ENDMDL
MODEL 9
REMARK VINA RESULT:      -5.0      4.820      6.988
REMARK  5 active torsions:
REMARK  status: ('A' for Active; 'I' for Inactive)
REMARK    1  A    between atoms: C_2  and  C_3 
REMARK    2  A    between atoms: C_6  and  C_7 
REMARK    3  A    between atoms: C_7  and  C_8 
REMARK    4  A    between atoms: C_8  and  N_9 
REMARK       I    between atoms: N_9  and  C_10 
REMARK    5  A    between atoms: C_10  and  C_12 
ROOT
HETATM    1  N   UNL     1     -44.460 -53.987  17.272  1.00  0.00    -0.360 N 
HETATM    2  C   UNL     1     -44.696 -54.161  15.922  1.00  0.00     0.222 C 
HETATM    3  O   UNL     1     -44.060 -54.939  15.219  1.00  0.00    -0.273 OA
HETATM    4  H   UNL     1     -45.047 -53.347  17.793  1.00  0.00     0.162 HD
ENDROOT
BRANCH   1   5
HETATM    5  C   UNL     1     -43.457 -54.743  18.013  1.00  0.00     0.128 C 
BRANCH   5   6
HETATM    6  C   UNL     1     -42.133 -53.992  18.152  1.00  0.00     0.077 C 
BRANCH   6   7
HETATM    7  C   UNL     1     -41.068 -54.468  17.211  1.00  0.00     0.018 A 
HETATM    8  N   UNL     1     -41.119 -54.107  15.869  1.00  0.00    -0.357 N 
HETATM    9  C   UNL     1     -40.056 -54.566  15.236  1.00  0.00     0.050 A 
ATOM     10  HN  UNL     1     -41.868 -53.567  15.437  1.00  0.00     0.166 HD
HETATM   11  S   UNL     1     -38.952 -55.465  16.202  1.00  0.00    -0.087 SA
HETATM   12  C   UNL     1     -39.956 -55.212  17.562  1.00  0.00     0.076 A 
BRANCH   9  13
HETATM   13  C   UNL     1     -39.763 -54.327  13.787  1.00  0.00     0.060 C 
HETATM   14  C   UNL     1     -41.032 -54.119  12.976  1.00  0.00     0.012 C 
ENDBRANCH   9  13
ENDBRANCH   6   7
ENDBRANCH   5   6
ENDBRANCH   1   5
BRANCH   2  15
HETATM   15  C   UNL     1     -45.878 -53.341  15.422  1.00  0.00     0.082 C 
HETATM   16  C   UNL     1     -46.181 -53.372  13.910  1.00  0.00     0.019 C 
HETATM   17  C   UNL     1     -46.442 -51.882  13.577  1.00  0.00    -0.013 C 
HETATM   18  C   UNL     1     -45.093 -51.166  13.469  1.00  0.00     0.005 C 
HETATM   19  C   UNL     1     -46.963 -51.318  14.899  1.00  0.00     0.010 C 
HETATM   20  C   UNL     1     -44.573 -51.222  14.913  1.00  0.00     0.006 C 
HETATM   21  C   UNL     1     -45.760 -51.828  15.697  1.00  0.00    -0.001 C 
ENDBRANCH   2  15
TORSDOF 5
ENDMDL
