MODEL 1
REMARK VINA RESULT:      -6.0      0.000      0.000
REMARK  5 active torsions:
REMARK  status: ('A' for Active; 'I' for Inactive)
REMARK    1  A    between atoms: O_2  and  C_3 
REMARK    2  A    between atoms: C_6  and  N_7 
REMARK       I    between atoms: N_7  and  C_8 
REMARK       I    between atoms: C_8  and  N_10 
REMARK    3  A    between atoms: N_10  and  C_11 
REMARK    4  A    between atoms: N_14  and  C_15 
REMARK    5  A    between atoms: C_15  and  C_16 
REMARK       I    between atoms: C_16  and  N_18 
ROOT
HETATM    1  N   UNL     1     -42.312 -51.745  12.027  1.00  0.00    -0.308 N 
HETATM    2  C   UNL     1     -42.056 -50.459  12.461  1.00  0.00     0.321 C 
HETATM    3  O   UNL     1     -41.810 -50.148  13.622  1.00  0.00    -0.247 OA
HETATM    4  N   UNL     1     -42.138 -49.509  11.454  1.00  0.00    -0.338 N 
HETATM    5  H   UNL     1     -42.085 -51.955  11.066  1.00  0.00     0.170 HD
HETATM    6  H   UNL     1     -42.735 -49.779  10.685  1.00  0.00     0.164 HD
ENDROOT
BRANCH   4   7
HETATM    7  C   UNL     1     -42.230 -48.105  11.894  1.00  0.00     0.089 C 
HETATM    8  C   UNL     1     -43.227 -47.279  11.074  1.00  0.00     0.055 C 
HETATM    9  C   UNL     1     -42.580 -46.424   9.992  1.00  0.00     0.275 C 
HETATM   10  N   UNL     1     -41.480 -45.580  10.480  1.00  0.00     0.097 N 
HETATM   11  C   UNL     1     -40.418 -46.456  10.990  1.00  0.00     0.275 C 
HETATM   12  C   UNL     1     -40.851 -47.434  12.085  1.00  0.00     0.055 C 
BRANCH  10  13
HETATM   13  C   UNL     1     -41.894 -44.586  11.500  1.00  0.00     0.374 C 
BRANCH  13  14
HETATM   14  C   UNL     1     -42.190 -43.225  10.863  1.00  0.00     0.243 C 
HETATM   15  O   UNL     1     -43.226 -42.963  10.263  1.00  0.00    -0.272 OA
HETATM   16  N   UNL     1     -41.201 -42.292  11.013  1.00  0.00    -0.369 N 
HETATM   17  H   UNL     1     -40.267 -42.615  11.220  1.00  0.00     0.159 HD
HETATM   18  H   UNL     1     -41.312 -41.427  10.502  1.00  0.00     0.159 HD
ENDBRANCH  13  14
ENDBRANCH  10  13
ENDBRANCH   4   7
BRANCH   1  19
HETATM   19  C   UNL     1     -42.526 -52.833  12.918  1.00  0.00     0.051 A 
HETATM   20  C   UNL     1     -43.792 -53.378  13.142  1.00  0.00     0.035 A 
HETATM   21  C   UNL     1     -43.958 -54.434  14.032  1.00  0.00     0.058 A 
HETATM   22  C   UNL     1     -42.841 -54.941  14.670  1.00  0.00     0.141 A 
HETATM   23  N   UNL     1     -41.591 -54.468  14.474  1.00  0.00    -0.345 N 
HETATM   24  C   UNL     1     -41.467 -53.430  13.600  1.00  0.00     0.119 A 
ATOM     25  HN  UNL     1     -40.785 -54.866  14.954  1.00  0.00     0.167 HD
BRANCH  22  26
HETATM   26  O   UNL     1     -43.079 -56.008  15.513  1.00  0.00    -0.341 OA
HETATM   27  C   UNL     1     -42.116 -56.155  16.545  1.00  0.00     0.211 C 
ENDBRANCH  22  26
ENDBRANCH   1  19
TORSDOF 5
ENDMDL
MODEL 2
REMARK VINA RESULT:      -5.8      2.947      3.534
REMARK  5 active torsions:
REMARK  status: ('A' for Active; 'I' for Inactive)
REMARK    1  A    between atoms: O_2  and  C_3 
REMARK    2  A    between atoms: C_6  and  N_7 
REMARK       I    between atoms: N_7  and  C_8 
REMARK       I    between atoms: C_8  and  N_10 
REMARK    3  A    between atoms: N_10  and  C_11 
REMARK    4  A    between atoms: N_14  and  C_15 
REMARK    5  A    between atoms: C_15  and  C_16 
REMARK       I    between atoms: C_16  and  N_18 
ROOT
HETATM    1  N   UNL     1     -39.701 -51.410  14.608  1.00  0.00    -0.308 N 
HETATM    2  C   UNL     1     -40.850 -51.044  13.935  1.00  0.00     0.321 C 
HETATM    3  O   UNL     1     -41.845 -51.751  13.814  1.00  0.00    -0.247 OA
HETATM    4  N   UNL     1     -40.775 -49.786  13.355  1.00  0.00    -0.338 N 
HETATM    5  H   UNL     1     -39.148 -50.664  15.004  1.00  0.00     0.170 HD
HETATM    6  H   UNL     1     -39.831 -49.489  13.146  1.00  0.00     0.164 HD
ENDROOT
BRANCH   4   7
HETATM    7  C   UNL     1     -41.799 -49.478  12.340  1.00  0.00     0.089 C 
HETATM    8  C   UNL     1     -41.208 -48.989  11.013  1.00  0.00     0.055 C 
HETATM    9  C   UNL     1     -41.234 -47.475  10.845  1.00  0.00     0.275 C 
HETATM   10  N   UNL     1     -42.554 -46.873  11.081  1.00  0.00     0.097 N 
HETATM   11  C   UNL     1     -42.935 -47.130  12.475  1.00  0.00     0.275 C 
HETATM   12  C   UNL     1     -42.952 -48.605  12.884  1.00  0.00     0.055 C 
BRANCH  10  13
HETATM   13  C   UNL     1     -43.603 -47.341  10.142  1.00  0.00     0.374 C 
BRANCH  13  14
HETATM   14  C   UNL     1     -43.440 -46.698   8.762  1.00  0.00     0.243 C 
HETATM   15  O   UNL     1     -43.535 -45.493   8.555  1.00  0.00    -0.272 OA
HETATM   16  N   UNL     1     -43.170 -47.574   7.747  1.00  0.00    -0.369 N 
HETATM   17  H   UNL     1     -43.406 -48.546   7.880  1.00  0.00     0.159 HD
HETATM   18  H   UNL     1     -43.177 -47.198   6.809  1.00  0.00     0.159 HD
ENDBRANCH  13  14
ENDBRANCH  10  13
ENDBRANCH   4   7
BRANCH   1  19
HETATM   19  C   UNL     1     -39.460 -52.736  15.061  1.00  0.00     0.051 A 
HETATM   20  C   UNL     1     -39.670 -53.124  16.386  1.00  0.00     0.035 A 
HETATM   21  C   UNL     1     -39.409 -54.429  16.790  1.00  0.00     0.058 A 
HETATM   22  C   UNL     1     -38.959 -55.333  15.846  1.00  0.00     0.141 A 
HETATM   23  N   UNL     1     -38.760 -55.020  14.548  1.00  0.00    -0.345 N 
HETATM   24  C   UNL     1     -39.020 -53.731  14.189  1.00  0.00     0.119 A 
ATOM     25  HN  UNL     1     -38.432 -55.710  13.872  1.00  0.00     0.167 HD
BRANCH  22  26
HETATM   26  O   UNL     1     -38.753 -56.616  16.313  1.00  0.00    -0.341 OA
HETATM   27  C   UNL     1     -38.554 -56.696  17.716  1.00  0.00     0.211 C 
ENDBRANCH  22  26
ENDBRANCH   1  19
TORSDOF 5
ENDMDL
MODEL 3
REMARK VINA RESULT:      -5.8      2.068      9.311
REMARK  5 active torsions:
REMARK  status: ('A' for Active; 'I' for Inactive)
REMARK    1  A    between atoms: O_2  and  C_3 
REMARK    2  A    between atoms: C_6  and  N_7 
REMARK       I    between atoms: N_7  and  C_8 
REMARK       I    between atoms: C_8  and  N_10 
REMARK    3  A    between atoms: N_10  and  C_11 
REMARK    4  A    between atoms: N_14  and  C_15 
REMARK    5  A    between atoms: C_15  and  C_16 
REMARK       I    between atoms: C_16  and  N_18 
ROOT
HETATM    1  N   UNL     1     -41.502 -48.978  10.650  1.00  0.00    -0.308 N 
HETATM    2  C   UNL     1     -41.858 -49.772  11.722  1.00  0.00     0.321 C 
HETATM    3  O   UNL     1     -42.719 -49.488  12.548  1.00  0.00    -0.247 OA
HETATM    4  N   UNL     1     -41.115 -50.939  11.818  1.00  0.00    -0.338 N 
HETATM    5  H   UNL     1     -41.128 -49.449   9.839  1.00  0.00     0.170 HD
HETATM    6  H   UNL     1     -40.202 -50.878  11.388  1.00  0.00     0.164 HD
ENDROOT
BRANCH   4   7
HETATM    7  C   UNL     1     -41.186 -51.650  13.108  1.00  0.00     0.089 C 
HETATM    8  C   UNL     1     -39.902 -51.527  13.937  1.00  0.00     0.055 C 
HETATM    9  C   UNL     1     -38.983 -52.737  13.837  1.00  0.00     0.275 C 
HETATM   10  N   UNL     1     -39.654 -54.017  14.100  1.00  0.00     0.097 N 
HETATM   11  C   UNL     1     -40.690 -54.214  13.080  1.00  0.00     0.275 C 
HETATM   12  C   UNL     1     -41.726 -53.092  12.980  1.00  0.00     0.055 C 
BRANCH  10  13
HETATM   13  C   UNL     1     -40.217 -54.128  15.468  1.00  0.00     0.374 C 
BRANCH  13  14
HETATM   14  C   UNL     1     -39.848 -55.466  16.115  1.00  0.00     0.243 C 
HETATM   15  O   UNL     1     -38.830 -56.095  15.849  1.00  0.00    -0.272 OA
HETATM   16  N   UNL     1     -40.747 -55.928  17.037  1.00  0.00    -0.369 N 
HETATM   17  H   UNL     1     -41.691 -55.571  17.004  1.00  0.00     0.159 HD
HETATM   18  H   UNL     1     -40.594 -56.862  17.392  1.00  0.00     0.159 HD
ENDBRANCH  13  14
ENDBRANCH  10  13
ENDBRANCH   4   7
BRANCH   1  19
HETATM   19  C   UNL     1     -41.951 -47.637  10.499  1.00  0.00     0.051 A 
HETATM   20  C   UNL     1     -41.184 -46.542  10.900  1.00  0.00     0.035 A 
HETATM   21  C   UNL     1     -41.667 -45.247  10.746  1.00  0.00     0.058 A 
HETATM   22  C   UNL     1     -42.911 -45.072  10.168  1.00  0.00     0.141 A 
HETATM   23  N   UNL     1     -43.685 -46.093   9.741  1.00  0.00    -0.345 N 
HETATM   24  C   UNL     1     -43.183 -47.348   9.913  1.00  0.00     0.119 A 
ATOM     25  HN  UNL     1     -44.597 -45.934   9.313  1.00  0.00     0.167 HD
BRANCH  22  26
HETATM   26  O   UNL     1     -43.310 -43.759  10.018  1.00  0.00    -0.341 OA
HETATM   27  C   UNL     1     -42.903 -42.906  11.077  1.00  0.00     0.211 C 
ENDBRANCH  22  26
ENDBRANCH   1  19
TORSDOF 5
ENDMDL
MODEL 4
REMARK VINA RESULT:      -5.6      1.987      9.252
REMARK  5 active torsions:
REMARK  status: ('A' for Active; 'I' for Inactive)
REMARK    1  A    between atoms: O_2  and  C_3 
REMARK    2  A    between atoms: C_6  and  N_7 
REMARK       I    between atoms: N_7  and  C_8 
REMARK       I    between atoms: C_8  and  N_10 
REMARK    3  A    between atoms: N_10  and  C_11 
REMARK    4  A    between atoms: N_14  and  C_15 
REMARK    5  A    between atoms: C_15  and  C_16 
REMARK       I    between atoms: C_16  and  N_18 
ROOT
HETATM    1  N   UNL     1     -40.939 -47.425  12.561  1.00  0.00    -0.308 N 
HETATM    2  C   UNL     1     -41.518 -48.534  11.976  1.00  0.00     0.321 C 
HETATM    3  O   UNL     1     -42.107 -48.529  10.900  1.00  0.00    -0.247 OA
HETATM    4  N   UNL     1     -41.410 -49.684  12.742  1.00  0.00    -0.338 N 
HETATM    5  H   UNL     1     -40.158 -47.592  13.179  1.00  0.00     0.170 HD
HETATM    6  H   UNL     1     -41.310 -49.507  13.732  1.00  0.00     0.164 HD
ENDROOT
BRANCH   4   7
HETATM    7  C   UNL     1     -42.295 -50.802  12.363  1.00  0.00     0.089 C 
HETATM    8  C   UNL     1     -43.486 -50.978  13.310  1.00  0.00     0.055 C 
HETATM    9  C   UNL     1     -43.295 -52.078  14.347  1.00  0.00     0.275 C 
HETATM   10  N   UNL     1     -42.886 -53.369  13.776  1.00  0.00     0.097 N 
HETATM   11  C   UNL     1     -41.581 -53.194  13.128  1.00  0.00     0.275 C 
HETATM   12  C   UNL     1     -41.528 -52.107  12.052  1.00  0.00     0.055 C 
BRANCH  10  13
HETATM   13  C   UNL     1     -43.878 -53.951  12.840  1.00  0.00     0.374 C 
BRANCH  13  14
HETATM   14  C   UNL     1     -45.083 -54.524  13.591  1.00  0.00     0.243 C 
HETATM   15  O   UNL     1     -45.045 -55.550  14.259  1.00  0.00    -0.272 OA
HETATM   16  N   UNL     1     -46.235 -53.796  13.471  1.00  0.00    -0.369 N 
HETATM   17  H   UNL     1     -46.320 -53.161  12.690  1.00  0.00     0.159 HD
HETATM   18  H   UNL     1     -47.075 -54.209  13.853  1.00  0.00     0.159 HD
ENDBRANCH  13  14
ENDBRANCH  10  13
ENDBRANCH   4   7
BRANCH   1  19
HETATM   19  C   UNL     1     -41.142 -46.102  12.080  1.00  0.00     0.051 A 
HETATM   20  C   UNL     1     -40.145 -45.388  11.414  1.00  0.00     0.035 A 
HETATM   21  C   UNL     1     -40.382 -44.090  10.972  1.00  0.00     0.058 A 
HETATM   22  C   UNL     1     -41.631 -43.538  11.189  1.00  0.00     0.141 A 
HETATM   23  N   UNL     1     -42.638 -44.191  11.807  1.00  0.00    -0.345 N 
HETATM   24  C   UNL     1     -42.369 -45.457  12.232  1.00  0.00     0.119 A 
ATOM     25  HN  UNL     1     -43.552 -43.760  11.949  1.00  0.00     0.167 HD
BRANCH  22  26
HETATM   26  O   UNL     1     -41.803 -42.260  10.695  1.00  0.00    -0.341 OA
HETATM   27  C   UNL     1     -41.348 -41.237  11.567  1.00  0.00     0.211 C 
ENDBRANCH  22  26
ENDBRANCH   1  19
TORSDOF 5
ENDMDL
MODEL 5
REMARK VINA RESULT:      -5.3      4.500      7.551
REMARK  5 active torsions:
REMARK  status: ('A' for Active; 'I' for Inactive)
REMARK    1  A    between atoms: O_2  and  C_3 
REMARK    2  A    between atoms: C_6  and  N_7 
REMARK       I    between atoms: N_7  and  C_8 
REMARK       I    between atoms: C_8  and  N_10 
REMARK    3  A    between atoms: N_10  and  C_11 
REMARK    4  A    between atoms: N_14  and  C_15 
REMARK    5  A    between atoms: C_15  and  C_16 
REMARK       I    between atoms: C_16  and  N_18 
ROOT
HETATM    1  N   UNL     1     -39.605 -56.352  17.270  1.00  0.00    -0.308 N 
HETATM    2  C   UNL     1     -39.216 -55.740  16.095  1.00  0.00     0.321 C 
HETATM    3  O   UNL     1     -38.255 -56.082  15.413  1.00  0.00    -0.247 OA
HETATM    4  N   UNL     1     -39.998 -54.647  15.754  1.00  0.00    -0.338 N 
HETATM    5  H   UNL     1     -40.584 -56.291  17.512  1.00  0.00     0.170 HD
HETATM    6  H   UNL     1     -40.451 -54.207  16.543  1.00  0.00     0.164 HD
ENDROOT
BRANCH   4   7
HETATM    7  C   UNL     1     -39.441 -53.744  14.731  1.00  0.00     0.089 C 
HETATM    8  C   UNL     1     -39.259 -52.305  15.228  1.00  0.00     0.055 C 
HETATM    9  C   UNL     1     -40.375 -51.359  14.806  1.00  0.00     0.275 C 
HETATM   10  N   UNL     1     -40.659 -51.380  13.364  1.00  0.00     0.097 N 
HETATM   11  C   UNL     1     -41.116 -52.728  13.004  1.00  0.00     0.275 C 
HETATM   12  C   UNL     1     -40.151 -53.860  13.363  1.00  0.00     0.055 C 
BRANCH  10  13
HETATM   13  C   UNL     1     -39.514 -50.957  12.521  1.00  0.00     0.374 C 
BRANCH  13  14
HETATM   14  C   UNL     1     -39.884 -49.761  11.640  1.00  0.00     0.243 C 
HETATM   15  O   UNL     1     -39.692 -48.593  11.960  1.00  0.00    -0.272 OA
HETATM   16  N   UNL     1     -40.454 -50.084  10.439  1.00  0.00    -0.369 N 
HETATM   17  H   UNL     1     -40.878 -50.995  10.342  1.00  0.00     0.159 HD
HETATM   18  H   UNL     1     -40.819 -49.318   9.889  1.00  0.00     0.159 HD
ENDBRANCH  13  14
ENDBRANCH  10  13
ENDBRANCH   4   7
BRANCH   1  19
HETATM   19  C   UNL     1     -38.809 -57.324  17.936  1.00  0.00     0.051 A 
HETATM   20  C   UNL     1     -37.614 -57.000  18.578  1.00  0.00     0.035 A 
HETATM   21  C   UNL     1     -36.859 -57.985  19.206  1.00  0.00     0.058 A 
HETATM   22  C   UNL     1     -37.332 -59.284  19.197  1.00  0.00     0.141 A 
HETATM   23  N   UNL     1     -38.493 -59.651  18.611  1.00  0.00    -0.345 N 
HETATM   24  C   UNL     1     -39.203 -58.661  18.000  1.00  0.00     0.119 A 
ATOM     25  HN  UNL     1     -38.820 -60.616  18.625  1.00  0.00     0.167 HD
BRANCH  22  26
HETATM   26  O   UNL     1     -36.548 -60.201  19.867  1.00  0.00    -0.341 OA
HETATM   27  C   UNL     1     -35.379 -60.587  19.161  1.00  0.00     0.211 C 
ENDBRANCH  22  26
ENDBRANCH   1  19
TORSDOF 5
ENDMDL
MODEL 6
REMARK VINA RESULT:      -5.3      6.197      8.731
REMARK  5 active torsions:
REMARK  status: ('A' for Active; 'I' for Inactive)
REMARK    1  A    between atoms: O_2  and  C_3 
REMARK    2  A    between atoms: C_6  and  N_7 
REMARK       I    between atoms: N_7  and  C_8 
REMARK       I    between atoms: C_8  and  N_10 
REMARK    3  A    between atoms: N_10  and  C_11 
REMARK    4  A    between atoms: N_14  and  C_15 
REMARK    5  A    between atoms: C_15  and  C_16 
REMARK       I    between atoms: C_16  and  N_18 
ROOT
HETATM    1  N   UNL     1     -47.802 -51.632  16.939  1.00  0.00    -0.308 N 
HETATM    2  C   UNL     1     -46.603 -52.304  16.804  1.00  0.00     0.321 C 
HETATM    3  O   UNL     1     -45.835 -52.557  17.727  1.00  0.00    -0.247 OA
HETATM    4  N   UNL     1     -46.307 -52.652  15.495  1.00  0.00    -0.338 N 
HETATM    5  H   UNL     1     -48.519 -51.839  16.259  1.00  0.00     0.170 HD
HETATM    6  H   UNL     1     -46.747 -52.057  14.806  1.00  0.00     0.164 HD
ENDROOT
BRANCH   4   7
HETATM    7  C   UNL     1     -44.910 -53.043  15.228  1.00  0.00     0.089 C 
HETATM    8  C   UNL     1     -44.033 -51.875  14.764  1.00  0.00     0.055 C 
HETATM    9  C   UNL     1     -43.829 -51.814  13.256  1.00  0.00     0.275 C 
HETATM   10  N   UNL     1     -43.366 -53.079  12.668  1.00  0.00     0.097 N 
HETATM   11  C   UNL     1     -44.399 -54.098  12.894  1.00  0.00     0.275 C 
HETATM   12  C   UNL     1     -44.790 -54.315  14.358  1.00  0.00     0.055 C 
BRANCH  10  13
HETATM   13  C   UNL     1     -42.047 -53.529  13.175  1.00  0.00     0.374 C 
BRANCH  13  14
HETATM   14  C   UNL     1     -40.901 -52.907  12.372  1.00  0.00     0.243 C 
HETATM   15  O   UNL     1     -39.800 -52.647  12.843  1.00  0.00    -0.272 OA
HETATM   16  N   UNL     1     -41.188 -52.658  11.058  1.00  0.00    -0.369 N 
HETATM   17  H   UNL     1     -42.157 -52.585  10.786  1.00  0.00     0.159 HD
HETATM   18  H   UNL     1     -40.497 -52.139  10.533  1.00  0.00     0.159 HD
ENDBRANCH  13  14
ENDBRANCH  10  13
ENDBRANCH   4   7
BRANCH   1  19
HETATM   19  C   UNL     1     -48.186 -50.968  18.136  1.00  0.00     0.051 A 
HETATM   20  C   UNL     1     -47.996 -49.599  18.327  1.00  0.00     0.035 A 
HETATM   21  C   UNL     1     -48.374 -48.992  19.520  1.00  0.00     0.058 A 
HETATM   22  C   UNL     1     -48.961 -49.773  20.499  1.00  0.00     0.141 A 
HETATM   23  N   UNL     1     -49.190 -51.096  20.360  1.00  0.00    -0.345 N 
HETATM   24  C   UNL     1     -48.801 -51.658  19.181  1.00  0.00     0.119 A 
ATOM     25  HN  UNL     1     -49.630 -51.646  21.098  1.00  0.00     0.167 HD
BRANCH  22  26
HETATM   26  O   UNL     1     -49.339 -49.097  21.641  1.00  0.00    -0.341 OA
HETATM   27  C   UNL     1     -49.721 -47.748  21.416  1.00  0.00     0.211 C 
ENDBRANCH  22  26
ENDBRANCH   1  19
TORSDOF 5
ENDMDL
MODEL 7
REMARK VINA RESULT:      -5.2      4.869      8.835
REMARK  5 active torsions:
REMARK  status: ('A' for Active; 'I' for Inactive)
REMARK    1  A    between atoms: O_2  and  C_3 
REMARK    2  A    between atoms: C_6  and  N_7 
REMARK       I    between atoms: N_7  and  C_8 
REMARK       I    between atoms: C_8  and  N_10 
REMARK    3  A    between atoms: N_10  and  C_11 
REMARK    4  A    between atoms: N_14  and  C_15 
REMARK    5  A    between atoms: C_15  and  C_16 
REMARK       I    between atoms: C_16  and  N_18 
ROOT
HETATM    1  N   UNL     1     -38.194 -50.314  14.301  1.00  0.00    -0.308 N 
HETATM    2  C   UNL     1     -39.494 -50.548  14.704  1.00  0.00     0.321 C 
HETATM    3  O   UNL     1     -40.026 -50.037  15.684  1.00  0.00    -0.247 OA
HETATM    4  N   UNL     1     -40.164 -51.465  13.908  1.00  0.00    -0.338 N 
HETATM    5  H   UNL     1     -37.996 -50.423  13.317  1.00  0.00     0.170 HD
HETATM    6  H   UNL     1     -39.553 -52.114  13.431  1.00  0.00     0.164 HD
ENDROOT
BRANCH   4   7
HETATM    7  C   UNL     1     -41.407 -52.026  14.470  1.00  0.00     0.089 C 
HETATM    8  C   UNL     1     -41.322 -53.533  14.737  1.00  0.00     0.055 C 
HETATM    9  C   UNL     1     -41.961 -54.391  13.652  1.00  0.00     0.275 C 
HETATM   10  N   UNL     1     -43.336 -53.996  13.315  1.00  0.00     0.097 N 
HETATM   11  C   UNL     1     -43.306 -52.629  12.782  1.00  0.00     0.275 C 
HETATM   12  C   UNL     1     -42.675 -51.584  13.705  1.00  0.00     0.055 C 
BRANCH  10  13
HETATM   13  C   UNL     1     -44.288 -54.112  14.447  1.00  0.00     0.374 C 
BRANCH  13  14
HETATM   14  C   UNL     1     -45.623 -54.707  13.992  1.00  0.00     0.243 C 
HETATM   15  O   UNL     1     -45.813 -55.906  13.821  1.00  0.00    -0.272 OA
HETATM   16  N   UNL     1     -46.621 -53.794  13.788  1.00  0.00    -0.369 N 
HETATM   17  H   UNL     1     -46.362 -52.831  13.630  1.00  0.00     0.159 HD
HETATM   18  H   UNL     1     -47.475 -54.140  13.373  1.00  0.00     0.159 HD
ENDBRANCH  13  14
ENDBRANCH  10  13
ENDBRANCH   4   7
BRANCH   1  19
HETATM   19  C   UNL     1     -37.252 -49.611  15.101  1.00  0.00     0.051 A 
HETATM   20  C   UNL     1     -36.421 -50.256  16.019  1.00  0.00     0.035 A 
HETATM   21  C   UNL     1     -35.522 -49.527  16.791  1.00  0.00     0.058 A 
HETATM   22  C   UNL     1     -35.458 -48.158  16.611  1.00  0.00     0.141 A 
HETATM   23  N   UNL     1     -36.221 -47.485  15.723  1.00  0.00    -0.345 N 
HETATM   24  C   UNL     1     -37.094 -48.230  14.988  1.00  0.00     0.119 A 
ATOM     25  HN  UNL     1     -36.148 -46.474  15.608  1.00  0.00     0.167 HD
BRANCH  22  26
HETATM   26  O   UNL     1     -34.521 -47.506  17.388  1.00  0.00    -0.341 OA
HETATM   27  C   UNL     1     -34.945 -47.259  18.720  1.00  0.00     0.211 C 
ENDBRANCH  22  26
ENDBRANCH   1  19
TORSDOF 5
ENDMDL
MODEL 8
REMARK VINA RESULT:      -5.2      1.890      2.052
REMARK  5 active torsions:
REMARK  status: ('A' for Active; 'I' for Inactive)
REMARK    1  A    between atoms: O_2  and  C_3 
REMARK    2  A    between atoms: C_6  and  N_7 
REMARK       I    between atoms: N_7  and  C_8 
REMARK       I    between atoms: C_8  and  N_10 
REMARK    3  A    between atoms: N_10  and  C_11 
REMARK    4  A    between atoms: N_14  and  C_15 
REMARK    5  A    between atoms: C_15  and  C_16 
REMARK       I    between atoms: C_16  and  N_18 
ROOT
HETATM    1  N   UNL     1     -43.702 -50.955  12.589  1.00  0.00    -0.308 N 
HETATM    2  C   UNL     1     -42.875 -49.923  12.987  1.00  0.00     0.321 C 
HETATM    3  O   UNL     1     -42.451 -49.766  14.128  1.00  0.00    -0.247 OA
HETATM    4  N   UNL     1     -42.580 -49.027  11.971  1.00  0.00    -0.338 N 
HETATM    5  H   UNL     1     -43.647 -51.234  11.621  1.00  0.00     0.170 HD
HETATM    6  H   UNL     1     -43.278 -48.994  11.241  1.00  0.00     0.164 HD
ENDROOT
BRANCH   4   7
HETATM    7  C   UNL     1     -42.011 -47.733  12.392  1.00  0.00     0.089 C 
HETATM    8  C   UNL     1     -42.958 -46.551  12.157  1.00  0.00     0.055 C 
HETATM    9  C   UNL     1     -42.656 -45.758  10.893  1.00  0.00     0.275 C 
HETATM   10  N   UNL     1     -41.253 -45.334  10.777  1.00  0.00     0.097 N 
HETATM   11  C   UNL     1     -40.412 -46.535  10.710  1.00  0.00     0.275 C 
HETATM   12  C   UNL     1     -40.570 -47.506  11.882  1.00  0.00     0.055 C 
BRANCH  10  13
HETATM   13  C   UNL     1     -40.810 -44.427  11.864  1.00  0.00     0.374 C 
BRANCH  13  14
HETATM   14  C   UNL     1     -40.912 -42.959  11.440  1.00  0.00     0.243 C 
HETATM   15  O   UNL     1     -41.556 -42.572  10.472  1.00  0.00    -0.272 OA
HETATM   16  N   UNL     1     -40.225 -42.082  12.233  1.00  0.00    -0.369 N 
HETATM   17  H   UNL     1     -39.474 -42.442  12.805  1.00  0.00     0.159 HD
HETATM   18  H   UNL     1     -40.172 -41.125  11.912  1.00  0.00     0.159 HD
ENDBRANCH  13  14
ENDBRANCH  10  13
ENDBRANCH   4   7
BRANCH   1  19
HETATM   19  C   UNL     1     -44.329 -51.841  13.508  1.00  0.00     0.051 A 
HETATM   20  C   UNL     1     -45.601 -51.599  14.031  1.00  0.00     0.035 A 
HETATM   21  C   UNL     1     -46.172 -52.486  14.938  1.00  0.00     0.058 A 
HETATM   22  C   UNL     1     -45.460 -53.618  15.289  1.00  0.00     0.141 A 
HETATM   23  N   UNL     1     -44.238 -53.914  14.798  1.00  0.00    -0.345 N 
HETATM   24  C   UNL     1     -43.707 -53.020  13.917  1.00  0.00     0.119 A 
ATOM     25  HN  UNL     1     -43.738 -54.760  15.071  1.00  0.00     0.167 HD
BRANCH  22  26
HETATM   26  O   UNL     1     -46.103 -54.467  16.167  1.00  0.00    -0.341 OA
HETATM   27  C   UNL     1     -45.899 -54.147  17.535  1.00  0.00     0.211 C 
ENDBRANCH  22  26
ENDBRANCH   1  19
TORSDOF 5
ENDMDL
MODEL 9
REMARK VINA RESULT:      -5.1      2.269      2.920
REMARK  5 active torsions:
REMARK  status: ('A' for Active; 'I' for Inactive)
REMARK    1  A    between atoms: O_2  and  C_3 
REMARK    2  A    between atoms: C_6  and  N_7 
REMARK       I    between atoms: N_7  and  C_8 
REMARK       I    between atoms: C_8  and  N_10 
REMARK    3  A    between atoms: N_10  and  C_11 
REMARK    4  A    between atoms: N_14  and  C_15 
REMARK    5  A    between atoms: C_15  and  C_16 
REMARK       I    between atoms: C_16  and  N_18 
ROOT
HETATM    1  N   UNL     1     -40.631 -53.002  12.960  1.00  0.00    -0.308 N 
HETATM    2  C   UNL     1     -40.369 -51.648  13.018  1.00  0.00     0.321 C 
HETATM    3  O   UNL     1     -39.716 -51.098  13.899  1.00  0.00    -0.247 OA
HETATM    4  N   UNL     1     -40.953 -50.926  11.988  1.00  0.00    -0.338 N 
HETATM    5  H   UNL     1     -40.786 -53.397  12.044  1.00  0.00     0.170 HD
HETATM    6  H   UNL     1     -41.774 -51.367  11.595  1.00  0.00     0.164 HD
ENDROOT
BRANCH   4   7
HETATM    7  C   UNL     1     -41.019 -49.465  12.175  1.00  0.00     0.089 C 
HETATM    8  C   UNL     1     -42.244 -49.014  12.977  1.00  0.00     0.055 C 
HETATM    9  C   UNL     1     -43.392 -48.500  12.118  1.00  0.00     0.275 C 
HETATM   10  N   UNL     1     -42.994 -47.469  11.149  1.00  0.00     0.097 N 
HETATM   11  C   UNL     1     -42.027 -48.062  10.217  1.00  0.00     0.275 C 
HETATM   12  C   UNL     1     -40.784 -48.672  10.870  1.00  0.00     0.055 C 
BRANCH  10  13
HETATM   13  C   UNL     1     -42.455 -46.236  11.772  1.00  0.00     0.374 C 
BRANCH  13  14
HETATM   14  C   UNL     1     -42.338 -45.102  10.750  1.00  0.00     0.243 C 
HETATM   15  O   UNL     1     -41.270 -44.639  10.365  1.00  0.00    -0.272 OA
HETATM   16  N   UNL     1     -43.530 -44.629  10.275  1.00  0.00    -0.369 N 
HETATM   17  H   UNL     1     -44.362 -44.797  10.821  1.00  0.00     0.159 HD
HETATM   18  H   UNL     1     -43.491 -43.803   9.693  1.00  0.00     0.159 HD
ENDBRANCH  13  14
ENDBRANCH  10  13
ENDBRANCH   4   7
BRANCH   1  19
HETATM   19  C   UNL     1     -40.348 -53.891  14.034  1.00  0.00     0.051 A 
HETATM   20  C   UNL     1     -39.075 -54.420  14.252  1.00  0.00     0.035 A 
HETATM   21  C   UNL     1     -38.845 -55.297  15.307  1.00  0.00     0.058 A 
HETATM   22  C   UNL     1     -39.900 -55.612  16.143  1.00  0.00     0.141 A 
HETATM   23  N   UNL     1     -41.146 -55.113  15.993  1.00  0.00    -0.345 N 
HETATM   24  C   UNL     1     -41.335 -54.262  14.946  1.00  0.00     0.119 A 
ATOM     25  HN  UNL     1     -41.904 -55.359  16.629  1.00  0.00     0.167 HD
BRANCH  22  26
HETATM   26  O   UNL     1     -39.589 -56.462  17.186  1.00  0.00    -0.341 OA
HETATM   27  C   UNL     1     -38.207 -56.506  17.503  1.00  0.00     0.211 C 
ENDBRANCH  22  26
ENDBRANCH   1  19
TORSDOF 5
ENDMDL
