MODEL 1
REMARK VINA RESULT:      -6.3      0.000      0.000
REMARK  2 active torsions:
REMARK  status: ('A' for Active; 'I' for Inactive)
REMARK    1  A    between atoms: C_8  and  N_9 
REMARK       I    between atoms: N_9  and  C_10 
REMARK       I    between atoms: C_10  and  N_12 
REMARK    2  A    between atoms: N_12  and  C_13 
ROOT
HETATM    1  N   UNL     1     -40.518 -49.403  10.801  1.00  0.00    -0.337 N 
HETATM    2  C   UNL     1     -41.395 -48.332  10.829  1.00  0.00     0.322 C 
HETATM    3  O   UNL     1     -41.650 -47.729  11.862  1.00  0.00    -0.247 OA
HETATM    4  N   UNL     1     -41.954 -48.110   9.597  1.00  0.00    -0.288 N 
HETATM    5  H   UNL     1     -40.012 -49.549   9.940  1.00  0.00     0.164 HD
HETATM    6  H   UNL     1     -41.890 -48.823   8.891  1.00  0.00     0.172 HD
ENDROOT
BRANCH   1   7
HETATM    7  C   UNL     1     -39.882 -49.852  12.036  1.00  0.00     0.093 C 
HETATM    8  C   UNL     1     -38.409 -49.381  12.134  1.00  0.00     0.004 C 
HETATM    9  C   UNL     1     -37.529 -49.869  10.975  1.00  0.00     0.012 C 
HETATM   10  C   UNL     1     -37.820 -49.811  13.488  1.00  0.00     0.006 C 
HETATM   11  C   UNL     1     -37.958 -51.310  13.743  1.00  0.00     0.001 C 
HETATM   12  C   UNL     1     -39.399 -51.788  13.586  1.00  0.00     0.006 C 
HETATM   13  C   UNL     1     -40.019 -51.378  12.238  1.00  0.00     0.004 C 
HETATM   14  C   UNL     1     -41.483 -51.832  12.195  1.00  0.00     0.012 C 
ENDBRANCH   1   7
BRANCH   4  15
HETATM   15  C   UNL     1     -42.893 -47.130   9.422  1.00  0.00     0.168 A 
HETATM   16  N   UNL     1     -42.887 -45.871   9.793  1.00  0.00    -0.279 N 
HETATM   17  N   UNL     1     -44.063 -45.226   9.458  1.00  0.00    -0.303 N 
ATOM     18  HN  UNL     1     -42.106 -45.421  10.271  1.00  0.00     0.189 HD
HETATM   19  C   UNL     1     -44.901 -46.034   8.846  1.00  0.00     0.160 A 
ATOM     20  HN  UNL     1     -44.256 -44.245   9.660  1.00  0.00     0.186 HD
HETATM   21  S   UNL     1     -44.306 -47.627   8.598  1.00  0.00    -0.046 SA
ENDBRANCH   4  15
TORSDOF 2
ENDMDL
MODEL 2
REMARK VINA RESULT:      -6.1      4.148      6.456
REMARK  2 active torsions:
REMARK  status: ('A' for Active; 'I' for Inactive)
REMARK    1  A    between atoms: C_8  and  N_9 
REMARK       I    between atoms: N_9  and  C_10 
REMARK       I    between atoms: C_10  and  N_12 
REMARK    2  A    between atoms: N_12  and  C_13 
ROOT
HETATM    1  N   UNL     1     -44.012 -50.744  12.845  1.00  0.00    -0.337 N 
HETATM    2  C   UNL     1     -42.653 -50.862  12.610  1.00  0.00     0.322 C 
HETATM    3  O   UNL     1     -41.992 -51.784  13.071  1.00  0.00    -0.247 OA
HETATM    4  N   UNL     1     -42.177 -49.806  11.878  1.00  0.00    -0.288 N 
HETATM    5  H   UNL     1     -44.556 -50.294  12.124  1.00  0.00     0.164 HD
HETATM    6  H   UNL     1     -42.738 -48.977  11.787  1.00  0.00     0.172 HD
ENDROOT
BRANCH   1   7
HETATM    7  C   UNL     1     -44.692 -51.730  13.681  1.00  0.00     0.093 C 
HETATM    8  C   UNL     1     -45.673 -52.607  12.862  1.00  0.00     0.004 C 
HETATM    9  C   UNL     1     -46.763 -51.802  12.143  1.00  0.00     0.012 C 
HETATM   10  C   UNL     1     -46.294 -53.676  13.776  1.00  0.00     0.006 C 
HETATM   11  C   UNL     1     -46.959 -53.081  15.014  1.00  0.00     0.001 C 
HETATM   12  C   UNL     1     -46.014 -52.166  15.789  1.00  0.00     0.006 C 
HETATM   13  C   UNL     1     -45.377 -51.080  14.905  1.00  0.00     0.004 C 
HETATM   14  C   UNL     1     -44.390 -50.258  15.742  1.00  0.00     0.012 C 
ENDBRANCH   1   7
BRANCH   4  15
HETATM   15  C   UNL     1     -40.845 -49.703  11.584  1.00  0.00     0.168 A 
HETATM   16  N   UNL     1     -40.140 -50.254  10.623  1.00  0.00    -0.279 N 
HETATM   17  N   UNL     1     -38.800 -49.924  10.708  1.00  0.00    -0.303 N 
ATOM     18  HN  UNL     1     -40.535 -50.854   9.899  1.00  0.00     0.189 HD
HETATM   19  C   UNL     1     -38.559 -49.135  11.733  1.00  0.00     0.160 A 
ATOM     20  HN  UNL     1     -38.087 -50.252  10.057  1.00  0.00     0.186 HD
HETATM   21  S   UNL     1     -39.950 -48.704  12.645  1.00  0.00    -0.046 SA
ENDBRANCH   4  15
TORSDOF 2
ENDMDL
MODEL 3
REMARK VINA RESULT:      -5.9      4.179      6.525
REMARK  2 active torsions:
REMARK  status: ('A' for Active; 'I' for Inactive)
REMARK    1  A    between atoms: C_8  and  N_9 
REMARK       I    between atoms: N_9  and  C_10 
REMARK       I    between atoms: C_10  and  N_12 
REMARK    2  A    between atoms: N_12  and  C_13 
ROOT
HETATM    1  N   UNL     1     -42.517 -51.697  13.664  1.00  0.00    -0.337 N 
HETATM    2  C   UNL     1     -41.547 -51.560  12.686  1.00  0.00     0.322 C 
HETATM    3  O   UNL     1     -41.577 -52.208  11.648  1.00  0.00    -0.247 OA
HETATM    4  N   UNL     1     -40.567 -50.683  13.071  1.00  0.00    -0.288 N 
HETATM    5  H   UNL     1     -42.709 -50.881  14.226  1.00  0.00     0.164 HD
HETATM    6  H   UNL     1     -40.493 -50.421  14.039  1.00  0.00     0.172 HD
ENDROOT
BRANCH   1   7
HETATM    7  C   UNL     1     -43.606 -52.652  13.478  1.00  0.00     0.093 C 
HETATM    8  C   UNL     1     -44.993 -51.961  13.491  1.00  0.00     0.004 C 
HETATM    9  C   UNL     1     -45.286 -51.196  14.790  1.00  0.00     0.012 C 
HETATM   10  C   UNL     1     -46.090 -53.000  13.208  1.00  0.00     0.006 C 
HETATM   11  C   UNL     1     -46.037 -54.191  14.163  1.00  0.00     0.001 C 
HETATM   12  C   UNL     1     -44.654 -54.835  14.199  1.00  0.00     0.006 C 
HETATM   13  C   UNL     1     -43.531 -53.823  14.484  1.00  0.00     0.004 C 
HETATM   14  C   UNL     1     -42.176 -54.538  14.429  1.00  0.00     0.012 C 
ENDBRANCH   1   7
BRANCH   4  15
HETATM   15  C   UNL     1     -39.484 -50.449  12.268  1.00  0.00     0.168 A 
HETATM   16  N   UNL     1     -39.422 -50.033  11.025  1.00  0.00    -0.279 N 
HETATM   17  N   UNL     1     -38.120 -49.971  10.564  1.00  0.00    -0.303 N 
ATOM     18  HN  UNL     1     -40.237 -49.785  10.465  1.00  0.00     0.189 HD
HETATM   19  C   UNL     1     -37.260 -50.342  11.488  1.00  0.00     0.160 A 
ATOM     20  HN  UNL     1     -37.858 -49.674   9.624  1.00  0.00     0.186 HD
HETATM   21  S   UNL     1     -37.969 -50.757  12.998  1.00  0.00    -0.046 SA
ENDBRANCH   4  15
TORSDOF 2
ENDMDL
MODEL 4
REMARK VINA RESULT:      -5.8      3.052      4.416
REMARK  2 active torsions:
REMARK  status: ('A' for Active; 'I' for Inactive)
REMARK    1  A    between atoms: C_8  and  N_9 
REMARK       I    between atoms: N_9  and  C_10 
REMARK       I    between atoms: C_10  and  N_12 
REMARK    2  A    between atoms: N_12  and  C_13 
ROOT
HETATM    1  N   UNL     1     -42.357 -51.835  12.108  1.00  0.00    -0.337 N 
HETATM    2  C   UNL     1     -41.778 -50.588  12.265  1.00  0.00     0.322 C 
HETATM    3  O   UNL     1     -41.528 -50.123  13.369  1.00  0.00    -0.247 OA
HETATM    4  N   UNL     1     -41.599 -49.964  11.059  1.00  0.00    -0.288 N 
HETATM    5  H   UNL     1     -42.123 -52.339  11.266  1.00  0.00     0.164 HD
HETATM    6  H   UNL     1     -42.083 -50.310  10.248  1.00  0.00     0.172 HD
ENDROOT
BRANCH   1   7
HETATM    7  C   UNL     1     -42.706 -52.627  13.285  1.00  0.00     0.093 C 
HETATM    8  C   UNL     1     -41.472 -53.346  13.888  1.00  0.00     0.004 C 
HETATM    9  C   UNL     1     -40.772 -54.293  12.904  1.00  0.00     0.012 C 
HETATM   10  C   UNL     1     -41.885 -54.091  15.167  1.00  0.00     0.006 C 
HETATM   11  C   UNL     1     -43.051 -55.051  14.943  1.00  0.00     0.001 C 
HETATM   12  C   UNL     1     -44.245 -54.359  14.292  1.00  0.00     0.006 C 
HETATM   13  C   UNL     1     -43.869 -53.605  13.004  1.00  0.00     0.004 C 
HETATM   14  C   UNL     1     -45.106 -52.881  12.459  1.00  0.00     0.012 C 
ENDBRANCH   1   7
BRANCH   4  15
HETATM   15  C   UNL     1     -41.091 -48.695  10.997  1.00  0.00     0.168 A 
HETATM   16  N   UNL     1     -39.887 -48.247  11.269  1.00  0.00    -0.279 N 
HETATM   17  N   UNL     1     -39.798 -46.876  11.120  1.00  0.00    -0.303 N 
ATOM     18  HN  UNL     1     -39.109 -48.841  11.556  1.00  0.00     0.189 HD
HETATM   19  C   UNL     1     -40.944 -46.354  10.738  1.00  0.00     0.160 A 
ATOM     20  HN  UNL     1     -38.949 -46.335  11.285  1.00  0.00     0.186 HD
HETATM   21  S   UNL     1     -42.203 -47.498  10.495  1.00  0.00    -0.046 SA
ENDBRANCH   4  15
TORSDOF 2
ENDMDL
MODEL 5
REMARK VINA RESULT:      -5.8      1.660      2.324
REMARK  2 active torsions:
REMARK  status: ('A' for Active; 'I' for Inactive)
REMARK    1  A    between atoms: C_8  and  N_9 
REMARK       I    between atoms: N_9  and  C_10 
REMARK       I    between atoms: C_10  and  N_12 
REMARK    2  A    between atoms: N_12  and  C_13 
ROOT
HETATM    1  N   UNL     1     -39.728 -48.395  11.511  1.00  0.00    -0.337 N 
HETATM    2  C   UNL     1     -41.030 -48.413  11.041  1.00  0.00     0.322 C 
HETATM    3  O   UNL     1     -41.834 -49.267  11.389  1.00  0.00    -0.247 OA
HETATM    4  N   UNL     1     -41.245 -47.417  10.125  1.00  0.00    -0.288 N 
HETATM    5  H   UNL     1     -39.285 -47.490  11.577  1.00  0.00     0.164 HD
HETATM    6  H   UNL     1     -40.457 -46.950   9.710  1.00  0.00     0.172 HD
ENDROOT
BRANCH   1   7
HETATM    7  C   UNL     1     -39.276 -49.430  12.436  1.00  0.00     0.093 C 
HETATM    8  C   UNL     1     -39.732 -49.149  13.891  1.00  0.00     0.004 C 
HETATM    9  C   UNL     1     -39.231 -47.807  14.443  1.00  0.00     0.012 C 
HETATM   10  C   UNL     1     -39.301 -50.311  14.800  1.00  0.00     0.006 C 
HETATM   11  C   UNL     1     -37.804 -50.602  14.718  1.00  0.00     0.001 C 
HETATM   12  C   UNL     1     -37.341 -50.818  13.279  1.00  0.00     0.006 C 
HETATM   13  C   UNL     1     -37.753 -49.670  12.341  1.00  0.00     0.004 C 
HETATM   14  C   UNL     1     -37.314 -50.002  10.910  1.00  0.00     0.012 C 
ENDBRANCH   1   7
BRANCH   4  15
HETATM   15  C   UNL     1     -42.454 -47.296   9.495  1.00  0.00     0.168 A 
HETATM   16  N   UNL     1     -43.032 -48.071   8.608  1.00  0.00    -0.279 N 
HETATM   17  N   UNL     1     -44.246 -47.561   8.186  1.00  0.00    -0.303 N 
ATOM     18  HN  UNL     1     -42.633 -48.947   8.269  1.00  0.00     0.189 HD
HETATM   19  C   UNL     1     -44.526 -46.422   8.781  1.00  0.00     0.160 A 
ATOM     20  HN  UNL     1     -44.850 -48.012   7.499  1.00  0.00     0.186 HD
HETATM   21  S   UNL     1     -43.353 -45.907   9.927  1.00  0.00    -0.046 SA
ENDBRANCH   4  15
TORSDOF 2
ENDMDL
MODEL 6
REMARK VINA RESULT:      -5.7      3.452      6.393
REMARK  2 active torsions:
REMARK  status: ('A' for Active; 'I' for Inactive)
REMARK    1  A    between atoms: C_8  and  N_9 
REMARK       I    between atoms: N_9  and  C_10 
REMARK       I    between atoms: C_10  and  N_12 
REMARK    2  A    between atoms: N_12  and  C_13 
ROOT
HETATM    1  N   UNL     1     -42.867 -48.695  11.730  1.00  0.00    -0.337 N 
HETATM    2  C   UNL     1     -41.980 -49.753  11.824  1.00  0.00     0.322 C 
HETATM    3  O   UNL     1     -40.782 -49.617  11.613  1.00  0.00    -0.247 OA
HETATM    4  N   UNL     1     -42.628 -50.927  12.108  1.00  0.00    -0.288 N 
HETATM    5  H   UNL     1     -43.682 -48.735  12.325  1.00  0.00     0.164 HD
HETATM    6  H   UNL     1     -43.625 -50.980  11.990  1.00  0.00     0.172 HD
ENDROOT
BRANCH   1   7
HETATM    7  C   UNL     1     -42.381 -47.371  11.351  1.00  0.00     0.093 C 
HETATM    8  C   UNL     1     -41.999 -46.517  12.587  1.00  0.00     0.004 C 
HETATM    9  C   UNL     1     -43.161 -46.303  13.568  1.00  0.00     0.012 C 
HETATM   10  C   UNL     1     -41.417 -45.172  12.125  1.00  0.00     0.006 C 
HETATM   11  C   UNL     1     -42.348 -44.420  11.177  1.00  0.00     0.001 C 
HETATM   12  C   UNL     1     -42.775 -45.280   9.990  1.00  0.00     0.006 C 
HETATM   13  C   UNL     1     -43.367 -46.634  10.418  1.00  0.00     0.004 C 
HETATM   14  C   UNL     1     -43.699 -47.460   9.169  1.00  0.00     0.012 C 
ENDBRANCH   1   7
BRANCH   4  15
HETATM   15  C   UNL     1     -41.937 -52.105  12.187  1.00  0.00     0.168 A 
HETATM   16  N   UNL     1     -41.161 -52.696  11.309  1.00  0.00    -0.279 N 
HETATM   17  N   UNL     1     -40.687 -53.910  11.770  1.00  0.00    -0.303 N 
ATOM     18  HN  UNL     1     -40.933 -52.305  10.394  1.00  0.00     0.189 HD
HETATM   19  C   UNL     1     -41.130 -54.175  12.980  1.00  0.00     0.160 A 
ATOM     20  HN  UNL     1     -40.070 -54.524  11.238  1.00  0.00     0.186 HD
HETATM   21  S   UNL     1     -42.123 -52.949  13.662  1.00  0.00    -0.046 SA
ENDBRANCH   4  15
TORSDOF 2
ENDMDL
MODEL 7
REMARK VINA RESULT:      -5.6      3.826      6.202
REMARK  2 active torsions:
REMARK  status: ('A' for Active; 'I' for Inactive)
REMARK    1  A    between atoms: C_8  and  N_9 
REMARK       I    between atoms: N_9  and  C_10 
REMARK       I    between atoms: C_10  and  N_12 
REMARK    2  A    between atoms: N_12  and  C_13 
ROOT
HETATM    1  N   UNL     1     -39.506 -47.033  12.099  1.00  0.00    -0.337 N 
HETATM    2  C   UNL     1     -40.272 -48.183  12.013  1.00  0.00     0.322 C 
HETATM    3  O   UNL     1     -41.494 -48.154  12.063  1.00  0.00    -0.247 OA
HETATM    4  N   UNL     1     -39.486 -49.303  11.936  1.00  0.00    -0.288 N 
HETATM    5  H   UNL     1     -38.621 -47.044  11.614  1.00  0.00     0.164 HD
HETATM    6  H   UNL     1     -38.512 -49.240  12.178  1.00  0.00     0.172 HD
ENDROOT
BRANCH   1   7
HETATM    7  C   UNL     1     -40.158 -45.738  12.273  1.00  0.00     0.093 C 
HETATM    8  C   UNL     1     -40.539 -45.093  10.916  1.00  0.00     0.004 C 
HETATM    9  C   UNL     1     -39.340 -44.868   9.984  1.00  0.00     0.012 C 
HETATM   10  C   UNL     1     -41.294 -43.777  11.164  1.00  0.00     0.006 C 
HETATM   11  C   UNL     1     -40.520 -42.811  12.058  1.00  0.00     0.001 C 
HETATM   12  C   UNL     1     -40.090 -43.463  13.369  1.00  0.00     0.006 C 
HETATM   13  C   UNL     1     -39.326 -44.782  13.157  1.00  0.00     0.004 C 
HETATM   14  C   UNL     1     -38.998 -45.404  14.520  1.00  0.00     0.012 C 
ENDBRANCH   1   7
BRANCH   4  15
HETATM   15  C   UNL     1     -40.049 -50.550  11.901  1.00  0.00     0.168 A 
HETATM   16  N   UNL     1     -40.796 -51.120  10.985  1.00  0.00    -0.279 N 
HETATM   17  N   UNL     1     -41.201 -52.387  11.360  1.00  0.00    -0.303 N 
ATOM     18  HN  UNL     1     -41.047 -50.680  10.099  1.00  0.00     0.189 HD
HETATM   19  C   UNL     1     -40.735 -52.713  12.547  1.00  0.00     0.160 A 
ATOM     20  HN  UNL     1     -41.788 -52.995  10.789  1.00  0.00     0.186 HD
HETATM   21  S   UNL     1     -39.738 -51.518  13.275  1.00  0.00    -0.046 SA
ENDBRANCH   4  15
TORSDOF 2
ENDMDL
MODEL 8
REMARK VINA RESULT:      -5.5      4.571      6.681
REMARK  2 active torsions:
REMARK  status: ('A' for Active; 'I' for Inactive)
REMARK    1  A    between atoms: C_8  and  N_9 
REMARK       I    between atoms: N_9  and  C_10 
REMARK       I    between atoms: C_10  and  N_12 
REMARK    2  A    between atoms: N_12  and  C_13 
ROOT
HETATM    1  N   UNL     1     -43.385 -51.808  14.091  1.00  0.00    -0.337 N 
HETATM    2  C   UNL     1     -42.463 -50.950  13.515  1.00  0.00     0.322 C 
HETATM    3  O   UNL     1     -42.609 -49.736  13.530  1.00  0.00    -0.247 OA
HETATM    4  N   UNL     1     -41.452 -51.642  12.901  1.00  0.00    -0.288 N 
HETATM    5  H   UNL     1     -43.026 -52.680  14.451  1.00  0.00     0.164 HD
HETATM    6  H   UNL     1     -41.569 -52.622  12.710  1.00  0.00     0.172 HD
ENDROOT
BRANCH   1   7
HETATM    7  C   UNL     1     -44.584 -51.265  14.724  1.00  0.00     0.093 C 
HETATM    8  C   UNL     1     -44.442 -51.188  16.265  1.00  0.00     0.004 C 
HETATM    9  C   UNL     1     -44.163 -52.546  16.925  1.00  0.00     0.012 C 
HETATM   10  C   UNL     1     -45.696 -50.534  16.866  1.00  0.00     0.006 C 
HETATM   11  C   UNL     1     -46.987 -51.234  16.446  1.00  0.00     0.001 C 
HETATM   12  C   UNL     1     -47.100 -51.367  14.930  1.00  0.00     0.006 C 
HETATM   13  C   UNL     1     -45.860 -52.022  14.295  1.00  0.00     0.004 C 
HETATM   14  C   UNL     1     -46.025 -52.049  12.771  1.00  0.00     0.012 C 
ENDBRANCH   1   7
BRANCH   4  15
HETATM   15  C   UNL     1     -40.465 -50.980  12.221  1.00  0.00     0.168 A 
HETATM   16  N   UNL     1     -40.485 -50.401  11.044  1.00  0.00    -0.279 N 
HETATM   17  N   UNL     1     -39.252 -49.880  10.700  1.00  0.00    -0.303 N 
ATOM     18  HN  UNL     1     -41.314 -50.341  10.451  1.00  0.00     0.189 HD
HETATM   19  C   UNL     1     -38.358 -50.091  11.642  1.00  0.00     0.160 A 
ATOM     20  HN  UNL     1     -39.058 -49.392   9.826  1.00  0.00     0.186 HD
HETATM   21  S   UNL     1     -38.961 -50.904  13.031  1.00  0.00    -0.046 SA
ENDBRANCH   4  15
TORSDOF 2
ENDMDL
MODEL 9
REMARK VINA RESULT:      -5.4      2.463      2.541
REMARK  2 active torsions:
REMARK  status: ('A' for Active; 'I' for Inactive)
REMARK    1  A    between atoms: C_8  and  N_9 
REMARK       I    between atoms: N_9  and  C_10 
REMARK       I    between atoms: C_10  and  N_12 
REMARK    2  A    between atoms: N_12  and  C_13 
ROOT
HETATM    1  N   UNL     1     -39.771 -48.394  11.277  1.00  0.00    -0.337 N 
HETATM    2  C   UNL     1     -39.945 -47.065  11.620  1.00  0.00     0.322 C 
HETATM    3  O   UNL     1     -39.767 -46.660  12.761  1.00  0.00    -0.247 OA
HETATM    4  N   UNL     1     -40.389 -46.326  10.554  1.00  0.00    -0.288 N 
HETATM    5  H   UNL     1     -39.482 -48.581  10.329  1.00  0.00     0.164 HD
HETATM    6  H   UNL     1     -40.762 -46.799   9.749  1.00  0.00     0.172 HD
ENDROOT
BRANCH   1   7
HETATM    7  C   UNL     1     -39.381 -49.362  12.299  1.00  0.00     0.093 C 
HETATM    8  C   UNL     1     -37.846 -49.570  12.346  1.00  0.00     0.004 C 
HETATM    9  C   UNL     1     -37.252 -50.059  11.017  1.00  0.00     0.012 C 
HETATM   10  C   UNL     1     -37.491 -50.532  13.491  1.00  0.00     0.006 C 
HETATM   11  C   UNL     1     -38.244 -51.857  13.405  1.00  0.00     0.001 C 
HETATM   12  C   UNL     1     -39.753 -51.653  13.296  1.00  0.00     0.006 C 
HETATM   13  C   UNL     1     -40.145 -50.698  12.155  1.00  0.00     0.004 C 
HETATM   14  C   UNL     1     -41.664 -50.492  12.165  1.00  0.00     0.012 C 
ENDBRANCH   1   7
BRANCH   4  15
HETATM   15  C   UNL     1     -40.678 -44.997  10.697  1.00  0.00     0.168 A 
HETATM   16  N   UNL     1     -39.893 -43.946  10.648  1.00  0.00    -0.279 N 
HETATM   17  N   UNL     1     -40.581 -42.772  10.891  1.00  0.00    -0.303 N 
ATOM     18  HN  UNL     1     -38.892 -43.990  10.452  1.00  0.00     0.189 HD
HETATM   19  C   UNL     1     -41.859 -42.996  11.111  1.00  0.00     0.160 A 
ATOM     20  HN  UNL     1     -40.152 -41.847  10.899  1.00  0.00     0.186 HD
HETATM   21  S   UNL     1     -42.324 -44.647  10.998  1.00  0.00    -0.046 SA
ENDBRANCH   4  15
TORSDOF 2
ENDMDL
