MODEL 1
REMARK VINA RESULT:      -5.8      0.000      0.000
REMARK  6 active torsions:
REMARK  status: ('A' for Active; 'I' for Inactive)
REMARK    1  A    between atoms: C_2  and  C_3 
REMARK       I    between atoms: C_2  and  N_12 
REMARK    2  A    between atoms: C_3  and  N_4 
REMARK    3  A    between atoms: N_12  and  C_13 
REMARK    4  A    between atoms: C_13  and  C_14 
REMARK    5  A    between atoms: C_14  and  S_15 
REMARK    6  A    between atoms: S_15  and  C_16 
ROOT
HETATM    1  O   UNL     1     -42.437 -53.504  13.831  1.00  0.00    -0.272 OA
HETATM    2  C   UNL     1     -42.918 -53.139  12.761  1.00  0.00     0.235 C 
HETATM    3  N   UNL     1     -42.222 -52.405  11.822  1.00  0.00    -0.359 N 
HETATM    4  H   UNL     1     -42.694 -52.163  10.954  1.00  0.00     0.162 HD
ENDROOT
BRANCH   2   5
HETATM    5  C   UNL     1     -44.325 -53.548  12.325  1.00  0.00     0.235 C 
BRANCH   5   6
HETATM    6  N   UNL     1     -45.305 -53.129  13.325  1.00  0.00    -0.301 N 
HETATM    7  C   UNL     1     -45.629 -51.795  13.451  1.00  0.00     0.102 A 
HETATM    8  C   UNL     1     -46.479 -51.363  14.383  1.00  0.00     0.092 A 
HETATM    9  C   UNL     1     -47.076 -52.342  15.308  1.00  0.00     0.250 A 
HETATM   10  O   UNL     1     -47.817 -51.985  16.216  1.00  0.00    -0.268 OA
HETATM   11  N   UNL     1     -46.743 -53.646  15.088  1.00  0.00    -0.275 N 
HETATM   12  C   UNL     1     -45.833 -54.098  14.169  1.00  0.00     0.329 A 
HETATM   13  H   UNL     1     -47.126 -54.327  15.725  1.00  0.00     0.173 HD
HETATM   14  O   UNL     1     -45.512 -55.285  14.125  1.00  0.00    -0.246 OA
ENDBRANCH   5   6
ENDBRANCH   2   5
BRANCH   3  15
HETATM   15  C   UNL     1     -40.884 -51.890  12.072  1.00  0.00     0.132 C 
BRANCH  15  16
HETATM   16  C   UNL     1     -40.715 -50.468  11.529  1.00  0.00     0.094 C 
BRANCH  16  17
HETATM   17  S   UNL     1     -42.069 -49.394  12.120  1.00  0.00    -0.163 SA
BRANCH  17  18
HETATM   18  C   UNL     1     -42.224 -48.181  10.764  1.00  0.00     0.047 C 
HETATM   19  C   UNL     1     -41.257 -46.995  10.821  1.00  0.00     0.015 C 
HETATM   20  C   UNL     1     -42.017 -45.809  10.218  1.00  0.00     0.001 C 
HETATM   21  C   UNL     1     -43.329 -46.370   9.689  1.00  0.00     0.001 C 
HETATM   22  C   UNL     1     -43.608 -47.565  10.589  1.00  0.00     0.015 C 
ENDBRANCH  17  18
ENDBRANCH  16  17
ENDBRANCH  15  16
ENDBRANCH   3  15
TORSDOF 6
ENDMDL
MODEL 2
REMARK VINA RESULT:      -5.7      3.871      7.053
REMARK  6 active torsions:
REMARK  status: ('A' for Active; 'I' for Inactive)
REMARK    1  A    between atoms: C_2  and  C_3 
REMARK       I    between atoms: C_2  and  N_12 
REMARK    2  A    between atoms: C_3  and  N_4 
REMARK    3  A    between atoms: N_12  and  C_13 
REMARK    4  A    between atoms: C_13  and  C_14 
REMARK    5  A    between atoms: C_14  and  S_15 
REMARK    6  A    between atoms: S_15  and  C_16 
ROOT
HETATM    1  O   UNL     1     -42.838 -49.494  12.418  1.00  0.00    -0.272 OA
HETATM    2  C   UNL     1     -41.775 -49.673  11.828  1.00  0.00     0.235 C 
HETATM    3  N   UNL     1     -41.253 -50.922  11.561  1.00  0.00    -0.359 N 
HETATM    4  H   UNL     1     -40.375 -50.977  11.049  1.00  0.00     0.162 HD
ENDROOT
BRANCH   2   5
HETATM    5  C   UNL     1     -40.966 -48.514  11.247  1.00  0.00     0.235 C 
BRANCH   5   6
HETATM    6  N   UNL     1     -41.862 -47.505  10.687  1.00  0.00    -0.301 N 
HETATM    7  C   UNL     1     -42.533 -47.760   9.510  1.00  0.00     0.102 A 
HETATM    8  C   UNL     1     -43.321 -46.850   8.937  1.00  0.00     0.092 A 
HETATM    9  C   UNL     1     -43.465 -45.532   9.580  1.00  0.00     0.250 A 
HETATM   10  O   UNL     1     -44.132 -44.645   9.061  1.00  0.00    -0.268 OA
HETATM   11  N   UNL     1     -42.809 -45.374  10.764  1.00  0.00    -0.275 N 
HETATM   12  C   UNL     1     -41.956 -46.281  11.337  1.00  0.00     0.329 A 
HETATM   13  H   UNL     1     -42.880 -44.471  11.207  1.00  0.00     0.173 HD
HETATM   14  O   UNL     1     -41.319 -46.000  12.351  1.00  0.00    -0.246 OA
ENDBRANCH   5   6
ENDBRANCH   2   5
BRANCH   3  15
HETATM   15  C   UNL     1     -41.860 -52.145  12.066  1.00  0.00     0.132 C 
BRANCH  15  16
HETATM   16  C   UNL     1     -41.613 -52.319  13.568  1.00  0.00     0.094 C 
BRANCH  16  17
HETATM   17  S   UNL     1     -43.059 -53.098  14.367  1.00  0.00    -0.163 SA
BRANCH  17  18
HETATM   18  C   UNL     1     -44.437 -52.051  13.784  1.00  0.00     0.047 C 
HETATM   19  C   UNL     1     -45.326 -51.454  14.878  1.00  0.00     0.015 C 
HETATM   20  C   UNL     1     -46.732 -51.373  14.275  1.00  0.00     0.001 C 
HETATM   21  C   UNL     1     -46.590 -51.773  12.813  1.00  0.00     0.001 C 
HETATM   22  C   UNL     1     -45.397 -52.718  12.803  1.00  0.00     0.015 C 
ENDBRANCH  17  18
ENDBRANCH  16  17
ENDBRANCH  15  16
ENDBRANCH   3  15
TORSDOF 6
ENDMDL
MODEL 3
REMARK VINA RESULT:      -5.5      2.255      3.221
REMARK  6 active torsions:
REMARK  status: ('A' for Active; 'I' for Inactive)
REMARK    1  A    between atoms: C_2  and  C_3 
REMARK       I    between atoms: C_2  and  N_12 
REMARK    2  A    between atoms: C_3  and  N_4 
REMARK    3  A    between atoms: N_12  and  C_13 
REMARK    4  A    between atoms: C_13  and  C_14 
REMARK    5  A    between atoms: C_14  and  S_15 
REMARK    6  A    between atoms: S_15  and  C_16 
ROOT
HETATM    1  O   UNL     1     -42.283 -53.518  13.952  1.00  0.00    -0.272 OA
HETATM    2  C   UNL     1     -42.992 -53.385  12.958  1.00  0.00     0.235 C 
HETATM    3  N   UNL     1     -42.599 -52.696  11.828  1.00  0.00    -0.359 N 
HETATM    4  H   UNL     1     -43.244 -52.653  11.043  1.00  0.00     0.162 HD
ENDROOT
BRANCH   2   5
HETATM    5  C   UNL     1     -44.360 -54.058  12.842  1.00  0.00     0.235 C 
BRANCH   5   6
HETATM    6  N   UNL     1     -45.319 -53.404  13.729  1.00  0.00    -0.301 N 
HETATM    7  C   UNL     1     -45.937 -52.238  13.331  1.00  0.00     0.102 A 
HETATM    8  C   UNL     1     -46.780 -51.581  14.128  1.00  0.00     0.092 A 
HETATM    9  C   UNL     1     -47.047 -52.117  15.475  1.00  0.00     0.250 A 
HETATM   10  O   UNL     1     -47.769 -51.519  16.263  1.00  0.00    -0.268 OA
HETATM   11  N   UNL     1     -46.436 -53.299  15.776  1.00  0.00    -0.275 N 
HETATM   12  C   UNL     1     -45.528 -53.956  14.987  1.00  0.00     0.329 A 
HETATM   13  H   UNL     1     -46.590 -53.669  16.700  1.00  0.00     0.173 HD
HETATM   14  O   UNL     1     -44.941 -54.957  15.395  1.00  0.00    -0.246 OA
ENDBRANCH   5   6
ENDBRANCH   2   5
BRANCH   3  15
HETATM   15  C   UNL     1     -41.348 -51.956  11.763  1.00  0.00     0.132 C 
BRANCH  15  16
HETATM   16  C   UNL     1     -41.512 -50.523  12.278  1.00  0.00     0.094 C 
BRANCH  16  17
HETATM   17  S   UNL     1     -40.480 -49.372  11.305  1.00  0.00    -0.163 SA
BRANCH  17  18
HETATM   18  C   UNL     1     -38.895 -49.410  12.211  1.00  0.00     0.047 C 
HETATM   19  C   UNL     1     -37.865 -50.423  11.705  1.00  0.00     0.015 C 
HETATM   20  C   UNL     1     -37.086 -50.880  12.942  1.00  0.00     0.001 C 
HETATM   21  C   UNL     1     -37.573 -50.012  14.094  1.00  0.00     0.001 C 
HETATM   22  C   UNL     1     -39.003 -49.661  13.712  1.00  0.00     0.015 C 
ENDBRANCH  17  18
ENDBRANCH  16  17
ENDBRANCH  15  16
ENDBRANCH   3  15
TORSDOF 6
ENDMDL
MODEL 4
REMARK VINA RESULT:      -5.5      2.401      4.160
REMARK  6 active torsions:
REMARK  status: ('A' for Active; 'I' for Inactive)
REMARK    1  A    between atoms: C_2  and  C_3 
REMARK       I    between atoms: C_2  and  N_12 
REMARK    2  A    between atoms: C_3  and  N_4 
REMARK    3  A    between atoms: N_12  and  C_13 
REMARK    4  A    between atoms: C_13  and  C_14 
REMARK    5  A    between atoms: C_14  and  S_15 
REMARK    6  A    between atoms: S_15  and  C_16 
ROOT
HETATM    1  O   UNL     1     -41.700 -50.691  13.854  1.00  0.00    -0.272 OA
HETATM    2  C   UNL     1     -41.688 -51.149  12.714  1.00  0.00     0.235 C 
HETATM    3  N   UNL     1     -41.758 -50.369  11.578  1.00  0.00    -0.359 N 
HETATM    4  H   UNL     1     -41.722 -50.833  10.673  1.00  0.00     0.162 HD
ENDROOT
BRANCH   2   5
HETATM    5  C   UNL     1     -41.499 -52.642  12.444  1.00  0.00     0.235 C 
BRANCH   5   6
HETATM    6  N   UNL     1     -42.650 -53.393  12.939  1.00  0.00    -0.301 N 
HETATM    7  C   UNL     1     -43.896 -53.183  12.386  1.00  0.00     0.102 A 
HETATM    8  C   UNL     1     -44.982 -53.809  12.841  1.00  0.00     0.092 A 
HETATM    9  C   UNL     1     -44.842 -54.742  13.973  1.00  0.00     0.250 A 
HETATM   10  O   UNL     1     -45.819 -55.296  14.461  1.00  0.00    -0.268 OA
HETATM   11  N   UNL     1     -43.572 -54.932  14.432  1.00  0.00    -0.275 N 
HETATM   12  C   UNL     1     -42.456 -54.258  14.009  1.00  0.00     0.329 A 
HETATM   13  H   UNL     1     -43.461 -55.551  15.219  1.00  0.00     0.173 HD
HETATM   14  O   UNL     1     -41.371 -54.415  14.566  1.00  0.00    -0.246 OA
ENDBRANCH   5   6
ENDBRANCH   2   5
BRANCH   3  15
HETATM   15  C   UNL     1     -41.978 -48.931  11.633  1.00  0.00     0.132 C 
BRANCH  15  16
HETATM   16  C   UNL     1     -40.698 -48.153  11.314  1.00  0.00     0.094 C 
BRANCH  16  17
HETATM   17  S   UNL     1     -39.904 -47.570  12.852  1.00  0.00    -0.163 SA
BRANCH  17  18
HETATM   18  C   UNL     1     -38.443 -48.658  12.972  1.00  0.00     0.047 C 
HETATM   19  C   UNL     1     -38.115 -49.470  11.716  1.00  0.00     0.015 C 
HETATM   20  C   UNL     1     -37.512 -50.786  12.216  1.00  0.00     0.001 C 
HETATM   21  C   UNL     1     -37.362 -50.639  13.724  1.00  0.00     0.001 C 
HETATM   22  C   UNL     1     -38.472 -49.672  14.112  1.00  0.00     0.015 C 
ENDBRANCH  17  18
ENDBRANCH  16  17
ENDBRANCH  15  16
ENDBRANCH   3  15
TORSDOF 6
ENDMDL
MODEL 5
REMARK VINA RESULT:      -5.5      3.767      7.401
REMARK  6 active torsions:
REMARK  status: ('A' for Active; 'I' for Inactive)
REMARK    1  A    between atoms: C_2  and  C_3 
REMARK       I    between atoms: C_2  and  N_12 
REMARK    2  A    between atoms: C_3  and  N_4 
REMARK    3  A    between atoms: N_12  and  C_13 
REMARK    4  A    between atoms: C_13  and  C_14 
REMARK    5  A    between atoms: C_14  and  S_15 
REMARK    6  A    between atoms: S_15  and  C_16 
ROOT
HETATM    1  O   UNL     1     -41.151 -49.514  13.575  1.00  0.00    -0.272 OA
HETATM    2  C   UNL     1     -41.994 -49.563  12.683  1.00  0.00     0.235 C 
HETATM    3  N   UNL     1     -42.267 -50.702  11.953  1.00  0.00    -0.359 N 
HETATM    4  H   UNL     1     -42.997 -50.656  11.245  1.00  0.00     0.162 HD
ENDROOT
BRANCH   2   5
HETATM    5  C   UNL     1     -42.896 -48.372  12.355  1.00  0.00     0.235 C 
BRANCH   5   6
HETATM    6  N   UNL     1     -42.107 -47.286  11.778  1.00  0.00    -0.301 N 
HETATM    7  C   UNL     1     -41.535 -46.340  12.601  1.00  0.00     0.102 A 
HETATM    8  C   UNL     1     -40.850 -45.305  12.115  1.00  0.00     0.092 A 
HETATM    9  C   UNL     1     -40.713 -45.169  10.654  1.00  0.00     0.250 A 
HETATM   10  O   UNL     1     -40.142 -44.204  10.159  1.00  0.00    -0.268 OA
HETATM   11  N   UNL     1     -41.265 -46.169   9.910  1.00  0.00    -0.275 N 
HETATM   12  C   UNL     1     -42.014 -47.210  10.394  1.00  0.00     0.329 A 
HETATM   13  H   UNL     1     -41.198 -46.081   8.908  1.00  0.00     0.173 HD
HETATM   14  O   UNL     1     -42.569 -47.999   9.631  1.00  0.00    -0.246 OA
ENDBRANCH   5   6
ENDBRANCH   2   5
BRANCH   3  15
HETATM   15  C   UNL     1     -41.489 -51.923  12.096  1.00  0.00     0.132 C 
BRANCH  15  16
HETATM   16  C   UNL     1     -42.174 -52.922  13.034  1.00  0.00     0.094 C 
BRANCH  16  17
HETATM   17  S   UNL     1     -43.892 -53.229  12.496  1.00  0.00    -0.163 SA
BRANCH  17  18
HETATM   18  C   UNL     1     -44.862 -52.423  13.816  1.00  0.00     0.047 C 
HETATM   19  C   UNL     1     -45.474 -53.362  14.859  1.00  0.00     0.015 C 
HETATM   20  C   UNL     1     -46.790 -52.708  15.289  1.00  0.00     0.001 C 
HETATM   21  C   UNL     1     -46.829 -51.346  14.610  1.00  0.00     0.001 C 
HETATM   22  C   UNL     1     -46.015 -51.545  13.339  1.00  0.00     0.015 C 
ENDBRANCH  17  18
ENDBRANCH  16  17
ENDBRANCH  15  16
ENDBRANCH   3  15
TORSDOF 6
ENDMDL
MODEL 6
REMARK VINA RESULT:      -5.4      4.311      7.163
REMARK  6 active torsions:
REMARK  status: ('A' for Active; 'I' for Inactive)
REMARK    1  A    between atoms: C_2  and  C_3 
REMARK       I    between atoms: C_2  and  N_12 
REMARK    2  A    between atoms: C_3  and  N_4 
REMARK    3  A    between atoms: N_12  and  C_13 
REMARK    4  A    between atoms: C_13  and  C_14 
REMARK    5  A    between atoms: C_14  and  S_15 
REMARK    6  A    between atoms: S_15  and  C_16 
ROOT
HETATM    1  O   UNL     1     -39.854 -48.717  11.717  1.00  0.00    -0.272 OA
HETATM    2  C   UNL     1     -40.982 -48.880  11.257  1.00  0.00     0.235 C 
HETATM    3  N   UNL     1     -41.703 -50.047  11.404  1.00  0.00    -0.359 N 
HETATM    4  H   UNL     1     -42.639 -50.087  11.007  1.00  0.00     0.162 HD
ENDROOT
BRANCH   2   5
HETATM    5  C   UNL     1     -41.738 -47.756  10.549  1.00  0.00     0.235 C 
BRANCH   5   6
HETATM    6  N   UNL     1     -42.055 -46.688  11.495  1.00  0.00    -0.301 N 
HETATM    7  C   UNL     1     -42.751 -46.978  12.649  1.00  0.00     0.102 A 
HETATM    8  C   UNL     1     -43.105 -46.028  13.515  1.00  0.00     0.092 A 
HETATM    9  C   UNL     1     -42.748 -44.629  13.219  1.00  0.00     0.250 A 
HETATM   10  O   UNL     1     -43.101 -43.716  13.955  1.00  0.00    -0.268 OA
HETATM   11  N   UNL     1     -42.018 -44.430  12.084  1.00  0.00    -0.275 N 
HETATM   12  C   UNL     1     -41.693 -45.389  11.161  1.00  0.00     0.329 A 
HETATM   13  H   UNL     1     -41.783 -43.477  11.855  1.00  0.00     0.173 HD
HETATM   14  O   UNL     1     -41.131 -45.091  10.108  1.00  0.00    -0.246 OA
ENDBRANCH   5   6
ENDBRANCH   2   5
BRANCH   3  15
HETATM   15  C   UNL     1     -41.138 -51.241  12.015  1.00  0.00     0.132 C 
BRANCH  15  16
HETATM   16  C   UNL     1     -42.200 -52.324  12.227  1.00  0.00     0.094 C 
BRANCH  16  17
HETATM   17  S   UNL     1     -42.614 -52.473  14.000  1.00  0.00    -0.163 SA
BRANCH  17  18
HETATM   18  C   UNL     1     -44.440 -52.506  13.971  1.00  0.00     0.047 C 
HETATM   19  C   UNL     1     -45.075 -52.923  12.643  1.00  0.00     0.015 C 
HETATM   20  C   UNL     1     -46.388 -52.140  12.544  1.00  0.00     0.001 C 
HETATM   21  C   UNL     1     -46.553 -51.419  13.874  1.00  0.00     0.001 C 
HETATM   22  C   UNL     1     -45.125 -51.197  14.353  1.00  0.00     0.015 C 
ENDBRANCH  17  18
ENDBRANCH  16  17
ENDBRANCH  15  16
ENDBRANCH   3  15
TORSDOF 6
ENDMDL
MODEL 7
REMARK VINA RESULT:      -5.4      3.913      7.199
REMARK  6 active torsions:
REMARK  status: ('A' for Active; 'I' for Inactive)
REMARK    1  A    between atoms: C_2  and  C_3 
REMARK       I    between atoms: C_2  and  N_12 
REMARK    2  A    between atoms: C_3  and  N_4 
REMARK    3  A    between atoms: N_12  and  C_13 
REMARK    4  A    between atoms: C_13  and  C_14 
REMARK    5  A    between atoms: C_14  and  S_15 
REMARK    6  A    between atoms: S_15  and  C_16 
ROOT
HETATM    1  O   UNL     1     -42.002 -49.918  12.449  1.00  0.00    -0.272 OA
HETATM    2  C   UNL     1     -41.045 -50.456  11.897  1.00  0.00     0.235 C 
HETATM    3  N   UNL     1     -41.016 -51.793  11.555  1.00  0.00    -0.359 N 
HETATM    4  H   UNL     1     -40.189 -52.150  11.082  1.00  0.00     0.162 HD
ENDROOT
BRANCH   2   5
HETATM    5  C   UNL     1     -39.817 -49.663  11.450  1.00  0.00     0.235 C 
BRANCH   5   6
HETATM    6  N   UNL     1     -38.993 -49.317  12.605  1.00  0.00    -0.301 N 
HETATM    7  C   UNL     1     -39.039 -48.040  13.123  1.00  0.00     0.102 A 
HETATM    8  C   UNL     1     -38.267 -47.666  14.144  1.00  0.00     0.092 A 
HETATM    9  C   UNL     1     -37.333 -48.648  14.724  1.00  0.00     0.250 A 
HETATM   10  O   UNL     1     -36.564 -48.334  15.624  1.00  0.00    -0.268 OA
HETATM   11  N   UNL     1     -37.381 -49.901  14.189  1.00  0.00    -0.275 N 
HETATM   12  C   UNL     1     -38.131 -50.284  13.107  1.00  0.00     0.329 A 
HETATM   13  H   UNL     1     -36.734 -50.579  14.559  1.00  0.00     0.173 HD
HETATM   14  O   UNL     1     -38.018 -51.410  12.624  1.00  0.00    -0.246 OA
ENDBRANCH   5   6
ENDBRANCH   2   5
BRANCH   3  15
HETATM   15  C   UNL     1     -42.076 -52.716  11.931  1.00  0.00     0.132 C 
BRANCH  15  16
HETATM   16  C   UNL     1     -41.841 -53.309  13.324  1.00  0.00     0.094 C 
BRANCH  16  17
HETATM   17  S   UNL     1     -43.422 -53.837  14.069  1.00  0.00    -0.163 SA
BRANCH  17  18
HETATM   18  C   UNL     1     -44.540 -52.464  13.622  1.00  0.00     0.047 C 
HETATM   19  C   UNL     1     -45.276 -51.801  14.789  1.00  0.00     0.015 C 
HETATM   20  C   UNL     1     -46.632 -51.358  14.231  1.00  0.00     0.001 C 
HETATM   21  C   UNL     1     -46.583 -51.631  12.733  1.00  0.00     0.001 C 
HETATM   22  C   UNL     1     -45.624 -52.806  12.604  1.00  0.00     0.015 C 
ENDBRANCH  17  18
ENDBRANCH  16  17
ENDBRANCH  15  16
ENDBRANCH   3  15
TORSDOF 6
ENDMDL
MODEL 8
REMARK VINA RESULT:      -5.3      3.046      3.892
REMARK  6 active torsions:
REMARK  status: ('A' for Active; 'I' for Inactive)
REMARK    1  A    between atoms: C_2  and  C_3 
REMARK       I    between atoms: C_2  and  N_12 
REMARK    2  A    between atoms: C_3  and  N_4 
REMARK    3  A    between atoms: N_12  and  C_13 
REMARK    4  A    between atoms: C_13  and  C_14 
REMARK    5  A    between atoms: C_14  and  S_15 
REMARK    6  A    between atoms: S_15  and  C_16 
ROOT
HETATM    1  O   UNL     1     -42.880 -52.957  16.415  1.00  0.00    -0.272 OA
HETATM    2  C   UNL     1     -43.134 -53.759  15.520  1.00  0.00     0.235 C 
HETATM    3  N   UNL     1     -42.168 -54.368  14.745  1.00  0.00    -0.359 N 
HETATM    4  H   UNL     1     -42.470 -55.036  14.038  1.00  0.00     0.162 HD
ENDROOT
BRANCH   2   5
HETATM    5  C   UNL     1     -44.560 -54.233  15.238  1.00  0.00     0.235 C 
BRANCH   5   6
HETATM    6  N   UNL     1     -45.213 -53.331  14.292  1.00  0.00    -0.301 N 
HETATM    7  C   UNL     1     -46.051 -52.340  14.755  1.00  0.00     0.102 A 
HETATM    8  C   UNL     1     -46.707 -51.528  13.925  1.00  0.00     0.092 A 
HETATM    9  C   UNL     1     -46.533 -51.707  12.472  1.00  0.00     0.250 A 
HETATM   10  O   UNL     1     -47.158 -51.023  11.671  1.00  0.00    -0.268 OA
HETATM   11  N   UNL     1     -45.651 -52.676  12.095  1.00  0.00    -0.275 N 
HETATM   12  C   UNL     1     -45.012 -53.551  12.935  1.00  0.00     0.329 A 
HETATM   13  H   UNL     1     -45.537 -52.826  11.105  1.00  0.00     0.173 HD
HETATM   14  O   UNL     1     -44.324 -54.468  12.490  1.00  0.00    -0.246 OA
ENDBRANCH   5   6
ENDBRANCH   2   5
BRANCH   3  15
HETATM   15  C   UNL     1     -40.759 -54.019  14.839  1.00  0.00     0.132 C 
BRANCH  15  16
HETATM   16  C   UNL     1     -40.126 -53.845  13.455  1.00  0.00     0.094 C 
BRANCH  16  17
HETATM   17  S   UNL     1     -40.930 -52.476  12.553  1.00  0.00    -0.163 SA
BRANCH  17  18
HETATM   18  C   UNL     1     -39.806 -51.077  12.888  1.00  0.00     0.047 C 
HETATM   19  C   UNL     1     -39.525 -50.151  11.701  1.00  0.00     0.015 C 
HETATM   20  C   UNL     1     -38.088 -49.655  11.891  1.00  0.00     0.001 C 
HETATM   21  C   UNL     1     -37.635 -50.174  13.249  1.00  0.00     0.001 C 
HETATM   22  C   UNL     1     -38.434 -51.455  13.439  1.00  0.00     0.015 C 
ENDBRANCH  17  18
ENDBRANCH  16  17
ENDBRANCH  15  16
ENDBRANCH   3  15
TORSDOF 6
ENDMDL
MODEL 9
REMARK VINA RESULT:      -5.2      2.790      4.355
REMARK  6 active torsions:
REMARK  status: ('A' for Active; 'I' for Inactive)
REMARK    1  A    between atoms: C_2  and  C_3 
REMARK       I    between atoms: C_2  and  N_12 
REMARK    2  A    between atoms: C_3  and  N_4 
REMARK    3  A    between atoms: N_12  and  C_13 
REMARK    4  A    between atoms: C_13  and  C_14 
REMARK    5  A    between atoms: C_14  and  S_15 
REMARK    6  A    between atoms: S_15  and  C_16 
ROOT
HETATM    1  O   UNL     1     -42.973 -48.043  13.187  1.00  0.00    -0.272 OA
HETATM    2  C   UNL     1     -42.465 -48.955  12.539  1.00  0.00     0.235 C 
HETATM    3  N   UNL     1     -42.291 -48.913  11.171  1.00  0.00    -0.359 N 
HETATM    4  H   UNL     1     -41.842 -49.706  10.718  1.00  0.00     0.162 HD
ENDROOT
BRANCH   2   5
HETATM    5  C   UNL     1     -41.886 -50.201  13.210  1.00  0.00     0.235 C 
BRANCH   5   6
HETATM    6  N   UNL     1     -42.781 -51.339  13.017  1.00  0.00    -0.301 N 
HETATM    7  C   UNL     1     -44.006 -51.364  13.649  1.00  0.00     0.102 A 
HETATM    8  C   UNL     1     -44.833 -52.404  13.542  1.00  0.00     0.092 A 
HETATM    9  C   UNL     1     -44.414 -53.562  12.731  1.00  0.00     0.250 A 
HETATM   10  O   UNL     1     -45.115 -54.564  12.650  1.00  0.00    -0.268 OA
HETATM   11  N   UNL     1     -43.212 -53.441  12.100  1.00  0.00    -0.275 N 
HETATM   12  C   UNL     1     -42.331 -52.401  12.243  1.00  0.00     0.329 A 
HETATM   13  H   UNL     1     -42.901 -54.232  11.558  1.00  0.00     0.173 HD
HETATM   14  O   UNL     1     -41.217 -52.438  11.722  1.00  0.00    -0.246 OA
ENDBRANCH   5   6
ENDBRANCH   2   5
BRANCH   3  15
HETATM   15  C   UNL     1     -42.810 -47.827  10.353  1.00  0.00     0.132 C 
BRANCH  15  16
HETATM   16  C   UNL     1     -41.782 -46.702  10.191  1.00  0.00     0.094 C 
BRANCH  16  17
HETATM   17  S   UNL     1     -42.429 -45.142  10.887  1.00  0.00    -0.163 SA
BRANCH  17  18
HETATM   18  C   UNL     1     -41.187 -44.741  12.164  1.00  0.00     0.047 C 
HETATM   19  C   UNL     1     -41.165 -43.285  12.635  1.00  0.00     0.015 C 
HETATM   20  C   UNL     1     -39.704 -42.978  12.976  1.00  0.00     0.001 C 
HETATM   21  C   UNL     1     -38.952 -44.295  12.845  1.00  0.00     0.001 C 
HETATM   22  C   UNL     1     -39.742 -45.068  11.798  1.00  0.00     0.015 C 
ENDBRANCH  17  18
ENDBRANCH  16  17
ENDBRANCH  15  16
ENDBRANCH   3  15
TORSDOF 6
ENDMDL
