MODEL 1
REMARK VINA RESULT:      -6.8      0.000      0.000
REMARK  6 active torsions:
REMARK  status: ('A' for Active; 'I' for Inactive)
REMARK    1  A    between atoms: C_2  and  N_7 
REMARK    2  A    between atoms: N_3  and  C_17 
REMARK    3  A    between atoms: C_9  and  C_16 
REMARK    4  A    between atoms: C_17  and  C_19 
REMARK    5  A    between atoms: C_19  and  C_26 
REMARK    6  A    between atoms: C_26  and  O_27 
ROOT
HETATM    1  C   UNL     1     -42.212 -49.383  12.805  1.00  0.00     0.122 A 
HETATM    2  C   UNL     1     -43.041 -50.105  13.713  1.00  0.00     0.135 A 
HETATM    3  N   UNL     1     -40.688 -47.887  12.249  1.00  0.00    -0.326 N 
HETATM    4  C   UNL     1     -41.353 -48.425  13.325  1.00  0.00     0.140 A 
HETATM    5  N   UNL     1     -42.057 -49.435  11.427  1.00  0.00    -0.346 N 
ATOM      6  HN  UNL     1     -42.555 -50.040  10.774  1.00  0.00     0.167 HD
HETATM    7  C   UNL     1     -41.136 -48.543  11.135  1.00  0.00     0.185 A 
HETATM    8  N   UNL     1     -42.920 -49.735  15.032  1.00  0.00    -0.337 N 
ATOM      9  HN  UNL     1     -43.498 -50.191  15.738  1.00  0.00     0.168 HD
HETATM   10  N   UNL     1     -41.212 -48.067  14.614  1.00  0.00    -0.336 N 
ATOM     11  HN  UNL     1     -40.562 -47.357  14.952  1.00  0.00     0.168 HD
HETATM   12  C   UNL     1     -42.049 -48.778  15.401  1.00  0.00     0.183 A 
ENDROOT
BRANCH   2  13
HETATM   13  N   UNL     1     -43.959 -51.132  13.390  1.00  0.00    -0.361 N 
HETATM   14  C   UNL     1     -43.393 -52.410  12.922  1.00  0.00     0.082 C 
HETATM   15  C   UNL     1     -44.509 -53.309  12.360  1.00  0.00     0.038 C 
HETATM   16  C   UNL     1     -42.569 -53.104  14.010  1.00  0.00     0.032 C 
HETATM   17  C   UNL     1     -45.762 -53.444  13.229  1.00  0.00     0.097 C 
HETATM   18  C   UNL     1     -46.247 -52.053  13.647  1.00  0.00     0.033 C 
HETATM   19  C   UNL     1     -45.139 -51.196  14.269  1.00  0.00     0.125 C 
BRANCH  17  20
HETATM   20  C   UNL     1     -45.618 -54.399  14.411  1.00  0.00     0.391 C 
HETATM   21  F   UNL     1     -44.758 -55.407  14.159  1.00  0.00    -0.171 F 
HETATM   22  F   UNL     1     -45.211 -53.784  15.539  1.00  0.00    -0.171 F 
HETATM   23  F   UNL     1     -46.817 -54.970  14.686  1.00  0.00    -0.171 F 
ENDBRANCH  17  20
ENDBRANCH   2  13
BRANCH   3  24
HETATM   24  C   UNL     1     -39.683 -46.818  12.278  1.00  0.00     0.143 C 
BRANCH  24  25
HETATM   25  C   UNL     1     -40.192 -45.414  11.802  1.00  0.00     0.001 C 
HETATM   26  C   UNL     1     -39.526 -44.290  12.636  1.00  0.00     0.039 C 
HETATM   27  C   UNL     1     -40.126 -44.204  14.039  1.00  0.00     0.168 C 
HETATM   28  O   UNL     1     -41.503 -43.869  13.942  1.00  0.00    -0.391 OA
HETATM   29  C   UNL     1     -42.266 -44.901  13.328  1.00  0.00     0.168 C 
HETATM   30  C   UNL     1     -41.741 -45.253  11.942  1.00  0.00     0.039 C 
BRANCH  25  31
HETATM   31  C   UNL     1     -39.891 -45.246  10.291  1.00  0.00     0.175 C 
BRANCH  31  32
HETATM   32  O   UNL     1     -41.084 -45.429   9.530  1.00  0.00    -0.400 OA
HETATM   33  H   UNL     1     -41.441 -44.539   9.322  1.00  0.00     0.209 HD
ENDBRANCH  31  32
ENDBRANCH  25  31
ENDBRANCH  24  25
ENDBRANCH   3  24
TORSDOF 6
ENDMDL
MODEL 2
REMARK VINA RESULT:      -6.6      5.025      8.337
REMARK  6 active torsions:
REMARK  status: ('A' for Active; 'I' for Inactive)
REMARK    1  A    between atoms: C_2  and  N_7 
REMARK    2  A    between atoms: N_3  and  C_17 
REMARK    3  A    between atoms: C_9  and  C_16 
REMARK    4  A    between atoms: C_17  and  C_19 
REMARK    5  A    between atoms: C_19  and  C_26 
REMARK    6  A    between atoms: C_26  and  O_27 
ROOT
HETATM    1  C   UNL     1     -41.837 -49.257  12.240  1.00  0.00     0.122 A 
HETATM    2  C   UNL     1     -40.872 -48.276  11.869  1.00  0.00     0.135 A 
HETATM    3  N   UNL     1     -42.583 -51.312  12.538  1.00  0.00    -0.326 N 
HETATM    4  C   UNL     1     -41.484 -50.595  12.130  1.00  0.00     0.140 A 
HETATM    5  N   UNL     1     -43.133 -49.166  12.728  1.00  0.00    -0.346 N 
ATOM      6  HN  UNL     1     -43.663 -48.314  12.911  1.00  0.00     0.167 HD
HETATM    7  C   UNL     1     -43.538 -50.404  12.906  1.00  0.00     0.185 A 
HETATM    8  N   UNL     1     -39.682 -48.778  11.396  1.00  0.00    -0.337 N 
ATOM      9  HN  UNL     1     -38.951 -48.137  11.089  1.00  0.00     0.168 HD
HETATM   10  N   UNL     1     -40.318 -51.099  11.686  1.00  0.00    -0.336 N 
ATOM     11  HN  UNL     1     -40.101 -52.094  11.625  1.00  0.00     0.168 HD
HETATM   12  C   UNL     1     -39.473 -50.106  11.332  1.00  0.00     0.183 A 
ENDROOT
BRANCH   2  13
HETATM   13  N   UNL     1     -41.024 -46.870  11.932  1.00  0.00    -0.361 N 
HETATM   14  C   UNL     1     -41.456 -46.303  13.223  1.00  0.00     0.082 C 
HETATM   15  C   UNL     1     -41.835 -44.821  13.049  1.00  0.00     0.038 C 
HETATM   16  C   UNL     1     -40.414 -46.520  14.323  1.00  0.00     0.032 C 
HETATM   17  C   UNL     1     -40.832 -43.961  12.275  1.00  0.00     0.097 C 
HETATM   18  C   UNL     1     -40.465 -44.657  10.962  1.00  0.00     0.033 C 
HETATM   19  C   UNL     1     -40.024 -46.111  11.162  1.00  0.00     0.125 C 
BRANCH  17  20
HETATM   20  C   UNL     1     -39.608 -43.531  13.079  1.00  0.00     0.391 C 
HETATM   21  F   UNL     1     -39.833 -43.539  14.409  1.00  0.00    -0.171 F 
HETATM   22  F   UNL     1     -38.525 -44.299  12.840  1.00  0.00    -0.171 F 
HETATM   23  F   UNL     1     -39.266 -42.261  12.750  1.00  0.00    -0.171 F 
ENDBRANCH  17  20
ENDBRANCH   2  13
BRANCH   3  24
HETATM   24  C   UNL     1     -42.715 -52.773  12.585  1.00  0.00     0.143 C 
BRANCH  24  25
HETATM   25  C   UNL     1     -42.047 -53.461  13.824  1.00  0.00     0.001 C 
HETATM   26  C   UNL     1     -42.944 -54.611  14.349  1.00  0.00     0.039 C 
HETATM   27  C   UNL     1     -44.157 -54.073  15.107  1.00  0.00     0.168 C 
HETATM   28  O   UNL     1     -43.717 -53.355  16.251  1.00  0.00    -0.391 OA
HETATM   29  C   UNL     1     -43.004 -52.173  15.903  1.00  0.00     0.168 C 
HETATM   30  C   UNL     1     -41.806 -52.470  15.009  1.00  0.00     0.039 C 
BRANCH  25  31
HETATM   31  C   UNL     1     -40.642 -53.982  13.426  1.00  0.00     0.175 C 
BRANCH  31  32
HETATM   32  O   UNL     1     -40.549 -54.104  12.007  1.00  0.00    -0.400 OA
HETATM   33  H   UNL     1     -40.455 -55.058  11.799  1.00  0.00     0.209 HD
ENDBRANCH  31  32
ENDBRANCH  25  31
ENDBRANCH  24  25
ENDBRANCH   3  24
TORSDOF 6
ENDMDL
MODEL 3
REMARK VINA RESULT:      -6.6      1.339      2.456
REMARK  6 active torsions:
REMARK  status: ('A' for Active; 'I' for Inactive)
REMARK    1  A    between atoms: C_2  and  N_7 
REMARK    2  A    between atoms: N_3  and  C_17 
REMARK    3  A    between atoms: C_9  and  C_16 
REMARK    4  A    between atoms: C_17  and  C_19 
REMARK    5  A    between atoms: C_19  and  C_26 
REMARK    6  A    between atoms: C_26  and  O_27 
ROOT
HETATM    1  C   UNL     1     -41.098 -49.539  13.541  1.00  0.00     0.122 A 
HETATM    2  C   UNL     1     -41.474 -50.802  12.997  1.00  0.00     0.135 A 
HETATM    3  N   UNL     1     -40.195 -47.527  13.479  1.00  0.00    -0.326 N 
HETATM    4  C   UNL     1     -40.441 -48.640  12.712  1.00  0.00     0.140 A 
HETATM    5  N   UNL     1     -41.263 -48.967  14.794  1.00  0.00    -0.346 N 
ATOM      6  HN  UNL     1     -41.709 -49.389  15.609  1.00  0.00     0.167 HD
HETATM    7  C   UNL     1     -40.727 -47.769  14.716  1.00  0.00     0.185 A 
HETATM    8  N   UNL     1     -41.099 -51.009  11.690  1.00  0.00    -0.337 N 
ATOM      9  HN  UNL     1     -41.313 -51.898  11.238  1.00  0.00     0.168 HD
HETATM   10  N   UNL     1     -40.086 -48.823  11.427  1.00  0.00    -0.336 N 
ATOM     11  HN  UNL     1     -39.604 -48.130  10.854  1.00  0.00     0.168 HD
HETATM   12  C   UNL     1     -40.454 -50.051  11.000  1.00  0.00     0.183 A 
ENDROOT
BRANCH   2  13
HETATM   13  N   UNL     1     -42.170 -51.840  13.663  1.00  0.00    -0.361 N 
HETATM   14  C   UNL     1     -43.466 -51.490  14.271  1.00  0.00     0.082 C 
HETATM   15  C   UNL     1     -43.952 -52.637  15.176  1.00  0.00     0.038 C 
HETATM   16  C   UNL     1     -44.503 -51.090  13.219  1.00  0.00     0.032 C 
HETATM   17  C   UNL     1     -43.886 -54.041  14.571  1.00  0.00     0.097 C 
HETATM   18  C   UNL     1     -42.496 -54.278  13.975  1.00  0.00     0.033 C 
HETATM   19  C   UNL     1     -42.057 -53.161  13.022  1.00  0.00     0.125 C 
BRANCH  17  20
HETATM   20  C   UNL     1     -45.011 -54.366  13.592  1.00  0.00     0.391 C 
HETATM   21  F   UNL     1     -46.132 -53.657  13.838  1.00  0.00    -0.171 F 
HETATM   22  F   UNL     1     -44.667 -54.159  12.305  1.00  0.00    -0.171 F 
HETATM   23  F   UNL     1     -45.349 -55.675  13.701  1.00  0.00    -0.171 F 
ENDBRANCH  17  20
ENDBRANCH   2  13
BRANCH   3  24
HETATM   24  C   UNL     1     -39.502 -46.303  13.060  1.00  0.00     0.143 C 
BRANCH  24  25
HETATM   25  C   UNL     1     -40.338 -45.347  12.142  1.00  0.00     0.001 C 
HETATM   26  C   UNL     1     -40.120 -43.871  12.563  1.00  0.00     0.039 C 
HETATM   27  C   UNL     1     -40.870 -43.541  13.854  1.00  0.00     0.168 C 
HETATM   28  O   UNL     1     -42.266 -43.695  13.639  1.00  0.00    -0.391 OA
HETATM   29  C   UNL     1     -42.627 -45.049  13.395  1.00  0.00     0.168 C 
HETATM   30  C   UNL     1     -41.873 -45.636  12.208  1.00  0.00     0.039 C 
BRANCH  25  31
HETATM   31  C   UNL     1     -39.935 -45.575  10.663  1.00  0.00     0.175 C 
BRANCH  31  32
HETATM   32  O   UNL     1     -40.908 -46.388  10.009  1.00  0.00    -0.400 OA
HETATM   33  H   UNL     1     -40.487 -47.251   9.812  1.00  0.00     0.209 HD
ENDBRANCH  31  32
ENDBRANCH  25  31
ENDBRANCH  24  25
ENDBRANCH   3  24
TORSDOF 6
ENDMDL
MODEL 4
REMARK VINA RESULT:      -6.5      2.909      4.316
REMARK  6 active torsions:
REMARK  status: ('A' for Active; 'I' for Inactive)
REMARK    1  A    between atoms: C_2  and  N_7 
REMARK    2  A    between atoms: N_3  and  C_17 
REMARK    3  A    between atoms: C_9  and  C_16 
REMARK    4  A    between atoms: C_17  and  C_19 
REMARK    5  A    between atoms: C_19  and  C_26 
REMARK    6  A    between atoms: C_26  and  O_27 
ROOT
HETATM    1  C   UNL     1     -42.839 -51.505  12.798  1.00  0.00     0.122 A 
HETATM    2  C   UNL     1     -43.426 -52.700  13.308  1.00  0.00     0.135 A 
HETATM    3  N   UNL     1     -41.277 -50.323  11.781  1.00  0.00    -0.326 N 
HETATM    4  C   UNL     1     -41.609 -51.601  12.162  1.00  0.00     0.140 A 
HETATM    5  N   UNL     1     -43.256 -50.181  12.786  1.00  0.00    -0.346 N 
ATOM      6  HN  UNL     1     -44.118 -49.805  13.180  1.00  0.00     0.167 HD
HETATM    7  C   UNL     1     -42.311 -49.512  12.164  1.00  0.00     0.185 A 
HETATM    8  N   UNL     1     -42.670 -53.837  13.143  1.00  0.00    -0.337 N 
ATOM      9  HN  UNL     1     -43.014 -54.727  13.502  1.00  0.00     0.168 HD
HETATM   10  N   UNL     1     -40.869 -52.710  11.978  1.00  0.00    -0.336 N 
ATOM     11  HN  UNL     1     -39.968 -52.733  11.500  1.00  0.00     0.168 HD
HETATM   12  C   UNL     1     -41.483 -53.788  12.512  1.00  0.00     0.183 A 
ENDROOT
BRANCH   2  13
HETATM   13  N   UNL     1     -44.677 -52.819  13.960  1.00  0.00    -0.361 N 
HETATM   14  C   UNL     1     -44.665 -53.372  15.327  1.00  0.00     0.082 C 
HETATM   15  C   UNL     1     -46.102 -53.689  15.781  1.00  0.00     0.038 C 
HETATM   16  C   UNL     1     -43.925 -52.461  16.308  1.00  0.00     0.032 C 
HETATM   17  C   UNL     1     -47.137 -52.586  15.545  1.00  0.00     0.097 C 
HETATM   18  C   UNL     1     -47.046 -52.099  14.096  1.00  0.00     0.033 C 
HETATM   19  C   UNL     1     -45.619 -51.722  13.682  1.00  0.00     0.125 C 
BRANCH  17  20
HETATM   20  C   UNL     1     -47.093 -51.444  16.556  1.00  0.00     0.391 C 
HETATM   21  F   UNL     1     -46.173 -50.509  16.239  1.00  0.00    -0.171 F 
HETATM   22  F   UNL     1     -48.280 -50.821  16.700  1.00  0.00    -0.171 F 
HETATM   23  F   UNL     1     -46.752 -51.925  17.777  1.00  0.00    -0.171 F 
ENDBRANCH  17  20
ENDBRANCH   2  13
BRANCH   3  24
HETATM   24  C   UNL     1     -40.055 -49.898  11.089  1.00  0.00     0.143 C 
BRANCH  24  25
HETATM   25  C   UNL     1     -38.977 -49.218  12.000  1.00  0.00     0.001 C 
HETATM   26  C   UNL     1     -37.555 -49.490  11.445  1.00  0.00     0.039 C 
HETATM   27  C   UNL     1     -37.110 -50.925  11.723  1.00  0.00     0.168 C 
HETATM   28  O   UNL     1     -37.038 -51.131  13.127  1.00  0.00    -0.391 OA
HETATM   29  C   UNL     1     -38.317 -51.064  13.748  1.00  0.00     0.168 C 
HETATM   30  C   UNL     1     -39.016 -49.738  13.473  1.00  0.00     0.039 C 
BRANCH  25  31
HETATM   31  C   UNL     1     -39.265 -47.698  12.087  1.00  0.00     0.175 C 
BRANCH  31  32
HETATM   32  O   UNL     1     -39.725 -47.213  10.826  1.00  0.00    -0.400 OA
HETATM   33  H   UNL     1     -39.359 -47.802  10.133  1.00  0.00     0.209 HD
ENDBRANCH  31  32
ENDBRANCH  25  31
ENDBRANCH  24  25
ENDBRANCH   3  24
TORSDOF 6
ENDMDL
MODEL 5
REMARK VINA RESULT:      -6.4      1.410      3.061
REMARK  6 active torsions:
REMARK  status: ('A' for Active; 'I' for Inactive)
REMARK    1  A    between atoms: C_2  and  N_7 
REMARK    2  A    between atoms: N_3  and  C_17 
REMARK    3  A    between atoms: C_9  and  C_16 
REMARK    4  A    between atoms: C_17  and  C_19 
REMARK    5  A    between atoms: C_19  and  C_26 
REMARK    6  A    between atoms: C_26  and  O_27 
ROOT
HETATM    1  C   UNL     1     -41.162 -49.744  13.582  1.00  0.00     0.122 A 
HETATM    2  C   UNL     1     -41.550 -51.015  13.064  1.00  0.00     0.135 A 
HETATM    3  N   UNL     1     -40.233 -47.746  13.483  1.00  0.00    -0.326 N 
HETATM    4  C   UNL     1     -40.488 -48.873  12.739  1.00  0.00     0.140 A 
HETATM    5  N   UNL     1     -41.329 -49.143  14.822  1.00  0.00    -0.346 N 
ATOM      6  HN  UNL     1     -41.786 -49.542  15.643  1.00  0.00     0.167 HD
HETATM    7  C   UNL     1     -40.777 -47.954  14.722  1.00  0.00     0.185 A 
HETATM    8  N   UNL     1     -41.169 -51.255  11.764  1.00  0.00    -0.337 N 
ATOM      9  HN  UNL     1     -41.390 -52.151  11.331  1.00  0.00     0.168 HD
HETATM   10  N   UNL     1     -40.126 -49.088  11.461  1.00  0.00    -0.336 N 
ATOM     11  HN  UNL     1     -39.633 -48.413  10.876  1.00  0.00     0.168 HD
HETATM   12  C   UNL     1     -40.507 -50.320  11.058  1.00  0.00     0.183 A 
ENDROOT
BRANCH   2  13
HETATM   13  N   UNL     1     -42.263 -52.029  13.747  1.00  0.00    -0.361 N 
HETATM   14  C   UNL     1     -43.557 -51.649  14.341  1.00  0.00     0.082 C 
HETATM   15  C   UNL     1     -44.063 -52.770  15.267  1.00  0.00     0.038 C 
HETATM   16  C   UNL     1     -44.584 -51.257  13.276  1.00  0.00     0.032 C 
HETATM   17  C   UNL     1     -44.014 -54.188  14.691  1.00  0.00     0.097 C 
HETATM   18  C   UNL     1     -42.624 -54.456  14.107  1.00  0.00     0.033 C 
HETATM   19  C   UNL     1     -42.165 -53.364  13.134  1.00  0.00     0.125 C 
BRANCH  17  20
HETATM   20  C   UNL     1     -45.138 -54.518  13.713  1.00  0.00     0.391 C 
HETATM   21  F   UNL     1     -44.825 -54.203  12.440  1.00  0.00    -0.171 F 
HETATM   22  F   UNL     1     -45.497 -55.817  13.740  1.00  0.00    -0.171 F 
HETATM   23  F   UNL     1     -46.245 -53.800  14.029  1.00  0.00    -0.171 F 
ENDBRANCH  17  20
ENDBRANCH   2  13
BRANCH   3  24
HETATM   24  C   UNL     1     -39.523 -46.540  13.043  1.00  0.00     0.143 C 
BRANCH  24  25
HETATM   25  C   UNL     1     -40.429 -45.284  12.805  1.00  0.00     0.001 C 
HETATM   26  C   UNL     1     -41.754 -45.700  12.116  1.00  0.00     0.039 C 
HETATM   27  C   UNL     1     -41.539 -46.017  10.637  1.00  0.00     0.168 C 
HETATM   28  O   UNL     1     -41.088 -44.849   9.966  1.00  0.00    -0.391 OA
HETATM   29  C   UNL     1     -39.795 -44.445  10.399  1.00  0.00     0.168 C 
HETATM   30  C   UNL     1     -39.745 -44.206  11.903  1.00  0.00     0.039 C 
BRANCH  25  31
HETATM   31  C   UNL     1     -40.698 -44.583  14.161  1.00  0.00     0.175 C 
BRANCH  31  32
HETATM   32  O   UNL     1     -39.642 -43.670  14.459  1.00  0.00    -0.400 OA
HETATM   33  H   UNL     1     -39.529 -43.085  13.680  1.00  0.00     0.209 HD
ENDBRANCH  31  32
ENDBRANCH  25  31
ENDBRANCH  24  25
ENDBRANCH   3  24
TORSDOF 6
ENDMDL
MODEL 6
REMARK VINA RESULT:      -6.4      1.590      2.296
REMARK  6 active torsions:
REMARK  status: ('A' for Active; 'I' for Inactive)
REMARK    1  A    between atoms: C_2  and  N_7 
REMARK    2  A    between atoms: N_3  and  C_17 
REMARK    3  A    between atoms: C_9  and  C_16 
REMARK    4  A    between atoms: C_17  and  C_19 
REMARK    5  A    between atoms: C_19  and  C_26 
REMARK    6  A    between atoms: C_26  and  O_27 
ROOT
HETATM    1  C   UNL     1     -41.112 -49.825  12.709  1.00  0.00     0.122 A 
HETATM    2  C   UNL     1     -40.841 -50.761  13.750  1.00  0.00     0.135 A 
HETATM    3  N   UNL     1     -40.774 -47.984  11.542  1.00  0.00    -0.326 N 
HETATM    4  C   UNL     1     -40.294 -48.708  12.606  1.00  0.00     0.140 A 
HETATM    5  N   UNL     1     -42.069 -49.785  11.705  1.00  0.00    -0.346 N 
ATOM      6  HN  UNL     1     -42.806 -50.468  11.530  1.00  0.00     0.167 HD
HETATM    7  C   UNL     1     -41.829 -48.686  11.024  1.00  0.00     0.185 A 
HETATM    8  N   UNL     1     -39.797 -50.425  14.580  1.00  0.00    -0.337 N 
ATOM      9  HN  UNL     1     -39.558 -51.034  15.362  1.00  0.00     0.168 HD
HETATM   10  N   UNL     1     -39.259 -48.377  13.399  1.00  0.00    -0.336 N 
ATOM     11  HN  UNL     1     -38.682 -47.544  13.282  1.00  0.00     0.168 HD
HETATM   12  C   UNL     1     -39.088 -49.300  14.371  1.00  0.00     0.183 A 
ENDROOT
BRANCH   2  13
HETATM   13  N   UNL     1     -41.535 -51.968  14.008  1.00  0.00    -0.361 N 
HETATM   14  C   UNL     1     -42.629 -51.910  14.994  1.00  0.00     0.082 C 
HETATM   15  C   UNL     1     -43.089 -53.333  15.358  1.00  0.00     0.038 C 
HETATM   16  C   UNL     1     -43.782 -51.021  14.520  1.00  0.00     0.032 C 
HETATM   17  C   UNL     1     -43.338 -54.278  14.179  1.00  0.00     0.097 C 
HETATM   18  C   UNL     1     -42.135 -54.246  13.233  1.00  0.00     0.033 C 
HETATM   19  C   UNL     1     -41.734 -52.824  12.826  1.00  0.00     0.125 C 
BRANCH  17  20
HETATM   20  C   UNL     1     -44.664 -54.058  13.456  1.00  0.00     0.391 C 
HETATM   21  F   UNL     1     -44.521 -53.342  12.321  1.00  0.00    -0.171 F 
HETATM   22  F   UNL     1     -45.290 -55.209  13.140  1.00  0.00    -0.171 F 
HETATM   23  F   UNL     1     -45.510 -53.358  14.252  1.00  0.00    -0.171 F 
ENDBRANCH  17  20
ENDBRANCH   2  13
BRANCH   3  24
HETATM   24  C   UNL     1     -40.258 -46.705  11.041  1.00  0.00     0.143 C 
BRANCH  24  25
HETATM   25  C   UNL     1     -41.079 -45.442  11.473  1.00  0.00     0.001 C 
HETATM   26  C   UNL     1     -40.175 -44.182  11.456  1.00  0.00     0.039 C 
HETATM   27  C   UNL     1     -39.220 -44.162  12.649  1.00  0.00     0.168 C 
HETATM   28  O   UNL     1     -39.973 -44.098  13.852  1.00  0.00    -0.391 OA
HETATM   29  C   UNL     1     -40.738 -45.278  14.071  1.00  0.00     0.168 C 
HETATM   30  C   UNL     1     -41.679 -45.574  12.910  1.00  0.00     0.039 C 
BRANCH  25  31
HETATM   31  C   UNL     1     -42.295 -45.273  10.527  1.00  0.00     0.175 C 
BRANCH  31  32
HETATM   32  O   UNL     1     -41.949 -45.683   9.205  1.00  0.00    -0.400 OA
HETATM   33  H   UNL     1     -41.533 -46.569   9.270  1.00  0.00     0.209 HD
ENDBRANCH  31  32
ENDBRANCH  25  31
ENDBRANCH  24  25
ENDBRANCH   3  24
TORSDOF 6
ENDMDL
MODEL 7
REMARK VINA RESULT:      -6.4      4.634      8.116
REMARK  6 active torsions:
REMARK  status: ('A' for Active; 'I' for Inactive)
REMARK    1  A    between atoms: C_2  and  N_7 
REMARK    2  A    between atoms: N_3  and  C_17 
REMARK    3  A    between atoms: C_9  and  C_16 
REMARK    4  A    between atoms: C_17  and  C_19 
REMARK    5  A    between atoms: C_19  and  C_26 
REMARK    6  A    between atoms: C_26  and  O_27 
ROOT
HETATM    1  C   UNL     1     -41.180 -48.852  12.229  1.00  0.00     0.122 A 
HETATM    2  C   UNL     1     -40.084 -47.989  11.934  1.00  0.00     0.135 A 
HETATM    3  N   UNL     1     -42.196 -50.803  12.400  1.00  0.00    -0.326 N 
HETATM    4  C   UNL     1     -41.001 -50.217  12.055  1.00  0.00     0.140 A 
HETATM    5  N   UNL     1     -42.466 -48.616  12.693  1.00  0.00    -0.346 N 
ATOM      6  HN  UNL     1     -42.885 -47.711  12.910  1.00  0.00     0.167 HD
HETATM    7  C   UNL     1     -43.035 -49.797  12.794  1.00  0.00     0.185 A 
HETATM    8  N   UNL     1     -38.957 -48.619  11.460  1.00  0.00    -0.337 N 
ATOM      9  HN  UNL     1     -38.140 -48.065  11.205  1.00  0.00     0.168 HD
HETATM   10  N   UNL     1     -39.899 -50.847  11.610  1.00  0.00    -0.336 N 
ATOM     11  HN  UNL     1     -39.812 -51.858  11.501  1.00  0.00     0.168 HD
HETATM   12  C   UNL     1     -38.921 -49.957  11.329  1.00  0.00     0.183 A 
ENDROOT
BRANCH   2  13
HETATM   13  N   UNL     1     -40.053 -46.580  12.069  1.00  0.00    -0.361 N 
HETATM   14  C   UNL     1     -40.308 -45.788  10.853  1.00  0.00     0.082 C 
HETATM   15  C   UNL     1     -39.971 -44.307  11.105  1.00  0.00     0.038 C 
HETATM   16  C   UNL     1     -41.732 -45.986  10.327  1.00  0.00     0.032 C 
HETATM   17  C   UNL     1     -40.535 -43.702  12.394  1.00  0.00     0.097 C 
HETATM   18  C   UNL     1     -40.205 -44.617  13.577  1.00  0.00     0.033 C 
HETATM   19  C   UNL     1     -40.611 -46.075  13.335  1.00  0.00     0.125 C 
BRANCH  17  20
HETATM   20  C   UNL     1     -42.014 -43.332  12.329  1.00  0.00     0.391 C 
HETATM   21  F   UNL     1     -42.819 -44.351  12.692  1.00  0.00    -0.171 F 
HETATM   22  F   UNL     1     -42.325 -42.268  13.097  1.00  0.00    -0.171 F 
HETATM   23  F   UNL     1     -42.350 -43.007  11.056  1.00  0.00    -0.171 F 
ENDBRANCH  17  20
ENDBRANCH   2  13
BRANCH   3  24
HETATM   24  C   UNL     1     -42.518 -52.234  12.365  1.00  0.00     0.143 C 
BRANCH  24  25
HETATM   25  C   UNL     1     -41.928 -53.077  13.546  1.00  0.00     0.001 C 
HETATM   26  C   UNL     1     -42.944 -54.159  13.994  1.00  0.00     0.039 C 
HETATM   27  C   UNL     1     -44.092 -53.549  14.798  1.00  0.00     0.168 C 
HETATM   28  O   UNL     1     -43.576 -52.967  15.987  1.00  0.00    -0.391 OA
HETATM   29  C   UNL     1     -42.740 -51.847  15.719  1.00  0.00     0.168 C 
HETATM   30  C   UNL     1     -41.582 -52.206  14.797  1.00  0.00     0.039 C 
BRANCH  25  31
HETATM   31  C   UNL     1     -40.588 -53.716  13.100  1.00  0.00     0.175 C 
BRANCH  31  32
HETATM   32  O   UNL     1     -40.509 -53.746  11.676  1.00  0.00    -0.400 OA
HETATM   33  H   UNL     1     -39.579 -53.559  11.428  1.00  0.00     0.209 HD
ENDBRANCH  31  32
ENDBRANCH  25  31
ENDBRANCH  24  25
ENDBRANCH   3  24
TORSDOF 6
ENDMDL
MODEL 8
REMARK VINA RESULT:      -6.2      1.873      2.756
REMARK  6 active torsions:
REMARK  status: ('A' for Active; 'I' for Inactive)
REMARK    1  A    between atoms: C_2  and  N_7 
REMARK    2  A    between atoms: N_3  and  C_17 
REMARK    3  A    between atoms: C_9  and  C_16 
REMARK    4  A    between atoms: C_17  and  C_19 
REMARK    5  A    between atoms: C_19  and  C_26 
REMARK    6  A    between atoms: C_26  and  O_27 
ROOT
HETATM    1  C   UNL     1     -41.641 -50.731  12.539  1.00  0.00     0.122 A 
HETATM    2  C   UNL     1     -41.332 -52.015  13.074  1.00  0.00     0.135 A 
HETATM    3  N   UNL     1     -41.161 -48.716  11.779  1.00  0.00    -0.326 N 
HETATM    4  C   UNL     1     -40.590 -49.864  12.273  1.00  0.00     0.140 A 
HETATM    5  N   UNL     1     -42.837 -50.117  12.193  1.00  0.00    -0.346 N 
ATOM      6  HN  UNL     1     -43.775 -50.508  12.277  1.00  0.00     0.167 HD
HETATM    7  C   UNL     1     -42.512 -48.929  11.733  1.00  0.00     0.185 A 
HETATM    8  N   UNL     1     -39.996 -52.243  13.309  1.00  0.00    -0.337 N 
ATOM      9  HN  UNL     1     -39.700 -53.131  13.713  1.00  0.00     0.168 HD
HETATM   10  N   UNL     1     -39.279 -50.082  12.480  1.00  0.00    -0.336 N 
ATOM     11  HN  UNL     1     -38.538 -49.413  12.265  1.00  0.00     0.168 HD
HETATM   12  C   UNL     1     -39.076 -51.307  13.012  1.00  0.00     0.183 A 
ENDROOT
BRANCH   2  13
HETATM   13  N   UNL     1     -42.249 -53.047  13.388  1.00  0.00    -0.361 N 
HETATM   14  C   UNL     1     -42.250 -53.537  14.778  1.00  0.00     0.082 C 
HETATM   15  C   UNL     1     -43.092 -54.822  14.885  1.00  0.00     0.038 C 
HETATM   16  C   UNL     1     -42.696 -52.458  15.768  1.00  0.00     0.032 C 
HETATM   17  C   UNL     1     -44.470 -54.777  14.221  1.00  0.00     0.097 C 
HETATM   18  C   UNL     1     -44.333 -54.251  12.789  1.00  0.00     0.033 C 
HETATM   19  C   UNL     1     -43.551 -52.935  12.709  1.00  0.00     0.125 C 
BRANCH  17  20
HETATM   20  C   UNL     1     -45.539 -54.036  15.020  1.00  0.00     0.391 C 
HETATM   21  F   UNL     1     -45.315 -54.084  16.350  1.00  0.00    -0.171 F 
HETATM   22  F   UNL     1     -45.658 -52.740  14.669  1.00  0.00    -0.171 F 
HETATM   23  F   UNL     1     -46.749 -54.611  14.810  1.00  0.00    -0.171 F 
ENDBRANCH  17  20
ENDBRANCH   2  13
BRANCH   3  24
HETATM   24  C   UNL     1     -40.465 -47.491  11.367  1.00  0.00     0.143 C 
BRANCH  24  25
HETATM   25  C   UNL     1     -40.686 -46.254  12.303  1.00  0.00     0.001 C 
HETATM   26  C   UNL     1     -42.144 -45.742  12.182  1.00  0.00     0.039 C 
HETATM   27  C   UNL     1     -42.364 -44.985  10.872  1.00  0.00     0.168 C 
HETATM   28  O   UNL     1     -41.531 -43.834  10.849  1.00  0.00    -0.391 OA
HETATM   29  C   UNL     1     -40.150 -44.170  10.799  1.00  0.00     0.168 C 
HETATM   30  C   UNL     1     -39.735 -45.061  11.963  1.00  0.00     0.039 C 
BRANCH  25  31
HETATM   31  C   UNL     1     -40.350 -46.651  13.764  1.00  0.00     0.175 C 
BRANCH  31  32
HETATM   32  O   UNL     1     -39.033 -47.194  13.834  1.00  0.00    -0.400 OA
HETATM   33  H   UNL     1     -38.489 -46.735  13.159  1.00  0.00     0.209 HD
ENDBRANCH  31  32
ENDBRANCH  25  31
ENDBRANCH  24  25
ENDBRANCH   3  24
TORSDOF 6
ENDMDL
MODEL 9
REMARK VINA RESULT:      -6.1      4.833      8.422
REMARK  6 active torsions:
REMARK  status: ('A' for Active; 'I' for Inactive)
REMARK    1  A    between atoms: C_2  and  N_7 
REMARK    2  A    between atoms: N_3  and  C_17 
REMARK    3  A    between atoms: C_9  and  C_16 
REMARK    4  A    between atoms: C_17  and  C_19 
REMARK    5  A    between atoms: C_19  and  C_26 
REMARK    6  A    between atoms: C_26  and  O_27 
ROOT
HETATM    1  C   UNL     1     -42.627 -49.653  13.520  1.00  0.00     0.122 A 
HETATM    2  C   UNL     1     -41.968 -49.099  12.383  1.00  0.00     0.135 A 
HETATM    3  N   UNL     1     -43.272 -51.287  14.855  1.00  0.00    -0.326 N 
HETATM    4  C   UNL     1     -42.558 -51.026  13.710  1.00  0.00     0.140 A 
HETATM    5  N   UNL     1     -43.363 -49.086  14.550  1.00  0.00    -0.346 N 
ATOM      6  HN  UNL     1     -43.584 -48.099  14.677  1.00  0.00     0.167 HD
HETATM    7  C   UNL     1     -43.718 -50.084  15.330  1.00  0.00     0.185 A 
HETATM    8  N   UNL     1     -41.354 -50.015  11.561  1.00  0.00    -0.337 N 
ATOM      9  HN  UNL     1     -40.881 -49.696  10.716  1.00  0.00     0.168 HD
HETATM   10  N   UNL     1     -41.945 -51.930  12.924  1.00  0.00    -0.336 N 
ATOM     11  HN  UNL     1     -41.917 -52.934  13.107  1.00  0.00     0.168 HD
HETATM   12  C   UNL     1     -41.371 -51.327  11.860  1.00  0.00     0.183 A 
ENDROOT
BRANCH   2  13
HETATM   13  N   UNL     1     -41.898 -47.731  12.026  1.00  0.00    -0.361 N 
HETATM   14  C   UNL     1     -41.238 -46.826  12.984  1.00  0.00     0.082 C 
HETATM   15  C   UNL     1     -41.486 -45.360  12.583  1.00  0.00     0.038 C 
HETATM   16  C   UNL     1     -39.750 -47.148  13.147  1.00  0.00     0.032 C 
HETATM   17  C   UNL     1     -41.247 -45.019  11.110  1.00  0.00     0.097 C 
HETATM   18  C   UNL     1     -41.981 -46.029  10.224  1.00  0.00     0.033 C 
HETATM   19  C   UNL     1     -41.668 -47.484  10.593  1.00  0.00     0.125 C 
BRANCH  17  20
HETATM   20  C   UNL     1     -39.780 -44.853  10.725  1.00  0.00     0.391 C 
HETATM   21  F   UNL     1     -39.011 -44.473  11.766  1.00  0.00    -0.171 F 
HETATM   22  F   UNL     1     -39.241 -45.974  10.203  1.00  0.00    -0.171 F 
HETATM   23  F   UNL     1     -39.660 -43.886   9.781  1.00  0.00    -0.171 F 
ENDBRANCH  17  20
ENDBRANCH   2  13
BRANCH   3  24
HETATM   24  C   UNL     1     -43.510 -52.600  15.466  1.00  0.00     0.143 C 
BRANCH  24  25
HETATM   25  C   UNL     1     -44.944 -53.189  15.238  1.00  0.00     0.001 C 
HETATM   26  C   UNL     1     -44.856 -54.543  14.489  1.00  0.00     0.039 C 
HETATM   27  C   UNL     1     -44.533 -54.344  13.008  1.00  0.00     0.168 C 
HETATM   28  O   UNL     1     -45.584 -53.614  12.392  1.00  0.00    -0.391 OA
HETATM   29  C   UNL     1     -45.674 -52.282  12.884  1.00  0.00     0.168 C 
HETATM   30  C   UNL     1     -45.859 -52.242  14.396  1.00  0.00     0.039 C 
BRANCH  25  31
HETATM   31  C   UNL     1     -45.655 -53.348  16.605  1.00  0.00     0.175 C 
BRANCH  31  32
HETATM   32  O   UNL     1     -46.737 -52.423  16.706  1.00  0.00    -0.400 OA
HETATM   33  H   UNL     1     -46.894 -52.054  15.811  1.00  0.00     0.209 HD
ENDBRANCH  31  32
ENDBRANCH  25  31
ENDBRANCH  24  25
ENDBRANCH   3  24
TORSDOF 6
ENDMDL
