REMARK  Name = 
REMARK  4 active torsions:
REMARK  status: ('A' for Active; 'I' for Inactive)
REMARK    1  A    between atoms: C_2  and  S_3
REMARK    2  A    between atoms: S_3  and  C_4
REMARK    3  A    between atoms: C_7  and  N_9
REMARK    4  A    between atoms: N_12  and  C_13
REMARK                            x       y       z     vdW  Elec       q    Type
REMARK                         _______ _______ _______ _____ _____    ______ ____
ROOT
ATOM      1  N   UNL     1      -2.934  -3.236   0.000  0.00  0.00    -0.189 NA
ATOM      2  C   UNL     1      -3.755  -3.150   0.000  0.00  0.00    +0.343 C 
ATOM      3  N   UNL     1      -4.239  -3.817   0.000  0.00  0.00    -0.159 NA
ATOM      4  O   UNL     1      -4.090  -2.396   0.000  0.00  0.00    -0.249 OA
ENDROOT
BRANCH   3   5
ATOM      5  C   UNL     1      -3.904  -4.571   0.000  0.00  0.00    +0.094 A 
ATOM      6  C   UNL     1      -4.389  -5.238   0.000  0.00  0.00    +0.115 A 
ATOM      7  N   UNL     1      -4.053  -5.992   0.000  0.00  0.00    -0.241 NA
ATOM      8  C   UNL     1      -3.233  -6.078   0.000  0.00  0.00    +0.099 A 
ATOM      9  C   UNL     1      -2.748  -5.411   0.000  0.00  0.00    +0.022 A 
ATOM     10  C   UNL     1      -3.083  -4.657   0.000  0.00  0.00    +0.020 A 
ENDBRANCH   3   5
BRANCH   1  13
ATOM     11  C   UNL     1      -2.037  -1.299   0.000  0.00  0.00    +0.049 C 
ATOM     12  C   UNL     1      -2.704  -1.784   0.000  0.00  0.00    +0.032 C 
ATOM     13  C   UNL     1      -2.449  -2.569   0.000  0.00  0.00    +0.098 C 
ATOM     14  C   UNL     1      -1.624  -2.569   0.000  0.00  0.00    +0.023 C 
ATOM     15  C   UNL     1      -1.369  -1.784   0.000  0.00  0.00    +0.013 C 
BRANCH  11  16
ATOM     16  S   UNL     1      -2.037  -0.474   0.000  0.00  0.00    -0.141 S 
BRANCH  16  18
ATOM     17  C   UNL     1      -1.322   0.763   0.000  0.00  0.00    +0.013 C 
ATOM     18  C   UNL     1      -1.322  -0.062   0.000  0.00  0.00    +0.058 C 
ENDBRANCH  16  18
ENDBRANCH  11  16
ENDBRANCH   1  13
TORSDOF 4
