REMARK  Name = 
REMARK  2 active torsions:
REMARK  status: ('A' for Active; 'I' for Inactive)
REMARK    1  A    between atoms: O_2  and  C_3
REMARK    2  A    between atoms: C_9  and  C_11
REMARK                            x       y       z     vdW  Elec       q    Type
REMARK                         _______ _______ _______ _____ _____    ______ ____
ROOT
ATOM      1  C   UNL     1       4.180   5.590   0.000  0.00  0.00    +0.143 A 
ATOM      2  C   UNL     1       4.180   4.765   0.000  0.00  0.00    +0.073 A 
ATOM      3  C   UNL     1       4.895   4.353   0.000  0.00  0.00    +0.158 A 
ATOM      4  N   UNL     1       4.895   3.528   0.000  0.00  0.00    -0.158 NA
ATOM      5  C   UNL     1       4.180   3.115   0.000  0.00  0.00    +0.274 C 
ATOM      6  O   UNL     1       3.466   3.528   0.000  0.00  0.00    -0.270 OA
ATOM      7  N   UNL     1       5.609   4.765   0.000  0.00  0.00    -0.227 NA
ATOM      8  C   UNL     1       5.609   5.590   0.000  0.00  0.00    +0.103 A 
ATOM      9  C   UNL     1       4.895   6.003   0.000  0.00  0.00    +0.058 A 
ENDROOT
BRANCH   5  10
ATOM     10  C   UNL     1       4.180   2.290   0.000  0.00  0.00    +0.193 C 
ATOM     11  O   UNL     1       3.513   1.805   0.000  0.00  0.00    -0.349 OA
ATOM     12  C   UNL     1       3.768   1.021   0.000  0.00  0.00    +0.116 C 
ATOM     13  C   UNL     1       3.283   0.353   0.000  0.00  0.00    +0.032 C 
ATOM     14  C   UNL     1       4.593   1.021   0.000  0.00  0.00    +0.033 C 
ATOM     15  C   UNL     1       4.848   1.805   0.000  0.00  0.00    +0.042 C 
ENDBRANCH   5  10
BRANCH   1  17
ATOM     16  C   UNL     1       3.466   6.828   0.000  0.00  0.00    +0.252 C 
ATOM     17  O   UNL     1       3.466   6.003   0.000  0.00  0.00    -0.471 OA
ENDBRANCH   1  17
TORSDOF 2
