REMARK  Name = 
REMARK  2 active torsions:
REMARK  status: ('A' for Active; 'I' for Inactive)
REMARK    1  A    between atoms: C_2  and  N_3
REMARK    2  A    between atoms: C_7  and  C_13
REMARK                            x       y       z     vdW  Elec       q    Type
REMARK                         _______ _______ _______ _____ _____    ______ ____
ROOT
ATOM      1  N   UNL     1       2.033   3.529   0.000  0.00  0.00    -0.196 NA
ATOM      2  C   UNL     1       2.033   4.350   0.000  0.00  0.00    +0.258 A 
ATOM      3  N   UNL     1       1.321   4.763   0.000  0.00  0.00    -0.086 NA
ATOM      4  N   UNL     1       2.750   4.763   0.000  0.00  0.00    -0.209 NA
ATOM      5  C   UNL     1       3.462   4.350   0.000  0.00  0.00    +0.105 A 
ATOM      6  C   UNL     1       3.462   3.529   0.000  0.00  0.00    +0.055 A 
ATOM      7  C   UNL     1       2.750   3.117   0.000  0.00  0.00    +0.136 A 
ENDROOT
BRANCH   7   8
ATOM      8  N   UNL     1       2.750   2.292   0.000  0.00  0.00    -0.292 N 
ATOM      9  C   UNL     1       3.417   1.808   0.000  0.00  0.00    +0.092 C 
ATOM     10  C   UNL     1       3.163   1.021   0.000  0.00  0.00    +0.023 C 
ATOM     11  C   UNL     1       2.337   1.021   0.000  0.00  0.00    +0.024 C 
ATOM     12  C   UNL     1       2.083   1.808   0.000  0.00  0.00    +0.107 C 
BRANCH  12  13
ATOM     13  C   UNL     1       1.296   2.062   0.000  0.00  0.00    +0.202 C 
ATOM     14  O   UNL     1       0.683   1.508   0.000  0.00  0.00    -0.219 OA
ENDBRANCH  12  13
ENDBRANCH   7   8
TORSDOF 2
