REMARK  Name = 
REMARK  3 active torsions:
REMARK  status: ('A' for Active; 'I' for Inactive)
REMARK    1  A    between atoms: N_4  and  C_10
REMARK    2  A    between atoms: C_7  and  C_13
REMARK    3  A    between atoms: C_9  and  C_10
REMARK                            x       y       z     vdW  Elec       q    Type
REMARK                         _______ _______ _______ _____ _____    ______ ____
ROOT
ATOM      1  N   UNL     1       2.638   0.954   0.000  0.00  0.00    -0.283 N 
ATOM      2  C   UNL     1       1.967   1.438   0.000  0.00  0.00    +0.128 C 
ATOM      3  C   UNL     1       2.225   2.225   0.000  0.00  0.00    +0.183 C 
ATOM      4  C   UNL     1       3.050   2.225   0.000  0.00  0.00    +0.066 C 
ATOM      5  F   UNL     1       1.738   2.892   0.000  0.00  0.00    -0.235 F 
ATOM      6  C   UNL     1       3.304   1.438   0.000  0.00  0.00    +0.157 C 
ATOM      7  C   UNL     1       2.638   0.129   0.000  0.00  0.00    +0.155 A 
ATOM      8  N   UNL     1       3.350  -0.283   0.000  0.00  0.00    -0.207 NA
ATOM      9  C   UNL     1       3.350  -1.108   0.000  0.00  0.00    +0.201 A 
ATOM     10  N   UNL     1       2.638  -1.521   0.000  0.00  0.00    -0.205 NA
ATOM     11  C   UNL     1       1.921  -1.108   0.000  0.00  0.00    +0.167 A 
ATOM     12  N   UNL     1       1.137  -1.363   0.000  0.00  0.00    -0.292 N 
ATOM     13  C   UNL     1       0.650  -0.696   0.000  0.00  0.00    +0.180 A 
ATOM     14  N   UNL     1       1.137  -0.029   0.000  0.00  0.00    -0.219 NA
ATOM     15  C   UNL     1       1.921  -0.283   0.000  0.00  0.00    +0.149 A 
ENDROOT
BRANCH   6  16
ATOM     16  C   UNL     1       4.088   1.183   0.000  0.00  0.00    +0.279 C 
ATOM     17  N   UNL     1       4.700   1.738   0.000  0.00  0.00    -0.086 NA
ATOM     18  O   UNL     1       4.258   0.379   0.000  0.00  0.00    -0.270 OA
ENDBRANCH   6  16
BRANCH  12  19
ATOM     19  C   UNL     1       0.883  -2.150   0.000  0.00  0.00    +0.142 C 
BRANCH  19  20
ATOM     20  C   UNL     1       0.075  -2.321   0.000  0.00  0.00    +0.174 C 
ATOM     21  O   UNL     1       0.346  -1.542   0.000  0.00  0.00    -0.221 OA
ATOM     22  C   UNL     1      -0.729  -2.138   0.000  0.00  0.00    +0.067 C 
ATOM     23  C   UNL     1      -1.150  -2.850   0.000  0.00  0.00    +0.145 C 
ATOM     24  O   UNL     1      -0.604  -3.467   0.000  0.00  0.00    -0.354 OA
ATOM     25  C   UNL     1       0.154  -3.142   0.000  0.00  0.00    +0.145 C 
ATOM     26  C   UNL     1       0.863  -3.562   0.000  0.00  0.00    +0.035 C 
ENDBRANCH  19  20
ENDBRANCH  12  19
TORSDOF 3
