REMARK  Name = 
REMARK  4 active torsions:
REMARK  status: ('A' for Active; 'I' for Inactive)
REMARK    1  A    between atoms: C_4  and  C_5
REMARK    2  A    between atoms: C_5  and  C_6
REMARK    3  A    between atoms: N_8  and  C_9
REMARK    4  A    between atoms: C_10  and  C_11
REMARK                            x       y       z     vdW  Elec       q    Type
REMARK                         _______ _______ _______ _____ _____    ______ ____
ROOT
ATOM      1  C   UNL     1      -0.551   1.779   0.000  0.00  0.00    +0.247 C 
ATOM      2  N   UNL     1      -0.551   0.954   0.000  0.00  0.00    -0.207 NA
ATOM      3  O   UNL     1       0.164   2.192   0.000  0.00  0.00    -0.273 OA
ENDROOT
BRANCH   2   4
ATOM      4  C   UNL     1       0.164   0.542   0.000  0.00  0.00    +0.098 C 
ATOM      5  C   UNL     1       0.878   0.954   0.000  0.00  0.00    +0.020 C 
ATOM      6  C   UNL     1       0.672   0.129   0.000  0.00  0.00    +0.002 C 
ATOM      7  C   UNL     1       0.878  -0.696   0.000  0.00  0.00    +0.004 C 
ATOM      8  C   UNL     1       1.593  -0.283   0.000  0.00  0.00    +0.000 C 
ATOM      9  C   UNL     1       1.593   0.542   0.000  0.00  0.00    +0.002 C 
ATOM     10  C   UNL     1       0.164  -0.283   0.000  0.00  0.00    +0.053 C 
BRANCH  10  11
ATOM     11  C   UNL     1      -0.551  -0.696   0.000  0.00  0.00    +0.184 C 
ATOM     12  O   UNL     1      -0.551  -1.521   0.000  0.00  0.00    -0.220 OA
ENDBRANCH  10  11
ENDBRANCH   2   4
BRANCH   1  13
ATOM     13  C   UNL     1      -1.265   2.192   0.000  0.00  0.00    +0.134 C 
BRANCH  13  18
ATOM     14  C   UNL     1      -0.368   4.954   0.000  0.00  0.00    +0.054 C 
ATOM     15  C   UNL     1      -0.853   4.286   0.000  0.00  0.00    +0.082 A 
ATOM     16  N   UNL     1      -1.678   4.286   0.000  0.00  0.00    -0.153 NA
ATOM     17  N   UNL     1      -1.933   3.502   0.000  0.00  0.00    -0.152 NA
ATOM     18  C   UNL     1      -1.265   3.017   0.000  0.00  0.00    +0.091 A 
ATOM     19  C   UNL     1      -0.598   3.502   0.000  0.00  0.00    +0.033 A 
ENDBRANCH  13  18
ENDBRANCH   1  13
TORSDOF 4
