REMARK  Name = 
REMARK  3 active torsions:
REMARK  status: ('A' for Active; 'I' for Inactive)
REMARK    1  A    between atoms: C_3  and  C_5
REMARK    2  A    between atoms: C_5  and  N_6
REMARK    3  A    between atoms: C_9  and  N_12
REMARK                            x       y       z     vdW  Elec       q    Type
REMARK                         _______ _______ _______ _____ _____    ______ ____
ROOT
ATOM      1  N   UNL     1      -2.143  -1.238   0.000  0.00  0.00    -0.265 NA
ATOM      2  C   UNL     1      -2.858  -1.650   0.000  0.00  0.00    +0.074 C 
ATOM      3  C   UNL     1      -2.858  -2.475   0.000  0.00  0.00    +0.039 C 
ATOM      4  C   UNL     1      -2.143  -2.888   0.000  0.00  0.00    +0.100 C 
ATOM      5  C   UNL     1      -1.429  -2.475   0.000  0.00  0.00    +0.039 C 
ATOM      6  C   UNL     1      -1.429  -1.650   0.000  0.00  0.00    +0.074 C 
ENDROOT
BRANCH   4   7
ATOM      7  N   UNL     1      -2.143  -3.712   0.000  0.00  0.00    -0.189 NA
ATOM      8  C   UNL     1      -2.858  -4.125   0.000  0.00  0.00    +0.345 C 
ATOM      9  N   UNL     1      -2.858  -4.950   0.000  0.00  0.00    -0.142 NA
ATOM     10  C   UNL     1      -2.143  -5.362   0.000  0.00  0.00    +0.156 A 
ATOM     11  N   UNL     1      -2.143  -6.188   0.000  0.00  0.00    -0.227 NA
ATOM     12  C   UNL     1      -1.429  -6.600   0.000  0.00  0.00    +0.100 A 
ATOM     13  C   UNL     1      -0.715  -6.188   0.000  0.00  0.00    +0.021 A 
ATOM     14  C   UNL     1      -0.715  -5.362   0.000  0.00  0.00    +0.005 A 
ATOM     15  C   UNL     1      -1.429  -4.950   0.000  0.00  0.00    +0.036 A 
ATOM     16  O   UNL     1      -3.572  -3.712   0.000  0.00  0.00    -0.249 OA
ENDBRANCH   4   7
BRANCH   1  17
ATOM     17  C   UNL     1      -2.143  -0.412   0.000  0.00  0.00    +0.160 C 
BRANCH  17  20
ATOM     18  C   UNL     1      -3.572   1.238   0.000  0.00  0.00    +0.139 C 
ATOM     19  N   UNL     1      -2.858   0.825   0.000  0.00  0.00    -0.202 NA
ATOM     20  C   UNL     1      -2.858   0.000   0.000  0.00  0.00    +0.258 C 
ATOM     21  O   UNL     1      -3.572  -0.412   0.000  0.00  0.00    -0.272 OA
ENDBRANCH  17  20
ENDBRANCH   1  17
TORSDOF 3
