REMARK  Name = 
REMARK  3 active torsions:
REMARK  status: ('A' for Active; 'I' for Inactive)
REMARK    1  A    between atoms: C_2  and  C_7
REMARK    2  A    between atoms: N_13  and  C_14
REMARK    3  A    between atoms: C_14  and  C_15
REMARK                            x       y       z     vdW  Elec       q    Type
REMARK                         _______ _______ _______ _____ _____    ______ ____
ROOT
ATOM      1  C   UNL     1       1.902  -1.473   0.000  0.00  0.00    +0.246 C 
ATOM      2  N   UNL     1       2.709  -1.645   0.000  0.00  0.00    -0.159 NA
ATOM      3  C   UNL     1       3.261  -1.032   0.000  0.00  0.00    +0.175 A 
ATOM      4  N   UNL     1       4.082  -1.118   0.000  0.00  0.00    -0.152 NA
ATOM      5  N   UNL     1       4.417  -0.364   0.000  0.00  0.00    -0.239 N 
ATOM      6  C   UNL     1       3.804   0.188   0.000  0.00  0.00    +0.099 A 
ATOM      7  C   UNL     1       3.090  -0.225   0.000  0.00  0.00    +0.058 A 
ATOM      8  O   UNL     1       1.647  -0.689   0.000  0.00  0.00    -0.273 OA
ENDROOT
BRANCH   1  10
ATOM      9  C   UNL     1       0.798  -1.473   0.000  0.00  0.00    +0.009 C 
ATOM     10  C   UNL     1       1.350  -2.086   0.000  0.00  0.00    +0.071 C 
ATOM     11  C   UNL     1       0.683  -2.571   0.000  0.00  0.00    +0.009 C 
ATOM     12  C   UNL     1       0.938  -3.356   0.000  0.00  0.00    +0.000 C 
ATOM     13  C   UNL     1       1.763  -3.356   0.000  0.00  0.00    +0.000 C 
ATOM     14  C   UNL     1       2.018  -2.571   0.000  0.00  0.00    +0.009 C 
ENDBRANCH   1  10
BRANCH   5  15
ATOM     15  C   UNL     1       5.224  -0.193   0.000  0.00  0.00    +0.215 C 
BRANCH  15  16
ATOM     16  C   UNL     1       5.776  -0.806   0.000  0.00  0.00    +0.286 C 
ATOM     17  N   UNL     1       5.521  -1.591   0.000  0.00  0.00    -0.086 NA
ATOM     18  O   UNL     1       6.583  -0.634   0.000  0.00  0.00    -0.269 OA
ENDBRANCH  15  16
ENDBRANCH   5  15
TORSDOF 3
