REMARK  Name = 
REMARK  4 active torsions:
REMARK  status: ('A' for Active; 'I' for Inactive)
REMARK    1  A    between atoms: C_2  and  C_3
REMARK    2  A    between atoms: C_3  and  O_4
REMARK    3  A    between atoms: O_4  and  C_5
REMARK    4  A    between atoms: N_9  and  C_11
REMARK                            x       y       z     vdW  Elec       q    Type
REMARK                         _______ _______ _______ _____ _____    ______ ____
ROOT
ATOM      1  C   UNL     1       0.715  -1.238   0.000  0.00  0.00    +0.135 C 
ATOM      2  C   UNL     1       0.000  -1.650   0.000  0.00  0.00    +0.120 C 
ATOM      3  N   UNL     1       0.000  -2.475   0.000  0.00  0.00    -0.304 N 
ATOM      4  C   UNL     1       0.715  -2.888   0.000  0.00  0.00    +0.091 C 
ATOM      5  C   UNL     1       1.429  -2.475   0.000  0.00  0.00    +0.024 C 
ATOM      6  C   UNL     1       1.429  -1.650   0.000  0.00  0.00    +0.033 C 
ENDROOT
BRANCH   3   7
ATOM      7  C   UNL     1      -0.715  -2.888   0.000  0.00  0.00    +0.062 A 
ATOM      8  C   UNL     1      -1.429  -2.475   0.000  0.00  0.00    +0.090 A 
ATOM      9 CL   UNL     1      -1.429  -1.650   0.000  0.00  0.00    -0.079 Cl
ATOM     10  C   UNL     1      -2.143  -2.888   0.000  0.00  0.00    +0.111 A 
ATOM     11  N   UNL     1      -2.143  -3.712   0.000  0.00  0.00    -0.241 NA
ATOM     12  C   UNL     1      -1.429  -4.125   0.000  0.00  0.00    +0.100 A 
ATOM     13  C   UNL     1      -0.715  -3.712   0.000  0.00  0.00    +0.036 A 
ENDBRANCH   3   7
BRANCH   1  14
ATOM     14  O   UNL     1       0.715  -0.412   0.000  0.00  0.00    -0.352 OA
BRANCH  14  15
ATOM     15  C   UNL     1       1.429   0.000   0.000  0.00  0.00    +0.178 C 
BRANCH  15  17
ATOM     16  O   UNL     1       2.143   1.238   0.000  0.00  0.00    -0.218 OA
ATOM     17  C   UNL     1       1.429   0.825   0.000  0.00  0.00    +0.214 C 
ENDBRANCH  15  17
ENDBRANCH  14  15
ENDBRANCH   1  14
TORSDOF 4
