REMARK  Name = 
REMARK  3 active torsions:
REMARK  status: ('A' for Active; 'I' for Inactive)
REMARK    1  A    between atoms: N_3  and  C_4
REMARK    2  A    between atoms: N_7  and  C_9
REMARK    3  A    between atoms: N_12  and  C_13
REMARK                            x       y       z     vdW  Elec       q    Type
REMARK                         _______ _______ _______ _____ _____    ______ ____
ROOT
ATOM      1  O   UNL     1       3.825  -0.990   0.000  0.00  0.00    -0.249 OA
ATOM      2  C   UNL     1       3.004  -1.076   0.000  0.00  0.00    +0.343 C 
ATOM      3  N   UNL     1       2.519  -0.409   0.000  0.00  0.00    -0.161 NA
ATOM      4  N   UNL     1       2.668  -1.830   0.000  0.00  0.00    -0.187 NA
ENDROOT
BRANCH   3   5
ATOM      5  C   UNL     1       2.855   0.345   0.000  0.00  0.00    +0.078 A 
ATOM      6  C   UNL     1       3.675   0.431   0.000  0.00  0.00    +0.037 A 
ATOM      7  C   UNL     1       4.011   1.185   0.000  0.00  0.00    +0.100 A 
ATOM      8  N   UNL     1       3.526   1.852   0.000  0.00  0.00    -0.242 NA
ATOM      9  C   UNL     1       2.705   1.766   0.000  0.00  0.00    +0.100 A 
ATOM     10  C   UNL     1       2.370   1.012   0.000  0.00  0.00    +0.037 A 
ENDBRANCH   3   5
BRANCH   4  11
ATOM     11  C   UNL     1       3.153  -2.498   0.000  0.00  0.00    +0.114 C 
ATOM     12  C   UNL     1       2.898  -3.282   0.000  0.00  0.00    +0.094 C 
ATOM     13  N   UNL     1       3.566  -3.767   0.000  0.00  0.00    -0.272 NA
ATOM     14  C   UNL     1       4.233  -3.282   0.000  0.00  0.00    +0.074 C 
ATOM     15  C   UNL     1       3.978  -2.498   0.000  0.00  0.00    +0.040 C 
BRANCH  13  16
ATOM     16  C   UNL     1       3.566  -4.592   0.000  0.00  0.00    +0.058 C 
ATOM     17  C   UNL     1       3.153  -5.306   0.000  0.00  0.00    +0.017 C 
ATOM     18  C   UNL     1       3.978  -5.306   0.000  0.00  0.00    +0.017 C 
ENDBRANCH  13  16
ENDBRANCH   4  11
TORSDOF 3
