REMARK  Name = 
REMARK  4 active torsions:
REMARK  status: ('A' for Active; 'I' for Inactive)
REMARK    1  A    between atoms: O_2  and  C_3
REMARK    2  A    between atoms: C_8  and  N_9
REMARK    3  A    between atoms: N_12  and  C_13
REMARK    4  A    between atoms: C_13  and  C_14
REMARK                            x       y       z     vdW  Elec       q    Type
REMARK                         _______ _______ _______ _____ _____    ______ ____
ROOT
ATOM      1  N   UNL     1       2.143  -0.412   0.000  0.00  0.00    -0.156 NA
ATOM      2  C   UNL     1       2.858  -0.825   0.000  0.00  0.00    +0.344 C 
ATOM      3  N   UNL     1       3.572  -0.412   0.000  0.00  0.00    -0.177 NA
ATOM      4  O   UNL     1       2.858  -1.650   0.000  0.00  0.00    -0.249 OA
ENDROOT
BRANCH   1   6
ATOM      5  C   UNL     1       1.429  -1.650   0.000  0.00  0.00    +0.241 A 
ATOM      6  C   UNL     1       1.429  -0.825   0.000  0.00  0.00    +0.128 A 
ATOM      7  C   UNL     1       0.715  -0.412   0.000  0.00  0.00    +0.023 A 
ATOM      8  C   UNL     1       0.000  -0.825   0.000  0.00  0.00    +0.022 A 
ATOM      9  C   UNL     1       0.000  -1.650   0.000  0.00  0.00    +0.102 A 
ATOM     10  N   UNL     1       0.715  -2.062   0.000  0.00  0.00    -0.209 NA
BRANCH   5  12
ATOM     11  C   UNL     1       2.143  -2.888   0.000  0.00  0.00    +0.254 C 
ATOM     12  O   UNL     1       2.143  -2.062   0.000  0.00  0.00    -0.455 OA
ENDBRANCH   5  12
ENDBRANCH   1   6
BRANCH   3  13
ATOM     13  C   UNL     1       4.287  -0.825   0.000  0.00  0.00    +0.201 C 
BRANCH  13  14
ATOM     14  C   UNL     1       5.001  -0.412   0.000  0.00  0.00    +0.248 C 
ATOM     15  N   UNL     1       5.716  -0.825   0.000  0.00  0.00    -0.278 N 
ATOM     16  C   UNL     1       5.802  -1.645   0.000  0.00  0.00    +0.094 C 
ATOM     17  C   UNL     1       6.609  -1.817   0.000  0.00  0.00    +0.023 C 
ATOM     18  C   UNL     1       7.021  -1.103   0.000  0.00  0.00    +0.023 C 
ATOM     19  C   UNL     1       6.469  -0.489   0.000  0.00  0.00    +0.094 C 
ATOM     20  O   UNL     1       5.001   0.412   0.000  0.00  0.00    -0.273 OA
ENDBRANCH  13  14
ENDBRANCH   3  13
TORSDOF 4
