REMARK  Name = 
REMARK  4 active torsions:
REMARK  status: ('A' for Active; 'I' for Inactive)
REMARK    1  A    between atoms: C_2  and  C_3
REMARK    2  A    between atoms: C_5  and  N_6
REMARK    3  A    between atoms: N_9  and  C_10
REMARK    4  A    between atoms: C_12  and  O_14
REMARK                            x       y       z     vdW  Elec       q    Type
REMARK                         _______ _______ _______ _____ _____    ______ ____
ROOT
ATOM      1  N   UNL     1       1.544   4.730   0.000  0.00  0.00    -0.142 NA
ATOM      2  C   UNL     1       0.719   4.730   0.000  0.00  0.00    +0.345 C 
ATOM      3  N   UNL     1       0.307   4.016   0.000  0.00  0.00    -0.189 NA
ATOM      4  O   UNL     1       0.307   5.445   0.000  0.00  0.00    -0.249 OA
ENDROOT
BRANCH   3   5
ATOM      5  C   UNL     1      -0.518   4.016   0.000  0.00  0.00    +0.101 C 
ATOM      6  C   UNL     1      -1.101   4.599   0.000  0.00  0.00    +0.041 C 
ATOM      7  C   UNL     1      -0.670   5.303   0.000  0.00  0.00    +0.004 C 
ATOM      8  C   UNL     1      -1.532   5.303   0.000  0.00  0.00    +0.004 C 
ATOM      9  C   UNL     1      -1.685   4.016   0.000  0.00  0.00    +0.096 C 
ATOM     10  C   UNL     1      -2.268   3.433   0.000  0.00  0.00    +0.030 C 
ATOM     11  C   UNL     1      -1.101   3.433   0.000  0.00  0.00    +0.049 C 
BRANCH   9  12
ATOM     12  O   UNL     1      -2.268   4.599   0.000  0.00  0.00    -0.356 OA
ATOM     13  C   UNL     1      -3.065   4.386   0.000  0.00  0.00    +0.174 C 
ENDBRANCH   9  12
ENDBRANCH   3   5
BRANCH   1  18
ATOM     14  C   UNL     1       2.949   6.338   0.000  0.00  0.00    +0.081 A 
ATOM     15  N   UNL     1       2.235   6.751   0.000  0.00  0.00    -0.172 NA
ATOM     16  N   UNL     1       1.621   6.199   0.000  0.00  0.00    -0.234 N 
ATOM     17  C   UNL     1       0.814   6.370   0.000  0.00  0.00    +0.155 C 
ATOM     18  C   UNL     1       1.957   5.445   0.000  0.00  0.00    +0.154 A 
ATOM     19  C   UNL     1       2.777   5.531   0.000  0.00  0.00    +0.052 A 
BRANCH  14  21
ATOM     20  C   UNL     1       3.789   7.494   0.000  0.00  0.00    +0.007 C 
ATOM     21  C   UNL     1       3.703   6.674   0.000  0.00  0.00    +0.048 C 
ENDBRANCH  14  21
ENDBRANCH   1  18
TORSDOF 4
