REMARK  Name = 
REMARK  3 active torsions:
REMARK  status: ('A' for Active; 'I' for Inactive)
REMARK    1  A    between atoms: C_2  and  N_4
REMARK    2  A    between atoms: C_6  and  C_9
REMARK    3  A    between atoms: C_13  and  C_14
REMARK                            x       y       z     vdW  Elec       q    Type
REMARK                         _______ _______ _______ _____ _____    ______ ____
ROOT
ATOM      1  N   UNL     1       1.256  -1.005   0.000  0.00  0.00    -0.252 N 
ATOM      2  N   UNL     1       0.589  -1.490   0.000  0.00  0.00    -0.168 NA
ATOM      3  C   UNL     1       0.844  -2.275   0.000  0.00  0.00    +0.117 A 
ATOM      4  C   UNL     1       1.669  -2.275   0.000  0.00  0.00    +0.019 A 
ATOM      5  C   UNL     1       1.924  -1.490   0.000  0.00  0.00    +0.092 A 
ENDROOT
BRANCH   4   6
ATOM      6  C   UNL     1       2.154  -2.942   0.000  0.00  0.00    +0.047 C 
ATOM      7  C   UNL     1       1.899  -3.727   0.000  0.00  0.00    +0.056 C 
ATOM      8  C   UNL     1       2.566  -4.212   0.000  0.00  0.00    +0.092 C 
ATOM      9  N   UNL     1       3.234  -3.727   0.000  0.00  0.00    -0.218 NA
ATOM     10  C   UNL     1       2.979  -2.942   0.000  0.00  0.00    +0.093 C 
BRANCH   7  11
ATOM     11  C   UNL     1       1.114  -3.982   0.000  0.00  0.00    +0.184 C 
ATOM     12  O   UNL     1       0.943  -4.789   0.000  0.00  0.00    -0.220 OA
ENDBRANCH   7  11
ENDBRANCH   4   6
BRANCH   1  14
ATOM     13  C   UNL     1       0.542   0.232   0.000  0.00  0.00    +0.026 C 
ATOM     14  C   UNL     1       1.256  -0.180   0.000  0.00  0.00    +0.105 C 
ATOM     15  C   UNL     1       1.971   0.232   0.000  0.00  0.00    +0.026 C 
ENDBRANCH   1  14
TORSDOF 3
