REMARK  Name = 
REMARK  3 active torsions:
REMARK  status: ('A' for Active; 'I' for Inactive)
REMARK    1  A    between atoms: C_2  and  O_3
REMARK    2  A    between atoms: O_3  and  C_4
REMARK    3  A    between atoms: C_6  and  N_7
REMARK                            x       y       z     vdW  Elec       q    Type
REMARK                         _______ _______ _______ _____ _____    ______ ____
ROOT
ATOM      1  C   UNL     1       0.412  -0.171   0.000  0.00  0.00    +0.118 C 
ATOM      2  C   UNL     1       0.996   0.412   0.000  0.00  0.00    +0.044 C 
ATOM      3  C   UNL     1       1.481  -0.255   0.000  0.00  0.00    +0.004 C 
ATOM      4  C   UNL     1       2.265   0.000   0.000  0.00  0.00    +0.000 C 
ATOM      5  C   UNL     1       2.265   0.825   0.000  0.00  0.00    +0.000 C 
ATOM      6  C   UNL     1       1.481   1.080   0.000  0.00  0.00    +0.004 C 
ATOM      7  C   UNL     1       0.412   0.996   0.000  0.00  0.00    +0.102 C 
ATOM      8  C   UNL     1      -0.171   0.412   0.000  0.00  0.00    +0.051 C 
ENDROOT
BRANCH   7   9
ATOM      9  N   UNL     1       0.412   1.821   0.000  0.00  0.00    -0.188 NA
ATOM     10  C   UNL     1       1.127   2.233   0.000  0.00  0.00    +0.345 C 
ATOM     11  N   UNL     1       1.127   3.058   0.000  0.00  0.00    -0.134 NA
ATOM     12  C   UNL     1       1.841   3.471   0.000  0.00  0.00    +0.209 A 
ATOM     13  S   UNL     1       2.595   3.135   0.000  0.00  0.00    -0.027 S 
ATOM     14  C   UNL     1       3.147   3.748   0.000  0.00  0.00    +0.161 A 
ATOM     15  N   UNL     1       2.735   4.463   0.000  0.00  0.00    -0.137 NA
ATOM     16  N   UNL     1       1.928   4.291   0.000  0.00  0.00    -0.123 NA
ATOM     17  O   UNL     1       1.841   1.821   0.000  0.00  0.00    -0.249 OA
ENDBRANCH   7   9
BRANCH   1  18
ATOM     18  O   UNL     1       0.412  -0.996   0.000  0.00  0.00    -0.356 OA
BRANCH  18  20
ATOM     19  C   UNL     1       1.127  -2.233   0.000  0.00  0.00    +0.035 C 
ATOM     20  C   UNL     1       1.127  -1.408   0.000  0.00  0.00    +0.142 C 
ENDBRANCH  18  20
ENDBRANCH   1  18
TORSDOF 3
