REMARK  Name = 
REMARK  4 active torsions:
REMARK  status: ('A' for Active; 'I' for Inactive)
REMARK    1  A    between atoms: O_2  and  C_3
REMARK    2  A    between atoms: C_8  and  N_9
REMARK    3  A    between atoms: N_9  and  C_10
REMARK    4  A    between atoms: C_13  and  C_14
REMARK                            x       y       z     vdW  Elec       q    Type
REMARK                         _______ _______ _______ _____ _____    ______ ____
ROOT
ATOM      1  N   UNL     1       0.715  -1.238   0.000  0.00  0.00    -0.235 NA
ENDROOT
BRANCH   1   3
ATOM      2  C   UNL     1       2.143  -1.238   0.000  0.00  0.00    +0.135 C 
ATOM      3  C   UNL     1       1.429  -1.650   0.000  0.00  0.00    +0.120 C 
ATOM      4  C   UNL     1       1.429  -2.475   0.000  0.00  0.00    +0.024 C 
ATOM      5  C   UNL     1       2.143  -2.888   0.000  0.00  0.00    +0.002 C 
ATOM      6  C   UNL     1       2.858  -2.475   0.000  0.00  0.00    +0.003 C 
ATOM      7  C   UNL     1       2.858  -1.650   0.000  0.00  0.00    +0.031 C 
BRANCH   2   9
ATOM      8  C   UNL     1       2.858   0.000   0.000  0.00  0.00    +0.174 C 
ATOM      9  O   UNL     1       2.143  -0.412   0.000  0.00  0.00    -0.352 OA
ENDBRANCH   2   9
ENDBRANCH   1   3
BRANCH   1  10
ATOM     10  C   UNL     1       0.715  -0.412   0.000  0.00  0.00    +0.085 A 
ATOM     11  C   UNL     1       1.429   0.000   0.000  0.00  0.00    +0.116 A 
ATOM     12  N   UNL     1       1.429   0.825   0.000  0.00  0.00    -0.232 NA
ATOM     13  C   UNL     1       0.715   1.238   0.000  0.00  0.00    +0.149 A 
ATOM     14  C   UNL     1       0.000   0.825   0.000  0.00  0.00    +0.031 A 
ATOM     15  C   UNL     1       0.000   0.000   0.000  0.00  0.00    +0.020 A 
BRANCH  13  16
ATOM     16  C   UNL     1       0.715   2.062   0.000  0.00  0.00    +0.120 C 
ATOM     17  N   UNL     1       0.715   2.888   0.000  0.00  0.00    -0.189 NA
ENDBRANCH  13  16
ENDBRANCH   1  10
TORSDOF 4
