REMARK  Name = 
REMARK  11 active torsions:
REMARK  status: ('A' for Active; 'I' for Inactive)
REMARK    1  A    between atoms: N_1  and  C_7
REMARK    2  A    between atoms: C_6  and  N_14
REMARK    3  A    between atoms: C_10  and  C_15
REMARK    4  A    between atoms: C_10  and  C_16
REMARK    5  A    between atoms: N_14  and  C_22
REMARK    6  A    between atoms: N_14  and  C_23
REMARK    7  A    between atoms: O_21  and  C_26
REMARK    8  A    between atoms: O_21  and  C_27
REMARK    9  A    between atoms: C_22  and  C_24
REMARK   10  A    between atoms: C_23  and  C_26
REMARK   11  A    between atoms: C_25  and  C_27
REMARK                            x       y       z     vdW  Elec       q    Type
REMARK                         _______ _______ _______ _____ _____    ______ ____
ROOT
ATOM      1  N   UNL     1       4.641  -2.007   0.000  0.00  0.00    -0.296 N 
ATOM      2  C   UNL     1       4.570  -2.830   0.000  0.00  0.00    +0.180 A 
ATOM      3  N   UNL     1       3.764  -3.017   0.000  0.00  0.00    -0.219 NA
ATOM      4  C   UNL     1       3.339  -2.312   0.000  0.00  0.00    +0.149 A 
ATOM      5  C   UNL     1       2.529  -2.154   0.000  0.00  0.00    +0.154 A 
ATOM      6  N   UNL     1       2.258  -1.373   0.000  0.00  0.00    -0.207 NA
ATOM      7  C   UNL     1       2.800  -0.751   0.000  0.00  0.00    +0.201 A 
ATOM      8  N   UNL     1       3.610  -0.906   0.000  0.00  0.00    -0.205 NA
ATOM      9  C   UNL     1       3.881  -1.686   0.000  0.00  0.00    +0.167 A 
ENDROOT
BRANCH   1  10
ATOM     10  C   UNL     1       5.350  -1.582   0.000  0.00  0.00    +0.089 C 
ATOM     11  C   UNL     1       6.152  -1.778   0.000  0.00  0.00    +0.028 C 
ATOM     12  C   UNL     1       6.348  -0.977   0.000  0.00  0.00    +0.065 C 
ATOM     13  C   UNL     1       5.546  -0.780   0.000  0.00  0.00    +0.028 C 
BRANCH  12  14
ATOM     14  C   UNL     1       6.548  -0.175   0.000  0.00  0.00    +0.185 C 
ATOM     15  O   UNL     1       5.951   0.396   0.000  0.00  0.00    -0.220 OA
ENDBRANCH  12  14
BRANCH  12  16
ATOM     16  C   UNL     1       7.153  -1.177   0.000  0.00  0.00    +0.185 C 
ATOM     17  O   UNL     1       7.383  -1.970   0.000  0.00  0.00    -0.220 OA
ENDBRANCH  12  16
ENDBRANCH   1  10
BRANCH   5  18
ATOM     18  N   UNL     1       1.986  -2.780   0.000  0.00  0.00    -0.287 N 
BRANCH  18  19
ATOM     19  C   UNL     1       1.177  -2.625   0.000  0.00  0.00    +0.124 C 
BRANCH  19  20
ATOM     20  C   UNL     1       0.634  -3.247   0.000  0.00  0.00    +0.164 C 
BRANCH  20  21
ATOM     21  O   UNL     1      -0.175  -3.092   0.000  0.00  0.00    -0.349 OA
BRANCH  21  22
ATOM     22  C   UNL     1      -0.718  -3.719   0.000  0.00  0.00    +0.178 C 
BRANCH  22  23
ATOM     23  C   UNL     1      -1.528  -3.560   0.000  0.00  0.00    +0.214 C 
ATOM     24  O   UNL     1      -2.070  -4.186   0.000  0.00  0.00    -0.218 OA
ENDBRANCH  22  23
ENDBRANCH  21  22
ENDBRANCH  20  21
ENDBRANCH  19  20
ENDBRANCH  18  19
BRANCH  18  25
ATOM     25  C   UNL     1       2.258  -3.560   0.000  0.00  0.00    +0.128 C 
BRANCH  25  26
ATOM     26  C   UNL     1       3.067  -3.719   0.000  0.00  0.00    +0.203 C 
ATOM     27  O   UNL     1       3.339  -4.499   0.000  0.00  0.00    -0.219 OA
ENDBRANCH  25  26
ENDBRANCH  18  25
ENDBRANCH   5  18
TORSDOF 11
