REMARK  Name = 
REMARK  5 active torsions:
REMARK  status: ('A' for Active; 'I' for Inactive)
REMARK    1  A    between atoms: C_7  and  N_8
REMARK    2  A    between atoms: C_9  and  C_11
REMARK    3  A    between atoms: C_11  and  N_12
REMARK    4  A    between atoms: C_15  and  C_16
REMARK    5  A    between atoms: N_19  and  C_20
REMARK                            x       y       z     vdW  Elec       q    Type
REMARK                         _______ _______ _______ _____ _____    ______ ____
ROOT
ATOM      1  N   UNL     1       1.841   4.014   0.000  0.00  0.00    -0.239 N 
ATOM      2  C   UNL     1       1.841   3.189   0.000  0.00  0.00    +0.334 A 
ATOM      3  O   UNL     1       1.127   2.777   0.000  0.00  0.00    -0.246 OA
ATOM      4  N   UNL     1       2.556   2.777   0.000  0.00  0.00    -0.281 N 
ATOM      5  C   UNL     1       3.270   3.189   0.000  0.00  0.00    +0.095 A 
ATOM      6  C   UNL     1       3.270   4.014   0.000  0.00  0.00    +0.142 A 
ATOM      7  C   UNL     1       2.556   4.427   0.000  0.00  0.00    +0.276 A 
ATOM      8  O   UNL     1       2.556   5.252   0.000  0.00  0.00    -0.266 OA
ENDROOT
BRANCH   4   9
ATOM      9  C   UNL     1       2.556   1.952   0.000  0.00  0.00    +0.090 C 
ATOM     10  C   UNL     1       2.143   1.238   0.000  0.00  0.00    +0.025 C 
ATOM     11  C   UNL     1       2.968   1.238   0.000  0.00  0.00    +0.025 C 
ENDBRANCH   4   9
BRANCH   6  12
ATOM     12  C   UNL     1       3.985   4.427   0.000  0.00  0.00    +0.107 C 
ATOM     13  N   UNL     1       4.699   4.840   0.000  0.00  0.00    -0.191 NA
ENDBRANCH   6  12
BRANCH   1  14
ATOM     14  C   UNL     1       1.127   4.427   0.000  0.00  0.00    +0.200 C 
BRANCH  14  16
ATOM     15  N   UNL     1      -0.302   4.427   0.000  0.00  0.00    -0.206 NA
ATOM     16  C   UNL     1       0.412   4.014   0.000  0.00  0.00    +0.265 C 
ATOM     17  O   UNL     1       0.412   3.189   0.000  0.00  0.00    -0.271 OA
BRANCH  15  20
ATOM     18  C   UNL     1      -0.302   2.777   0.000  0.00  0.00    +0.002 C 
ATOM     19  C   UNL     1      -1.016   3.189   0.000  0.00  0.00    +0.020 C 
ATOM     20  C   UNL     1      -1.016   4.014   0.000  0.00  0.00    +0.095 C 
ATOM     21  C   UNL     1      -1.731   4.427   0.000  0.00  0.00    +0.022 C 
ATOM     22  C   UNL     1      -2.445   4.014   0.000  0.00  0.00    +0.002 C 
ATOM     23  C   UNL     1      -2.445   3.189   0.000  0.00  0.00    +0.000 C 
ATOM     24  C   UNL     1      -1.731   2.777   0.000  0.00  0.00    +0.002 C 
ENDBRANCH  15  20
ENDBRANCH  14  16
ENDBRANCH   1  14
TORSDOF 5
