REMARK  Name = 
REMARK  3 active torsions:
REMARK  status: ('A' for Active; 'I' for Inactive)
REMARK    1  A    between atoms: N_2  and  C_14
REMARK    2  A    between atoms: C_5  and  N_9
REMARK    3  A    between atoms: C_14  and  C_19
REMARK                            x       y       z     vdW  Elec       q    Type
REMARK                         _______ _______ _______ _____ _____    ______ ____
ROOT
ATOM      1  C   UNL     1       5.133  -0.454   0.000  0.00  0.00    +0.149 A 
ATOM      2  C   UNL     1       5.850  -0.042   0.000  0.00  0.00    +0.154 A 
ATOM      3  N   UNL     1       6.562  -0.454   0.000  0.00  0.00    -0.207 NA
ATOM      4  C   UNL     1       6.562  -1.279   0.000  0.00  0.00    +0.201 A 
ATOM      5  N   UNL     1       5.850  -1.692   0.000  0.00  0.00    -0.205 NA
ATOM      6  N   UNL     1       4.350  -0.200   0.000  0.00  0.00    -0.219 NA
ATOM      7  C   UNL     1       3.867  -0.867   0.000  0.00  0.00    +0.180 A 
ATOM      8  N   UNL     1       4.350  -1.533   0.000  0.00  0.00    -0.292 N 
ATOM      9  C   UNL     1       5.133  -1.279   0.000  0.00  0.00    +0.167 A 
ENDROOT
BRANCH   2  10
ATOM     10  N   UNL     1       5.850   0.783   0.000  0.00  0.00    -0.292 N 
ATOM     11  C   UNL     1       5.133   1.196   0.000  0.00  0.00    +0.094 C 
ATOM     12  C   UNL     1       5.133   2.021   0.000  0.00  0.00    +0.042 C 
ATOM     13  C   UNL     1       5.850   2.433   0.000  0.00  0.00    +0.085 C 
ATOM     14  C   UNL     1       6.562   2.021   0.000  0.00  0.00    +0.042 C 
ATOM     15  C   UNL     1       6.517   2.917   0.000  0.00  0.00    +0.135 C 
ATOM     16  N   UNL     1       6.263   3.700   0.000  0.00  0.00    -0.187 NA
ATOM     17  C   UNL     1       5.438   3.700   0.000  0.00  0.00    +0.323 C 
ATOM     18  O   UNL     1       4.954   4.367   0.000  0.00  0.00    -0.251 OA
ATOM     19  N   UNL     1       5.183   2.917   0.000  0.00  0.00    -0.262 N 
ATOM     20  C   UNL     1       4.396   2.663   0.000  0.00  0.00    +0.116 C 
ATOM     21  C   UNL     1       6.562   1.196   0.000  0.00  0.00    +0.094 C 
ENDBRANCH   2  10
BRANCH   8  22
ATOM     22  C   UNL     1       4.096  -2.321   0.000  0.00  0.00    +0.139 C 
BRANCH  22  23
ATOM     23  C   UNL     1       4.646  -2.933   0.000  0.00  0.00    +0.152 C 
ATOM     24  O   UNL     1       3.950  -3.371   0.000  0.00  0.00    -0.223 OA
ATOM     25  C   UNL     1       5.154  -2.283   0.000  0.00  0.00    +0.064 C 
ATOM     26  C   UNL     1       5.971  -2.396   0.000  0.00  0.00    +0.145 C 
ATOM     27  O   UNL     1       6.283  -3.163   0.000  0.00  0.00    -0.354 OA
ATOM     28  C   UNL     1       5.775  -3.812   0.000  0.00  0.00    +0.145 C 
ATOM     29  C   UNL     1       4.958  -3.696   0.000  0.00  0.00    +0.064 C 
ENDBRANCH  22  23
ENDBRANCH   8  22
TORSDOF 3
