REMARK  Name = 
REMARK  3 active torsions:
REMARK  status: ('A' for Active; 'I' for Inactive)
REMARK    1  A    between atoms: C_2  and  C_3
REMARK    2  A    between atoms: C_3  and  N_4
REMARK    3  A    between atoms: N_12  and  C_13
REMARK                            x       y       z     vdW  Elec       q    Type
REMARK                         _______ _______ _______ _____ _____    ______ ____
ROOT
ATOM      1  C   UNL     1      -2.037  -0.474   0.000  0.00  0.00    +0.197 C 
ENDROOT
BRANCH   1   2
ATOM      2  N   UNL     1      -2.751  -0.062   0.000  0.00  0.00    -0.269 N 
ATOM      3  C   UNL     1      -2.751   0.763   0.000  0.00  0.00    +0.353 A 
ATOM      4  O   UNL     1      -2.037   1.176   0.000  0.00  0.00    -0.244 OA
ATOM      5  N   UNL     1      -3.466   1.176   0.000  0.00  0.00    -0.153 NA
ATOM      6  C   UNL     1      -4.180   0.763   0.000  0.00  0.00    +0.285 A 
ATOM      7  O   UNL     1      -4.895   1.176   0.000  0.00  0.00    -0.265 OA
ATOM      8  C   UNL     1      -4.180  -0.062   0.000  0.00  0.00    +0.081 A 
ATOM      9  C   UNL     1      -3.466  -0.474   0.000  0.00  0.00    +0.085 A 
ENDBRANCH   1   2
BRANCH   1  11
ATOM     10  O   UNL     1      -2.751  -1.712   0.000  0.00  0.00    -0.271 OA
ATOM     11  C   UNL     1      -2.037  -1.299   0.000  0.00  0.00    +0.265 C 
ATOM     12  N   UNL     1      -1.322  -1.712   0.000  0.00  0.00    -0.206 NA
BRANCH  12  13
ATOM     13  C   UNL     1      -1.322  -2.537   0.000  0.00  0.00    +0.095 C 
ATOM     14  C   UNL     1      -1.990  -3.022   0.000  0.00  0.00    +0.022 C 
ATOM     15  C   UNL     1      -1.735  -3.806   0.000  0.00  0.00    +0.002 C 
ATOM     16  C   UNL     1      -0.910  -3.806   0.000  0.00  0.00    +0.002 C 
ATOM     17  C   UNL     1      -0.655  -3.022   0.000  0.00  0.00    +0.022 C 
ENDBRANCH  12  13
ENDBRANCH   1  11
TORSDOF 3
