REMARK  Name = 
REMARK  5 active torsions:
REMARK  status: ('A' for Active; 'I' for Inactive)
REMARK    1  A    between atoms: C_2  and  N_4
REMARK    2  A    between atoms: N_3  and  C_11
REMARK    3  A    between atoms: C_7  and  C_17
REMARK    4  A    between atoms: C_9  and  C_11
REMARK    5  A    between atoms: C_17  and  C_25
REMARK                            x       y       z     vdW  Elec       q    Type
REMARK                         _______ _______ _______ _____ _____    ______ ____
ROOT
ATOM      1  C   UNL     1       2.562   0.825   0.000  0.00  0.00    +0.149 A 
ATOM      2  N   UNL     1       1.779   1.083   0.000  0.00  0.00    -0.219 NA
ATOM      3  C   UNL     1       1.292   0.412   0.000  0.00  0.00    +0.180 A 
ATOM      4  N   UNL     1       1.779  -0.254   0.000  0.00  0.00    -0.292 N 
ATOM      5  C   UNL     1       2.562   0.000   0.000  0.00  0.00    +0.167 A 
ATOM      6  N   UNL     1       3.275  -0.412   0.000  0.00  0.00    -0.205 NA
ATOM      7  C   UNL     1       3.992   0.000   0.000  0.00  0.00    +0.201 A 
ATOM      8  N   UNL     1       3.992   0.825   0.000  0.00  0.00    -0.207 NA
ATOM      9  C   UNL     1       3.275   1.238   0.000  0.00  0.00    +0.155 A 
ENDROOT
BRANCH   9  10
ATOM     10  N   UNL     1       3.275   2.062   0.000  0.00  0.00    -0.284 N 
ATOM     11  C   UNL     1       2.562   2.475   0.000  0.00  0.00    +0.116 C 
ATOM     12  C   UNL     1       2.562   3.300   0.000  0.00  0.00    +0.137 C 
ATOM     13  N   UNL     1       3.275   3.712   0.000  0.00  0.00    -0.202 NA
ATOM     14  C   UNL     1       3.992   3.300   0.000  0.00  0.00    +0.259 C 
ATOM     15  O   UNL     1       4.704   3.712   0.000  0.00  0.00    -0.272 OA
ATOM     16  C   UNL     1       3.992   2.475   0.000  0.00  0.00    +0.153 C 
BRANCH  16  17
ATOM     17  C   UNL     1       4.704   2.062   0.000  0.00  0.00    +0.029 C 
BRANCH  17  18
ATOM     18  C   UNL     1       5.421   2.475   0.000  0.00  0.00    +0.002 C 
ATOM     19  C   UNL     1       6.133   2.062   0.000  0.00  0.00    +0.000 C 
ATOM     20  C   UNL     1       5.421   3.300   0.000  0.00  0.00    +0.000 C 
ENDBRANCH  17  18
ENDBRANCH  16  17
ENDBRANCH   9  10
BRANCH   4  21
ATOM     21  C   UNL     1       1.521  -1.038   0.000  0.00  0.00    +0.142 C 
BRANCH  21  22
ATOM     22  C   UNL     1       2.075  -1.650   0.000  0.00  0.00    +0.174 C 
ATOM     23  O   UNL     1       1.408  -2.138   0.000  0.00  0.00    -0.221 OA
ATOM     24  C   UNL     1       2.625  -1.038   0.000  0.00  0.00    +0.067 C 
ATOM     25  C   UNL     1       3.379  -1.375   0.000  0.00  0.00    +0.145 C 
ATOM     26  O   UNL     1       3.296  -2.192   0.000  0.00  0.00    -0.354 OA
ATOM     27  C   UNL     1       2.487  -2.367   0.000  0.00  0.00    +0.145 C 
ATOM     28  C   UNL     1       2.150  -3.117   0.000  0.00  0.00    +0.035 C 
ENDBRANCH  21  22
ENDBRANCH   4  21
TORSDOF 5
