REMARK  Name = 
REMARK  2 active torsions:
REMARK  status: ('A' for Active; 'I' for Inactive)
REMARK    1  A    between atoms: C_9  and  C_10
REMARK    2  A    between atoms: C_10  and  C_11
REMARK                            x       y       z     vdW  Elec       q    Type
REMARK                         _______ _______ _______ _____ _____    ______ ____
ROOT
ATOM      1  C   UNL     1       0.715   2.062   0.000  0.00  0.00    +0.052 C 
ATOM      2  C   UNL     1       0.715   1.238   0.000  0.00  0.00    +0.063 A 
ATOM      3  C   UNL     1       0.000   0.825   0.000  0.00  0.00    +0.052 A 
ATOM      4  C   UNL     1       0.000   0.000   0.000  0.00  0.00    +0.279 A 
ATOM      5  O   UNL     1      -0.715  -0.412   0.000  0.00  0.00    -0.265 OA
ATOM      6  N   UNL     1       0.715  -0.412   0.000  0.00  0.00    -0.173 NA
ATOM      7  C   UNL     1       1.429   0.000   0.000  0.00  0.00    +0.259 A 
ATOM      8  N   UNL     1       2.143  -0.412   0.000  0.00  0.00    -0.086 NA
ATOM      9  N   UNL     1       1.429   0.825   0.000  0.00  0.00    -0.216 NA
ENDROOT
BRANCH   3  10
ATOM     10  C   UNL     1      -0.715   1.238   0.000  0.00  0.00    +0.068 C 
BRANCH  10  11
ATOM     11  C   UNL     1      -0.715   2.062   0.000  0.00  0.00    +0.187 C 
ATOM     12  O   UNL     1      -1.429   2.475   0.000  0.00  0.00    -0.220 OA
ENDBRANCH  10  11
ENDBRANCH   3  10
TORSDOF 2
