REMARK  Name = 
REMARK  7 active torsions:
REMARK  status: ('A' for Active; 'I' for Inactive)
REMARK    1  A    between atoms: C_2  and  C_3
REMARK    2  A    between atoms: C_3  and  S_4
REMARK    3  A    between atoms: S_4  and  N_7
REMARK    4  A    between atoms: N_7  and  C_9
REMARK    5  A    between atoms: C_9  and  C_10
REMARK    6  A    between atoms: C_10  and  C_12
REMARK    7  A    between atoms: C_12  and  N_13
REMARK                            x       y       z     vdW  Elec       q    Type
REMARK                         _______ _______ _______ _____ _____    ______ ____
ROOT
ATOM      1  C   UNL     1       0.884  -2.150   0.000  0.00  0.00    +0.142 C 
ENDROOT
BRANCH   1   2
ATOM      2  N   UNL     1       1.139  -1.365   0.000  0.00  0.00    -0.306 N 
ATOM      3  C   UNL     1       1.923  -1.110   0.000  0.00  0.00    +0.079 A 
ATOM      4  C   UNL     1       1.923  -0.285   0.000  0.00  0.00    +0.098 A 
ATOM      5  C   UNL     1       2.638   0.127   0.000  0.00  0.00    +0.016 A 
ATOM      6  C   UNL     1       3.352  -0.285   0.000  0.00  0.00    -0.024 A 
ATOM      7  C   UNL     1       3.352  -1.110   0.000  0.00  0.00    -0.024 A 
ATOM      8  C   UNL     1       4.067  -1.523   0.000  0.00  0.00    +0.031 C 
ATOM      9  C   UNL     1       4.067   0.127   0.000  0.00  0.00    +0.031 C 
ATOM     10  N   UNL     1       1.139  -0.030   0.000  0.00  0.00    -0.224 NA
ATOM     11  C   UNL     1       2.638  -1.523   0.000  0.00  0.00    +0.014 A 
ATOM     12  C   UNL     1       0.654  -0.698   0.000  0.00  0.00    +0.179 A 
ENDBRANCH   1   2
BRANCH   1  13
ATOM     13  C   UNL     1       0.077  -2.321   0.000  0.00  0.00    +0.192 C 
ATOM     14  O   UNL     1      -0.475  -1.708   0.000  0.00  0.00    -0.219 OA
BRANCH  13  15
ATOM     15  C   UNL     1      -0.178  -3.106   0.000  0.00  0.00    +0.130 C 
BRANCH  15  16
ATOM     16  N   UNL     1      -0.985  -3.278   0.000  0.00  0.00    -0.155 NA
ATOM     17  C   UNL     1      -1.537  -2.665   0.000  0.00  0.00    +0.115 C 
BRANCH  16  18
ATOM     18  S   UNL     1      -1.240  -4.062   0.000  0.00  0.00    +0.044 S 
ATOM     19  O   UNL     1      -2.025  -3.807   0.000  0.00  0.00    -0.157 OA
ATOM     20  O   UNL     1      -0.455  -4.317   0.000  0.00  0.00    -0.157 OA
BRANCH  18  21
ATOM     21  C   UNL     1      -1.495  -4.847   0.000  0.00  0.00    +0.169 C 
BRANCH  21  23
ATOM     22  C   UNL     1      -2.557  -5.803   0.000  0.00  0.00    +0.002 C 
ATOM     23  C   UNL     1      -2.302  -5.018   0.000  0.00  0.00    +0.027 C 
ENDBRANCH  21  23
ENDBRANCH  18  21
ENDBRANCH  16  18
ENDBRANCH  15  16
ENDBRANCH  13  15
ENDBRANCH   1  13
TORSDOF 7
