REMARK  Name = 
REMARK  7 active torsions:
REMARK  status: ('A' for Active; 'I' for Inactive)
REMARK    1  A    between atoms: O_2  and  C_3
REMARK    2  A    between atoms: C_3  and  C_4
REMARK    3  A    between atoms: C_4  and  N_5
REMARK    4  A    between atoms: C_6  and  S_7
REMARK    5  A    between atoms: S_7  and  C_8
REMARK    6  A    between atoms: C_8  and  C_9
REMARK    7  A    between atoms: N_11  and  C_12
REMARK                            x       y       z     vdW  Elec       q    Type
REMARK                         _______ _______ _______ _____ _____    ______ ____
ROOT
ATOM      1  N   UNL     1      -2.858  -1.650   0.000  0.00  0.00    -0.273 N 
ATOM      2  C   UNL     1      -2.858  -2.475   0.000  0.00  0.00    +0.267 A 
ATOM      3  O   UNL     1      -3.572  -2.888   0.000  0.00  0.00    -0.267 OA
ATOM      4  C   UNL     1      -2.143  -2.888   0.000  0.00  0.00    +0.123 A 
ATOM      5  C   UNL     1      -1.429  -2.475   0.000  0.00  0.00    +0.286 A 
ATOM      6  O   UNL     1      -0.715  -2.888   0.000  0.00  0.00    -0.265 OA
ATOM      7  N   UNL     1      -1.429  -1.650   0.000  0.00  0.00    -0.184 NA
ATOM      8  C   UNL     1      -2.143  -1.238   0.000  0.00  0.00    +0.177 A 
ENDROOT
BRANCH   1   9
ATOM      9  C   UNL     1      -3.572  -1.238   0.000  0.00  0.00    +0.143 C 
BRANCH   9  10
ATOM     10  C   UNL     1      -4.287  -1.650   0.000  0.00  0.00    +0.167 C 
BRANCH  10  12
ATOM     11  C   UNL     1      -5.716  -1.650   0.000  0.00  0.00    +0.174 C 
ATOM     12  O   UNL     1      -5.001  -1.238   0.000  0.00  0.00    -0.349 OA
ENDBRANCH  10  12
ENDBRANCH   9  10
ENDBRANCH   1   9
BRANCH   8  13
ATOM     13  S   UNL     1      -2.143  -0.412   0.000  0.00  0.00    -0.067 S 
BRANCH  13  14
ATOM     14  C   UNL     1      -1.429   0.000   0.000  0.00  0.00    +0.152 C 
BRANCH  14  15
ATOM     15  C   UNL     1      -0.715  -0.412   0.000  0.00  0.00    +0.253 C 
ATOM     16  N   UNL     1       0.000   0.000   0.000  0.00  0.00    -0.206 NA
ATOM     17  O   UNL     1      -0.715  -1.238   0.000  0.00  0.00    -0.272 OA
BRANCH  16  18
ATOM     18  C   UNL     1       0.715  -0.412   0.000  0.00  0.00    +0.095 C 
ATOM     19  C   UNL     1       0.801  -1.233   0.000  0.00  0.00    +0.022 C 
ATOM     20  C   UNL     1       1.608  -1.405   0.000  0.00  0.00    +0.002 C 
ATOM     21  C   UNL     1       2.020  -0.690   0.000  0.00  0.00    +0.002 C 
ATOM     22  C   UNL     1       1.468  -0.077   0.000  0.00  0.00    +0.022 C 
ENDBRANCH  16  18
ENDBRANCH  14  15
ENDBRANCH  13  14
ENDBRANCH   8  13
TORSDOF 7
