REMARK  Name = 
REMARK  5 active torsions:
REMARK  status: ('A' for Active; 'I' for Inactive)
REMARK    1  A    between atoms: N_4  and  C_5
REMARK    2  A    between atoms: C_10  and  C_11
REMARK    3  A    between atoms: C_11  and  C_12
REMARK    4  A    between atoms: N_14  and  C_15
REMARK    5  A    between atoms: C_15  and  C_18
REMARK                            x       y       z     vdW  Elec       q    Type
REMARK                         _______ _______ _______ _____ _____    ______ ____
ROOT
ATOM      1  C   UNL     1       0.568   1.939   0.000  0.00  0.00    +0.054 C 
ATOM      2  C   UNL     1       0.568   1.114   0.000  0.00  0.00    +0.077 A 
ATOM      3  C   UNL     1      -0.100   0.629   0.000  0.00  0.00    +0.016 A 
ATOM      4  C   UNL     1       0.155  -0.155   0.000  0.00  0.00    +0.059 A 
ATOM      5  C   UNL     1      -0.330  -0.823   0.000  0.00  0.00    +0.052 C 
ATOM      6  N   UNL     1       0.980  -0.155   0.000  0.00  0.00    -0.197 N 
ATOM      7  N   UNL     1       1.235   0.629   0.000  0.00  0.00    -0.170 NA
ENDROOT
BRANCH   6   8
ATOM      8  C   UNL     1       1.465  -0.823   0.000  0.00  0.00    +0.429 C 
ATOM      9  F   UNL     1       1.130  -1.576   0.000  0.00  0.00    -0.171 F 
ATOM     10  F   UNL     1       2.286  -0.737   0.000  0.00  0.00    -0.171 F 
ENDBRANCH   6   8
BRANCH   3  11
ATOM     11  C   UNL     1      -0.884   0.884   0.000  0.00  0.00    +0.115 C 
BRANCH  11  12
ATOM     12  C   UNL     1      -1.056   1.691   0.000  0.00  0.00    +0.246 C 
ATOM     13  N   UNL     1      -1.841   1.946   0.000  0.00  0.00    -0.198 NA
ATOM     14  O   UNL     1      -0.443   2.243   0.000  0.00  0.00    -0.273 OA
BRANCH  13  15
ATOM     15  C   UNL     1      -2.012   2.753   0.000  0.00  0.00    +0.172 C 
ATOM     16  C   UNL     1      -2.819   2.582   0.000  0.00  0.00    +0.033 C 
ATOM     17  C   UNL     1      -1.205   2.925   0.000  0.00  0.00    +0.033 C 
BRANCH  15  18
ATOM     18  C   UNL     1      -2.183   3.560   0.000  0.00  0.00    +0.382 C 
ATOM     19  O   UNL     1      -1.570   4.112   0.000  0.00  0.00    -0.244 OA
ATOM     20  O   UNL     1      -2.968   3.815   0.000  0.00  0.00    -0.244 OA
ENDBRANCH  15  18
ENDBRANCH  13  15
ENDBRANCH  11  12
ENDBRANCH   3  11
TORSDOF 5
