REMARK  Name = 
REMARK  2 active torsions:
REMARK  status: ('A' for Active; 'I' for Inactive)
REMARK    1  A    between atoms: N_12  and  C_13
REMARK    2  A    between atoms: C_13  and  C_14
REMARK                            x       y       z     vdW  Elec       q    Type
REMARK                         _______ _______ _______ _____ _____    ______ ____
ROOT
ATOM      1  C   UNL     1      -0.171  -0.698   0.000  0.00  0.00    +0.050 C 
ATOM      2  C   UNL     1       0.654  -0.698   0.000  0.00  0.00    +0.035 A 
ATOM      3  N   UNL     1       1.139  -1.365   0.000  0.00  0.00    -0.314 N 
ATOM      4  C   UNL     1       1.923  -1.110   0.000  0.00  0.00    +0.148 A 
ATOM      5  C   UNL     1       1.923  -0.285   0.000  0.00  0.00    +0.066 A 
ATOM      6  C   UNL     1       2.638   0.127   0.000  0.00  0.00    +0.174 A 
ATOM      7  N   UNL     1       3.352  -0.285   0.000  0.00  0.00    -0.206 NA
ATOM      8  C   UNL     1       3.352  -1.110   0.000  0.00  0.00    +0.201 A 
ATOM      9  N   UNL     1       2.638   0.952   0.000  0.00  0.00    -0.107 NA
ATOM     10  N   UNL     1       2.638  -1.523   0.000  0.00  0.00    -0.206 NA
ATOM     11  C   UNL     1       1.139  -0.030   0.000  0.00  0.00    -0.004 A 
ATOM     12  C   UNL     1       0.884   0.754   0.000  0.00  0.00    +0.032 C 
ENDROOT
BRANCH   3  13
ATOM     13  C   UNL     1       0.884  -2.150   0.000  0.00  0.00    +0.136 C 
BRANCH  13  14
ATOM     14  C   UNL     1       0.077  -2.321   0.000  0.00  0.00    +0.138 C 
ATOM     15  O   UNL     1      -0.536  -1.770   0.000  0.00  0.00    -0.354 OA
ATOM     16  C   UNL     1      -1.251  -2.182   0.000  0.00  0.00    +0.142 C 
ATOM     17  C   UNL     1      -1.079  -2.989   0.000  0.00  0.00    +0.035 C 
ATOM     18  C   UNL     1      -0.259  -3.075   0.000  0.00  0.00    +0.034 C 
ENDBRANCH  13  14
ENDBRANCH   3  13
TORSDOF 2
