REMARK  Name = 
REMARK  7 active torsions:
REMARK  status: ('A' for Active; 'I' for Inactive)
REMARK    1  A    between atoms: C_2  and  C_4
REMARK    2  A    between atoms: C_4  and  N_5
REMARK    3  A    between atoms: C_6  and  S_7
REMARK    4  A    between atoms: S_7  and  C_8
REMARK    5  A    between atoms: C_8  and  C_9
REMARK    6  A    between atoms: N_11  and  C_12
REMARK    7  A    between atoms: C_17  and  C_18
REMARK                            x       y       z     vdW  Elec       q    Type
REMARK                         _______ _______ _______ _____ _____    ______ ____
ROOT
ATOM      1  N   UNL     1      -2.803  -1.872   0.000  0.00  0.00    -0.285 N 
ATOM      2  C   UNL     1      -2.548  -2.656   0.000  0.00  0.00    +0.144 A 
ATOM      3  N   UNL     1      -1.723  -2.656   0.000  0.00  0.00    -0.133 NA
ATOM      4  N   UNL     1      -1.468  -1.872   0.000  0.00  0.00    -0.122 NA
ATOM      5  C   UNL     1      -2.136  -1.387   0.000  0.00  0.00    +0.194 A 
ENDROOT
BRANCH   2   6
ATOM      6  C   UNL     1      -3.033  -3.324   0.000  0.00  0.00    +0.059 C 
ATOM      7  C   UNL     1      -3.787  -3.659   0.000  0.00  0.00    +0.008 C 
ATOM      8  C   UNL     1      -3.119  -4.144   0.000  0.00  0.00    +0.008 C 
ENDBRANCH   2   6
BRANCH   1   9
ATOM      9  C   UNL     1      -3.588  -1.617   0.000  0.00  0.00    +0.198 C 
BRANCH   9  11
ATOM     10  N   UNL     1      -4.985  -1.914   0.000  0.00  0.00    -0.086 NA
ATOM     11  C   UNL     1      -4.201  -2.169   0.000  0.00  0.00    +0.284 C 
ATOM     12  O   UNL     1      -4.029  -2.976   0.000  0.00  0.00    -0.270 OA
ENDBRANCH   9  11
ENDBRANCH   1   9
BRANCH   5  13
ATOM     13  S   UNL     1      -2.136  -0.562   0.000  0.00  0.00    -0.066 S 
BRANCH  13  14
ATOM     14  C   UNL     1      -1.421  -0.149   0.000  0.00  0.00    +0.152 C 
BRANCH  14  15
ATOM     15  C   UNL     1      -0.707  -0.562   0.000  0.00  0.00    +0.253 C 
ATOM     16  N   UNL     1       0.008  -0.149   0.000  0.00  0.00    -0.206 NA
ATOM     17  O   UNL     1      -0.707  -1.387   0.000  0.00  0.00    -0.272 OA
BRANCH  16  18
ATOM     18  C   UNL     1       0.722  -0.562   0.000  0.00  0.00    +0.095 C 
ATOM     19  C   UNL     1       1.135  -1.276   0.000  0.00  0.00    +0.023 C 
ATOM     20  C   UNL     1       1.547  -0.562   0.000  0.00  0.00    +0.023 C 
ENDBRANCH  16  18
ENDBRANCH  14  15
ENDBRANCH  13  14
ENDBRANCH   5  13
TORSDOF 7
