REMARK  Name = 
REMARK  4 active torsions:
REMARK  status: ('A' for Active; 'I' for Inactive)
REMARK    1  A    between atoms: C_2  and  C_4
REMARK    2  A    between atoms: C_4  and  N_5
REMARK    3  A    between atoms: C_8  and  N_11
REMARK    4  A    between atoms: N_14  and  C_15
REMARK                            x       y       z     vdW  Elec       q    Type
REMARK                         _______ _______ _______ _____ _____    ______ ____
ROOT
ATOM      1  N   UNL     1       1.536   8.065   0.000  0.00  0.00    -0.269 NA
ATOM      2  C   UNL     1       0.821   8.478   0.000  0.00  0.00    +0.074 C 
ATOM      3  C   UNL     1       0.107   8.065   0.000  0.00  0.00    +0.039 C 
ATOM      4  C   UNL     1       0.107   7.240   0.000  0.00  0.00    +0.100 C 
ATOM      5  C   UNL     1       0.821   6.828   0.000  0.00  0.00    +0.039 C 
ATOM      6  C   UNL     1       1.536   7.240   0.000  0.00  0.00    +0.074 C 
ENDROOT
BRANCH   4   7
ATOM      7  N   UNL     1      -0.608   6.828   0.000  0.00  0.00    -0.189 NA
ATOM      8  C   UNL     1      -0.608   6.003   0.000  0.00  0.00    +0.344 C 
ATOM      9  N   UNL     1      -1.322   5.590   0.000  0.00  0.00    -0.158 NA
ATOM     10  O   UNL     1       0.107   5.590   0.000  0.00  0.00    -0.249 OA
BRANCH   9  11
ATOM     11  C   UNL     1      -1.322   4.765   0.000  0.00  0.00    +0.114 A 
ATOM     12  C   UNL     1      -1.990   4.280   0.000  0.00  0.00    +0.113 A 
ATOM     13  N   UNL     1      -1.735   3.496   0.000  0.00  0.00    -0.246 N 
ATOM     14  C   UNL     1      -2.220   2.828   0.000  0.00  0.00    +0.154 C 
ATOM     15  N   UNL     1      -0.910   3.496   0.000  0.00  0.00    -0.166 NA
ATOM     16  C   UNL     1      -0.655   4.280   0.000  0.00  0.00    +0.138 A 
ENDBRANCH   9  11
ENDBRANCH   4   7
BRANCH   1  17
ATOM     17  C   UNL     1       2.250   8.478   0.000  0.00  0.00    +0.095 C 
BRANCH  17  19
ATOM     18  C   UNL     1       2.965   9.715   0.000  0.00  0.00    +0.028 C 
ATOM     19  C   UNL     1       2.250   9.303   0.000  0.00  0.00    -0.028 C 
ATOM     20  C   UNL     1       1.536   9.715   0.000  0.00  0.00    -0.008 C 
ENDBRANCH  17  19
ENDBRANCH   1  17
TORSDOF 4
