REMARK  Name = 
REMARK  6 active torsions:
REMARK  status: ('A' for Active; 'I' for Inactive)
REMARK    1  A    between atoms: C_7  and  O_8
REMARK    2  A    between atoms: O_8  and  C_9
REMARK    3  A    between atoms: C_9  and  C_10
REMARK    4  A    between atoms: C_10  and  N_11
REMARK    5  A    between atoms: C_12  and  C_21
REMARK    6  A    between atoms: C_15  and  C_16
REMARK                            x       y       z     vdW  Elec       q    Type
REMARK                         _______ _______ _______ _____ _____    ______ ____
ROOT
ATOM      1  N   UNL     1      -5.001  -2.888   0.000  0.00  0.00    -0.288 N 
ATOM      2  C   UNL     1      -5.716  -2.475   0.000  0.00  0.00    +0.265 A 
ATOM      3  O   UNL     1      -5.716  -1.650   0.000  0.00  0.00    -0.267 OA
ATOM      4  C   UNL     1      -6.430  -2.888   0.000  0.00  0.00    +0.113 A 
ATOM      5  C   UNL     1      -6.430  -3.712   0.000  0.00  0.00    +0.011 A 
ATOM      6  C   UNL     1      -5.716  -4.125   0.000  0.00  0.00    +0.021 A 
ATOM      7  C   UNL     1      -5.001  -3.712   0.000  0.00  0.00    +0.134 A 
ENDROOT
BRANCH   7   8
ATOM      8  C   UNL     1      -4.287  -4.125   0.000  0.00  0.00    +0.433 C 
ATOM      9  F   UNL     1      -3.874  -3.410   0.000  0.00  0.00    -0.164 F 
ATOM     10  F   UNL     1      -4.699  -4.840   0.000  0.00  0.00    -0.164 F 
ATOM     11  F   UNL     1      -3.572  -4.537   0.000  0.00  0.00    -0.164 F 
ENDBRANCH   7   8
BRANCH   4  12
ATOM     12  C   UNL     1      -7.145  -2.475   0.000  0.00  0.00    +0.289 C 
ATOM     13  N   UNL     1      -7.145  -1.650   0.000  0.00  0.00    -0.084 NA
ATOM     14  O   UNL     1      -7.859  -2.888   0.000  0.00  0.00    -0.266 OA
ENDBRANCH   4  12
BRANCH   1  15
ATOM     15  C   UNL     1      -4.287  -2.475   0.000  0.00  0.00    +0.156 C 
BRANCH  15  16
ATOM     16  C   UNL     1      -3.572  -2.888   0.000  0.00  0.00    +0.230 C 
BRANCH  16  17
ATOM     17  O   UNL     1      -2.858  -2.475   0.000  0.00  0.00    -0.474 OA
BRANCH  17  20
ATOM     18  C   UNL     1      -1.429  -1.650   0.000  0.00  0.00    +0.034 C 
ATOM     19  C   UNL     1      -1.429  -2.475   0.000  0.00  0.00    +0.012 A 
ATOM     20  C   UNL     1      -2.143  -2.888   0.000  0.00  0.00    +0.135 A 
ATOM     21  C   UNL     1      -2.143  -3.712   0.000  0.00  0.00    +0.037 A 
ATOM     22  C   UNL     1      -1.429  -4.125   0.000  0.00  0.00    +0.003 A 
ATOM     23  C   UNL     1      -0.715  -3.712   0.000  0.00  0.00    -0.000 A 
ATOM     24  C   UNL     1      -0.715  -2.888   0.000  0.00  0.00    -0.001 A 
ENDBRANCH  17  20
ENDBRANCH  16  17
ENDBRANCH  15  16
ENDBRANCH   1  15
TORSDOF 6
