REMARK  Name = 
REMARK  7 active torsions:
REMARK  status: ('A' for Active; 'I' for Inactive)
REMARK    1  A    between atoms: O_2  and  C_3
REMARK    2  A    between atoms: C_3  and  C_4
REMARK    3  A    between atoms: C_4  and  N_5
REMARK    4  A    between atoms: N_8  and  C_9
REMARK    5  A    between atoms: C_9  and  C_10
REMARK    6  A    between atoms: C_10  and  C_12
REMARK    7  A    between atoms: C_12  and  N_13
REMARK                            x       y       z     vdW  Elec       q    Type
REMARK                         _______ _______ _______ _____ _____    ______ ____
ROOT
ATOM      1  C   UNL     1       0.077  -2.321   0.000  0.00  0.00    +0.190 C 
ATOM      2  O   UNL     1      -0.475  -1.708   0.000  0.00  0.00    -0.220 OA
ENDROOT
BRANCH   1   3
ATOM      3  C   UNL     1       0.884  -2.150   0.000  0.00  0.00    +0.142 C 
BRANCH   3   4
ATOM      4  N   UNL     1       1.139  -1.365   0.000  0.00  0.00    -0.306 N 
ATOM      5  C   UNL     1       1.923  -1.110   0.000  0.00  0.00    +0.079 A 
ATOM      6  C   UNL     1       1.923  -0.285   0.000  0.00  0.00    +0.098 A 
ATOM      7  C   UNL     1       2.638   0.127   0.000  0.00  0.00    +0.016 A 
ATOM      8  C   UNL     1       3.352  -0.285   0.000  0.00  0.00    -0.024 A 
ATOM      9  C   UNL     1       3.352  -1.110   0.000  0.00  0.00    -0.024 A 
ATOM     10  C   UNL     1       4.067  -1.523   0.000  0.00  0.00    +0.031 C 
ATOM     11  C   UNL     1       4.067   0.127   0.000  0.00  0.00    +0.031 C 
ATOM     12  N   UNL     1       1.139  -0.030   0.000  0.00  0.00    -0.224 NA
ATOM     13  C   UNL     1       2.638  -1.523   0.000  0.00  0.00    +0.014 A 
ATOM     14  C   UNL     1       0.654  -0.698   0.000  0.00  0.00    +0.179 A 
ENDBRANCH   3   4
ENDBRANCH   1   3
BRANCH   1  15
ATOM     15  C   UNL     1      -0.178  -3.106   0.000  0.00  0.00    +0.107 C 
BRANCH  15  19
ATOM     16  N   UNL     1      -2.599  -3.621   0.000  0.00  0.00    -0.268 NA
ATOM     17  C   UNL     1      -2.047  -4.234   0.000  0.00  0.00    +0.090 C 
ATOM     18  C   UNL     1      -1.240  -4.062   0.000  0.00  0.00    +0.090 C 
ATOM     19  N   UNL     1      -0.985  -3.278   0.000  0.00  0.00    -0.268 NA
ATOM     20  C   UNL     1      -1.537  -2.665   0.000  0.00  0.00    +0.090 C 
ATOM     21  C   UNL     1      -2.344  -2.836   0.000  0.00  0.00    +0.090 C 
BRANCH  16  22
ATOM     22  C   UNL     1      -3.406  -3.792   0.000  0.00  0.00    +0.105 C 
BRANCH  22  23
ATOM     23  C   UNL     1      -3.661  -4.577   0.000  0.00  0.00    +0.160 C 
BRANCH  23  25
ATOM     24  C   UNL     1      -4.723  -5.533   0.000  0.00  0.00    +0.174 C 
ATOM     25  O   UNL     1      -4.468  -4.748   0.000  0.00  0.00    -0.350 OA
ENDBRANCH  23  25
ENDBRANCH  22  23
ENDBRANCH  16  22
ENDBRANCH  15  19
ENDBRANCH   1  15
TORSDOF 7
