REMARK  Name = 
REMARK  5 active torsions:
REMARK  status: ('A' for Active; 'I' for Inactive)
REMARK    1  A    between atoms: C_2  and  N_3
REMARK    2  A    between atoms: C_7  and  C_8
REMARK    3  A    between atoms: C_8  and  N_9
REMARK    4  A    between atoms: C_10  and  C_12
REMARK    5  A    between atoms: C_12  and  N_14
REMARK                            x       y       z     vdW  Elec       q    Type
REMARK                         _______ _______ _______ _____ _____    ______ ____
ROOT
ATOM      1  N   UNL     1       2.102  -1.996   0.000  0.00  0.00    -0.202 NA
ATOM      2  C   UNL     1       2.816  -2.408   0.000  0.00  0.00    +0.264 C 
ATOM      3  O   UNL     1       2.816  -3.233   0.000  0.00  0.00    -0.271 OA
ENDROOT
BRANCH   2   4
ATOM      4  C   UNL     1       3.530  -1.996   0.000  0.00  0.00    +0.184 C 
ATOM      5  C   UNL     1       3.530  -1.171   0.000  0.00  0.00    +0.036 C 
BRANCH   4   6
ATOM      6  N   UNL     1       4.245  -2.408   0.000  0.00  0.00    -0.223 N 
ATOM      7  N   UNL     1       4.331  -3.229   0.000  0.00  0.00    -0.145 NA
ATOM      8  C   UNL     1       5.138  -3.400   0.000  0.00  0.00    +0.221 A 
ATOM      9  N   UNL     1       5.551  -2.686   0.000  0.00  0.00    -0.201 NA
ATOM     10  C   UNL     1       4.999  -2.073   0.000  0.00  0.00    +0.198 A 
ENDBRANCH   4   6
ENDBRANCH   2   4
BRANCH   1  11
ATOM     11  C   UNL     1       1.387  -2.408   0.000  0.00  0.00    +0.131 C 
BRANCH  11  13
ATOM     12  N   UNL     1      -0.081  -2.331   0.000  0.00  0.00    -0.272 NA
ATOM     13  C   UNL     1       0.672  -1.996   0.000  0.00  0.00    +0.079 C 
ATOM     14  C   UNL     1       0.586  -1.175   0.000  0.00  0.00    +0.019 C 
ATOM     15  C   UNL     1      -0.221  -1.004   0.000  0.00  0.00    +0.019 C 
ATOM     16  C   UNL     1      -0.633  -1.718   0.000  0.00  0.00    +0.072 C 
BRANCH  12  18
ATOM     17  C   UNL     1      -1.037  -3.393   0.000  0.00  0.00    +0.019 C 
ATOM     18  C   UNL     1      -0.253  -3.138   0.000  0.00  0.00    +0.072 C 
ENDBRANCH  12  18
ENDBRANCH  11  13
ENDBRANCH   1  11
TORSDOF 5
