REMARK  Name = 
REMARK  5 active torsions:
REMARK  status: ('A' for Active; 'I' for Inactive)
REMARK    1  A    between atoms: C_2  and  C_5
REMARK    2  A    between atoms: N_9  and  C_10
REMARK    3  A    between atoms: C_10  and  C_11
REMARK    4  A    between atoms: N_13  and  C_14
REMARK    5  A    between atoms: N_17  and  C_19
REMARK                            x       y       z     vdW  Elec       q    Type
REMARK                         _______ _______ _______ _____ _____    ______ ____
ROOT
ATOM      1  C   UNL     1       2.989  10.282   0.000  0.00  0.00    +0.196 C 
ENDROOT
BRANCH   1   5
ATOM      2  C   UNL     1       3.175  12.457   0.000  0.00  0.00    +0.127 A 
ATOM      3  C   UNL     1       2.839  11.703   0.000  0.00  0.00    +0.265 A 
ATOM      4  O   UNL     1       2.019  11.617   0.000  0.00  0.00    -0.267 OA
ATOM      5  N   UNL     1       3.324  11.035   0.000  0.00  0.00    -0.285 N 
ATOM      6  C   UNL     1       4.144  11.122   0.000  0.00  0.00    +0.079 A 
ATOM      7  C   UNL     1       4.480  11.875   0.000  0.00  0.00    +0.019 A 
ATOM      8  C   UNL     1       3.995  12.543   0.000  0.00  0.00    +0.010 A 
BRANCH   2  10
ATOM      9  F   UNL     1       2.205  13.791   0.000  0.00  0.00    -0.166 F 
ATOM     10  C   UNL     1       2.690  13.124   0.000  0.00  0.00    +0.423 C 
ATOM     11  F   UNL     1       3.357  13.609   0.000  0.00  0.00    -0.166 F 
ATOM     12  F   UNL     1       2.022  12.639   0.000  0.00  0.00    -0.166 F 
ENDBRANCH   2  10
ENDBRANCH   1   5
BRANCH   1  13
ATOM     13  C   UNL     1       3.473   9.614   0.000  0.00  0.00    +0.265 C 
ATOM     14  N   UNL     1       3.138   8.861   0.000  0.00  0.00    -0.204 NA
ATOM     15  O   UNL     1       4.294   9.700   0.000  0.00  0.00    -0.271 OA
BRANCH  14  16
ATOM     16  C   UNL     1       3.623   8.193   0.000  0.00  0.00    +0.113 C 
ATOM     17  C   UNL     1       3.368   7.409   0.000  0.00  0.00    +0.094 C 
ATOM     18  N   UNL     1       4.035   6.924   0.000  0.00  0.00    -0.272 NA
ATOM     19  C   UNL     1       4.703   7.409   0.000  0.00  0.00    +0.074 C 
ATOM     20  C   UNL     1       4.448   8.193   0.000  0.00  0.00    +0.040 C 
BRANCH  18  21
ATOM     21  C   UNL     1       4.035   6.099   0.000  0.00  0.00    +0.058 C 
ATOM     22  C   UNL     1       3.623   5.384   0.000  0.00  0.00    +0.017 C 
ATOM     23  C   UNL     1       4.448   5.384   0.000  0.00  0.00    +0.017 C 
ENDBRANCH  18  21
ENDBRANCH  14  16
ENDBRANCH   1  13
TORSDOF 5
