REMARK  Name = 
REMARK  7 active torsions:
REMARK  status: ('A' for Active; 'I' for Inactive)
REMARK    1  A    between atoms: N_1  and  C_10
REMARK    2  A    between atoms: N_2  and  C_9
REMARK    3  A    between atoms: C_7  and  C_14
REMARK    4  A    between atoms: N_8  and  C_13
REMARK    5  A    between atoms: C_10  and  C_11
REMARK    6  A    between atoms: N_16  and  C_24
REMARK    7  A    between atoms: C_21  and  O_27
REMARK                            x       y       z     vdW  Elec       q    Type
REMARK                         _______ _______ _______ _____ _____    ______ ____
ROOT
ATOM      1  C   UNL     1       1.321   5.588   0.000  0.00  0.00    +0.269 C 
ATOM      2  O   UNL     1       2.033   6.000   0.000  0.00  0.00    -0.271 OA
ATOM      3  N   UNL     1       0.604   6.000   0.000  0.00  0.00    -0.178 NA
ENDROOT
BRANCH   3   4
ATOM      4  C   UNL     1       0.604   6.825   0.000  0.00  0.00    +0.073 A 
ATOM      5  C   UNL     1       1.321   7.237   0.000  0.00  0.00    +0.017 A 
ATOM      6  C   UNL     1       1.321   8.062   0.000  0.00  0.00    +0.006 A 
ATOM      7  C   UNL     1       0.604   8.475   0.000  0.00  0.00    +0.055 A 
ATOM      8  C   UNL     1      -0.108   8.062   0.000  0.00  0.00    +0.006 A 
ATOM      9  C   UNL     1      -0.108   7.237   0.000  0.00  0.00    +0.017 A 
BRANCH   7  10
ATOM     10  C   UNL     1       0.604   9.300   0.000  0.00  0.00    +0.269 C 
ATOM     11  O   UNL     1       1.321   9.713   0.000  0.00  0.00    -0.268 OA
ATOM     12  N   UNL     1      -0.108   9.713   0.000  0.00  0.00    -0.172 NA
BRANCH  12  13
ATOM     13  C   UNL     1      -0.108  10.537   0.000  0.00  0.00    +0.107 A 
ATOM     14  C   UNL     1       0.604  10.950   0.000  0.00  0.00    +0.020 A 
ATOM     15  C   UNL     1       0.604  11.775   0.000  0.00  0.00    +0.002 A 
ATOM     16  C   UNL     1      -0.108  12.188   0.000  0.00  0.00    +0.003 A 
ATOM     17  C   UNL     1      -0.825  11.775   0.000  0.00  0.00    +0.038 A 
ATOM     18  C   UNL     1      -0.825  10.950   0.000  0.00  0.00    +0.154 A 
BRANCH  18  19
ATOM     19  O   UNL     1      -1.538  10.537   0.000  0.00  0.00    -0.470 OA
ATOM     20  C   UNL     1      -2.254  10.950   0.000  0.00  0.00    +0.253 C 
ENDBRANCH  18  19
ENDBRANCH  12  13
ENDBRANCH   7  10
ENDBRANCH   3   4
BRANCH   1  21
ATOM     21  C   UNL     1       1.321   4.763   0.000  0.00  0.00    +0.201 C 
BRANCH  21  22
ATOM     22  N   UNL     1       2.033   4.350   0.000  0.00  0.00    -0.238 N 
ATOM     23  C   UNL     1       2.750   4.763   0.000  0.00  0.00    +0.294 A 
ATOM     24  O   UNL     1       2.750   5.588   0.000  0.00  0.00    -0.264 OA
ATOM     25  C   UNL     1       3.462   4.350   0.000  0.00  0.00    +0.213 A 
ATOM     26  C   UNL     1       3.462   3.529   0.000  0.00  0.00    +0.116 A 
ATOM     27  N   UNL     1       2.750   3.117   0.000  0.00  0.00    -0.255 N 
ATOM     28  F   UNL     1       4.179   4.763   0.000  0.00  0.00    -0.198 F 
ATOM     29  C   UNL     1       2.033   3.529   0.000  0.00  0.00    +0.336 A 
ATOM     30  O   UNL     1       1.321   3.117   0.000  0.00  0.00    -0.246 OA
BRANCH  27  31
ATOM     31  C   UNL     1       2.750   2.292   0.000  0.00  0.00    +0.208 C 
ATOM     32  C   UNL     1       3.417   1.808   0.000  0.00  0.00    +0.057 C 
ATOM     33  C   UNL     1       3.163   1.021   0.000  0.00  0.00    +0.037 C 
ATOM     34  C   UNL     1       2.337   1.021   0.000  0.00  0.00    +0.144 C 
ATOM     35  O   UNL     1       2.083   1.808   0.000  0.00  0.00    -0.335 OA
ENDBRANCH  27  31
ENDBRANCH  21  22
ENDBRANCH   1  21
TORSDOF 7
