REMARK  Name = 
REMARK  3 active torsions:
REMARK  status: ('A' for Active; 'I' for Inactive)
REMARK    1  A    between atoms: N_7  and  C_8
REMARK    2  A    between atoms: C_8  and  C_9
REMARK    3  A    between atoms: C_9  and  N_10
REMARK                            x       y       z     vdW  Elec       q    Type
REMARK                         _______ _______ _______ _____ _____    ______ ____
ROOT
ATOM      1  C   UNL     1       0.715   2.062   0.000  0.00  0.00    +0.096 C 
ENDROOT
BRANCH   1   7
ATOM      2  C   UNL     1      -2.143  -0.412   0.000  0.00  0.00    +0.095 C 
ATOM      3  C   UNL     1      -2.143   0.412   0.000  0.00  0.00    +0.226 C 
ATOM      4  N   UNL     1      -1.429   0.825   0.000  0.00  0.00    -0.277 N 
ATOM      5  C   UNL     1      -0.715   0.412   0.000  0.00  0.00    +0.111 C 
ATOM      6  C   UNL     1       0.000   0.825   0.000  0.00  0.00    +0.094 C 
ATOM      7  N   UNL     1       0.000   1.650   0.000  0.00  0.00    -0.268 NA
ATOM      8  C   UNL     1      -0.715   2.062   0.000  0.00  0.00    +0.094 C 
ATOM      9  C   UNL     1      -1.429   1.650   0.000  0.00  0.00    +0.111 C 
ATOM     10  O   UNL     1      -2.858   0.825   0.000  0.00  0.00    -0.275 OA
ENDBRANCH   1   7
BRANCH   1  11
ATOM     11  C   UNL     1       1.429   1.650   0.000  0.00  0.00    +0.134 C 
BRANCH  11  12
ATOM     12  N   UNL     1       2.143   2.062   0.000  0.00  0.00    -0.185 NA
ATOM     13  C   UNL     1       2.858   1.650   0.000  0.00  0.00    +0.345 C 
ATOM     14  N   UNL     1       3.572   2.062   0.000  0.00  0.00    -0.134 NA
ATOM     15  C   UNL     1       4.287   1.650   0.000  0.00  0.00    +0.209 A 
ATOM     16  S   UNL     1       4.373   0.830   0.000  0.00  0.00    -0.027 S 
ATOM     17  C   UNL     1       5.180   0.658   0.000  0.00  0.00    +0.161 A 
ATOM     18  N   UNL     1       5.593   1.373   0.000  0.00  0.00    -0.137 NA
ATOM     19  N   UNL     1       5.040   1.986   0.000  0.00  0.00    -0.123 NA
ATOM     20  O   UNL     1       2.858   0.825   0.000  0.00  0.00    -0.249 OA
ENDBRANCH  11  12
ENDBRANCH   1  11
TORSDOF 3
