REMARK  Name = 
REMARK  3 active torsions:
REMARK  status: ('A' for Active; 'I' for Inactive)
REMARK    1  A    between atoms: C_2  and  C_3
REMARK    2  A    between atoms: N_9  and  C_10
REMARK    3  A    between atoms: C_12  and  C_13
REMARK                            x       y       z     vdW  Elec       q    Type
REMARK                         _______ _______ _______ _____ _____    ______ ____
ROOT
ATOM      1  C   UNL     1       3.595  -1.611   0.000  0.00  0.00    +0.063 A 
ATOM      2  C   UNL     1       2.928  -2.096   0.000  0.00  0.00    +0.024 A 
ATOM      3  C   UNL     1       2.143  -1.841   0.000  0.00  0.00    +0.039 C 
ATOM      4  S   UNL     1       3.182  -2.881   0.000  0.00  0.00    -0.054 S 
ATOM      5  C   UNL     1       4.007  -2.881   0.000  0.00  0.00    +0.187 A 
ATOM      6  N   UNL     1       4.492  -3.548   0.000  0.00  0.00    -0.136 NA
ATOM      7  C   UNL     1       4.157  -4.302   0.000  0.00  0.00    +0.345 C 
ATOM      8  N   UNL     1       4.642  -4.970   0.000  0.00  0.00    -0.184 NA
ATOM      9  O   UNL     1       3.336  -4.388   0.000  0.00  0.00    -0.249 OA
ATOM     10  N   UNL     1       4.262  -2.096   0.000  0.00  0.00    -0.227 NA
ENDROOT
BRANCH   8  11
ATOM     11  C   UNL     1       4.306  -5.723   0.000  0.00  0.00    +0.119 C 
ATOM     12  C   UNL     1       3.499  -5.895   0.000  0.00  0.00    -0.009 C 
ATOM     13  C   UNL     1       3.413  -6.715   0.000  0.00  0.00    -0.027 C 
ATOM     14  C   UNL     1       4.167  -7.051   0.000  0.00  0.00    +0.057 C 
ATOM     15  C   UNL     1       4.719  -6.438   0.000  0.00  0.00    +0.033 C 
BRANCH  14  16
ATOM     16  C   UNL     1       4.338  -7.858   0.000  0.00  0.00    +0.186 C 
ATOM     17  O   UNL     1       5.123  -8.113   0.000  0.00  0.00    -0.220 OA
ENDBRANCH  14  16
ENDBRANCH   8  11
BRANCH   1  19
ATOM     18  C   UNL     1       2.880  -0.374   0.000  0.00  0.00    +0.007 C 
ATOM     19  C   UNL     1       3.595  -0.786   0.000  0.00  0.00    +0.046 C 
ENDBRANCH   1  19
TORSDOF 3
