REMARK  Name = 
REMARK  5 active torsions:
REMARK  status: ('A' for Active; 'I' for Inactive)
REMARK    1  A    between atoms: C_4  and  C_6
REMARK    2  A    between atoms: C_6  and  C_7
REMARK    3  A    between atoms: N_15  and  C_16
REMARK    4  A    between atoms: C_16  and  C_17
REMARK    5  A    between atoms: C_17  and  C_18
REMARK                            x       y       z     vdW  Elec       q    Type
REMARK                         _______ _______ _______ _____ _____    ______ ____
ROOT
ATOM      1  C   UNL     1      -1.429  -1.650   0.000  0.00  0.00    +0.012 C 
ATOM      2  C   UNL     1      -1.429  -2.475   0.000  0.00  0.00    +0.022 C 
ATOM      3  C   UNL     1      -0.715  -2.888   0.000  0.00  0.00    +0.095 C 
ATOM      4  N   UNL     1       0.000  -2.475   0.000  0.00  0.00    -0.263 N 
ATOM      5  C   UNL     1       0.715  -2.888   0.000  0.00  0.00    +0.323 C 
ATOM      6  N   UNL     1       1.429  -2.475   0.000  0.00  0.00    -0.188 NA
ATOM      7  O   UNL     1       0.715  -3.712   0.000  0.00  0.00    -0.251 OA
ATOM      8  C   UNL     1       0.000  -1.650   0.000  0.00  0.00    +0.095 C 
ATOM      9  C   UNL     1      -0.715  -1.238   0.000  0.00  0.00    +0.022 C 
ENDROOT
BRANCH   1  10
ATOM     10  C   UNL     1      -2.143  -1.238   0.000  0.00  0.00    +0.085 C 
BRANCH  10  13
ATOM     11  C   UNL     1      -4.287  -1.650   0.000  0.00  0.00    +0.115 C 
ATOM     12  N   UNL     1      -3.572  -1.238   0.000  0.00  0.00    -0.276 N 
ATOM     13  C   UNL     1      -2.858  -1.650   0.000  0.00  0.00    +0.226 C 
ATOM     14  O   UNL     1      -2.858  -2.475   0.000  0.00  0.00    -0.275 OA
ATOM     15  C   UNL     1      -3.572  -0.412   0.000  0.00  0.00    +0.115 C 
ENDBRANCH  10  13
ENDBRANCH   1  10
BRANCH   6  16
ATOM     16  C   UNL     1       2.143  -2.888   0.000  0.00  0.00    +0.121 C 
BRANCH  16  17
ATOM     17  C   UNL     1       2.858  -2.475   0.000  0.00  0.00    +0.050 C 
BRANCH  17  18
ATOM     18  C   UNL     1       3.572  -2.888   0.000  0.00  0.00    -0.021 A 
ATOM     19  C   UNL     1       3.572  -3.712   0.000  0.00  0.00    -0.007 A 
ATOM     20  C   UNL     1       2.858  -4.125   0.000  0.00  0.00    +0.032 C 
ATOM     21  C   UNL     1       4.287  -4.125   0.000  0.00  0.00    +0.094 A 
ATOM     22  N   UNL     1       5.001  -3.712   0.000  0.00  0.00    -0.243 NA
ATOM     23  C   UNL     1       5.001  -2.888   0.000  0.00  0.00    +0.099 A 
ATOM     24  C   UNL     1       4.287  -2.475   0.000  0.00  0.00    +0.016 A 
ENDBRANCH  17  18
ENDBRANCH  16  17
ENDBRANCH   6  16
TORSDOF 5
