REMARK  Name = 
REMARK  5 active torsions:
REMARK  status: ('A' for Active; 'I' for Inactive)
REMARK    1  A    between atoms: C_5  and  C_6
REMARK    2  A    between atoms: C_6  and  C_7
REMARK    3  A    between atoms: C_7  and  N_8
REMARK    4  A    between atoms: N_11  and  C_12
REMARK    5  A    between atoms: C_12  and  C_13
REMARK                            x       y       z     vdW  Elec       q    Type
REMARK                         _______ _______ _______ _____ _____    ______ ____
ROOT
ATOM      1  N   UNL     1       4.287  -4.950   0.000  0.00  0.00    -0.187 NA
ATOM      2  C   UNL     1       5.001  -5.362   0.000  0.00  0.00    +0.340 C 
ATOM      3  N   UNL     1       5.716  -4.950   0.000  0.00  0.00    -0.177 NA
ATOM      4  O   UNL     1       5.001  -6.188   0.000  0.00  0.00    -0.249 OA
ENDROOT
BRANCH   1   5
ATOM      5  C   UNL     1       3.572  -5.362   0.000  0.00  0.00    +0.122 C 
BRANCH   5   6
ATOM      6  C   UNL     1       2.858  -4.950   0.000  0.00  0.00    +0.051 C 
BRANCH   6  11
ATOM      7  C   UNL     1       0.000  -6.600   0.000  0.00  0.00    +0.052 C 
ATOM      8  C   UNL     1       0.715  -6.188   0.000  0.00  0.00    +0.059 A 
ATOM      9  N   UNL     1       1.429  -6.600   0.000  0.00  0.00    -0.248 NA
ATOM     10  C   UNL     1       2.143  -6.188   0.000  0.00  0.00    +0.094 A 
ATOM     11  C   UNL     1       2.143  -5.362   0.000  0.00  0.00    -0.001 A 
ATOM     12  C   UNL     1       1.429  -4.950   0.000  0.00  0.00    -0.001 A 
ATOM     13  C   UNL     1       0.715  -5.362   0.000  0.00  0.00    +0.014 A 
ENDBRANCH   6  11
ENDBRANCH   5   6
ENDBRANCH   1   5
BRANCH   3  14
ATOM     14  C   UNL     1       6.430  -5.362   0.000  0.00  0.00    +0.201 C 
BRANCH  14  15
ATOM     15  C   UNL     1       7.145  -4.950   0.000  0.00  0.00    +0.248 C 
ATOM     16  N   UNL     1       7.859  -5.362   0.000  0.00  0.00    -0.278 N 
ATOM     17  C   UNL     1       7.859  -6.188   0.000  0.00  0.00    +0.093 C 
ATOM     18  C   UNL     1       8.574  -6.600   0.000  0.00  0.00    +0.022 C 
ATOM     19  C   UNL     1       9.288  -6.188   0.000  0.00  0.00    +0.004 C 
ATOM     20  C   UNL     1       9.288  -5.362   0.000  0.00  0.00    +0.022 C 
ATOM     21  C   UNL     1       8.574  -4.950   0.000  0.00  0.00    +0.093 C 
ATOM     22  O   UNL     1       7.145  -4.125   0.000  0.00  0.00    -0.273 OA
ENDBRANCH  14  15
ENDBRANCH   3  14
TORSDOF 5
