REMARK  Name = 
REMARK  4 active torsions:
REMARK  status: ('A' for Active; 'I' for Inactive)
REMARK    1  A    between atoms: C_2  and  C_3
REMARK    2  A    between atoms: N_10  and  C_11
REMARK    3  A    between atoms: C_11  and  C_12
REMARK    4  A    between atoms: C_16  and  C_17
REMARK                            x       y       z     vdW  Elec       q    Type
REMARK                         _______ _______ _______ _____ _____    ______ ____
ROOT
ATOM      1  C   UNL     1      -1.580  -3.429   0.000  0.00  0.00    +0.067 A 
ATOM      2  N   UNL     1      -0.773  -3.258   0.000  0.00  0.00    -0.227 NA
ATOM      3  C   UNL     1      -0.686  -2.437   0.000  0.00  0.00    +0.187 A 
ATOM      4  N   UNL     1       0.028  -2.025   0.000  0.00  0.00    -0.136 NA
ATOM      5  C   UNL     1       0.743  -2.437   0.000  0.00  0.00    +0.345 C 
ATOM      6  N   UNL     1       1.457  -2.025   0.000  0.00  0.00    -0.187 NA
ATOM      7  O   UNL     1       0.743  -3.262   0.000  0.00  0.00    -0.249 OA
ATOM      8  S   UNL     1      -1.440  -2.102   0.000  0.00  0.00    -0.049 S 
ATOM      9  C   UNL     1      -1.992  -2.715   0.000  0.00  0.00    +0.053 A 
ENDROOT
BRANCH   1  11
ATOM     10  C   UNL     1      -2.736  -4.269   0.000  0.00  0.00    +0.007 C 
ATOM     11  C   UNL     1      -1.915  -4.183   0.000  0.00  0.00    +0.046 C 
ENDBRANCH   1  11
BRANCH   6  12
ATOM     12  C   UNL     1       2.171  -2.437   0.000  0.00  0.00    +0.119 C 
BRANCH  12  13
ATOM     13  C   UNL     1       2.886  -2.025   0.000  0.00  0.00    +0.051 C 
ATOM     14  C   UNL     1       3.640  -2.360   0.000  0.00  0.00    +0.117 C 
ATOM     15  O   UNL     1       4.192  -1.747   0.000  0.00  0.00    -0.356 OA
ATOM     16  C   UNL     1       3.779  -1.033   0.000  0.00  0.00    +0.142 C 
ATOM     17  C   UNL     1       2.972  -1.204   0.000  0.00  0.00    +0.036 C 
BRANCH  14  18
ATOM     18  C   UNL     1       3.811  -3.167   0.000  0.00  0.00    +0.027 C 
ATOM     19  C   UNL     1       3.198  -3.719   0.000  0.00  0.00    +0.002 C 
ATOM     20  C   UNL     1       4.596  -3.422   0.000  0.00  0.00    +0.002 C 
ENDBRANCH  14  18
ENDBRANCH  12  13
ENDBRANCH   6  12
TORSDOF 4
