REMARK  Name = 
REMARK  4 active torsions:
REMARK  status: ('A' for Active; 'I' for Inactive)
REMARK    1  A    between atoms: N_5  and  C_6
REMARK    2  A    between atoms: C_6  and  C_7
REMARK    3  A    between atoms: C_7  and  N_8
REMARK    4  A    between atoms: N_11  and  C_12
REMARK                            x       y       z     vdW  Elec       q    Type
REMARK                         _______ _______ _______ _____ _____    ______ ____
ROOT
ATOM      1  C   UNL     1       2.858  -4.125   0.000  0.00  0.00    +0.134 C 
ENDROOT
BRANCH   1   2
ATOM      2  N   UNL     1       3.572  -3.712   0.000  0.00  0.00    -0.185 NA
ATOM      3  C   UNL     1       4.287  -4.125   0.000  0.00  0.00    +0.344 C 
ATOM      4  N   UNL     1       5.001  -3.712   0.000  0.00  0.00    -0.159 NA
ATOM      5  O   UNL     1       4.287  -4.950   0.000  0.00  0.00    -0.249 OA
BRANCH   4   6
ATOM      6  C   UNL     1       5.716  -4.125   0.000  0.00  0.00    +0.094 A 
ATOM      7  C   UNL     1       5.716  -4.950   0.000  0.00  0.00    +0.115 A 
ATOM      8  N   UNL     1       6.430  -5.362   0.000  0.00  0.00    -0.241 NA
ATOM      9  C   UNL     1       7.145  -4.950   0.000  0.00  0.00    +0.099 A 
ATOM     10  C   UNL     1       7.145  -4.125   0.000  0.00  0.00    +0.022 A 
ATOM     11  C   UNL     1       6.430  -3.712   0.000  0.00  0.00    +0.020 A 
ENDBRANCH   4   6
ENDBRANCH   1   2
BRANCH   1  12
ATOM     12  C   UNL     1       2.143  -3.712   0.000  0.00  0.00    +0.096 C 
BRANCH  12  18
ATOM     13  C   UNL     1      -0.282  -3.350   0.000  0.00  0.00    +0.031 C 
ATOM     14  C   UNL     1       0.000  -4.125   0.000  0.00  0.00    +0.108 C 
ATOM     15  O   UNL     1       0.000  -4.950   0.000  0.00  0.00    -0.356 OA
ATOM     16  C   UNL     1       0.715  -5.362   0.000  0.00  0.00    +0.159 C 
ATOM     17  C   UNL     1       1.429  -4.950   0.000  0.00  0.00    +0.105 C 
ATOM     18  N   UNL     1       1.429  -4.125   0.000  0.00  0.00    -0.267 NA
ATOM     19  C   UNL     1       0.715  -3.712   0.000  0.00  0.00    +0.100 C 
ATOM     20  C   UNL     1      -0.812  -4.268   0.000  0.00  0.00    +0.031 C 
ENDBRANCH  12  18
ENDBRANCH   1  12
TORSDOF 4
