REMARK  Name = 
REMARK  4 active torsions:
REMARK  status: ('A' for Active; 'I' for Inactive)
REMARK    1  A    between atoms: C_6  and  N_7
REMARK    2  A    between atoms: N_7  and  S_8
REMARK    3  A    between atoms: S_8  and  C_11
REMARK    4  A    between atoms: C_11  and  C_12
REMARK                            x       y       z     vdW  Elec       q    Type
REMARK                         _______ _______ _______ _____ _____    ______ ____
ROOT
ATOM      1  N   UNL     1       2.037   6.003   0.000  0.00  0.00    -0.083 NA
ENDROOT
BRANCH   1   6
ATOM      2  C   UNL     1       0.608   8.478   0.000  0.00  0.00    +0.000 C 
ATOM      3  C   UNL     1       1.322   8.065   0.000  0.00  0.00    +0.001 C 
ATOM      4  C   UNL     1       1.322   7.240   0.000  0.00  0.00    +0.018 C 
ATOM      5  C   UNL     1       0.608   6.828   0.000  0.00  0.00    +0.001 C 
ATOM      6  C   UNL     1       2.037   6.828   0.000  0.00  0.00    +0.097 C 
ATOM      7  C   UNL     1       2.751   7.240   0.000  0.00  0.00    +0.019 C 
ATOM      8  C   UNL     1       2.751   8.065   0.000  0.00  0.00    +0.001 C 
ATOM      9  C   UNL     1       2.037   8.478   0.000  0.00  0.00    +0.000 C 
ENDBRANCH   1   6
BRANCH   1  10
ATOM     10  S   UNL     1       2.751   5.590   0.000  0.00  0.00    +0.063 S 
ATOM     11  O   UNL     1       3.164   6.305   0.000  0.00  0.00    -0.156 OA
ATOM     12  O   UNL     1       2.339   4.876   0.000  0.00  0.00    -0.156 OA
BRANCH  10  13
ATOM     13  C   UNL     1       3.466   5.178   0.000  0.00  0.00    +0.219 C 
BRANCH  13  14
ATOM     14  C   UNL     1       3.466   4.353   0.000  0.00  0.00    +0.126 A 
ATOM     15  N   UNL     1       2.798   3.868   0.000  0.00  0.00    -0.079 NA
ATOM     16  O   UNL     1       3.053   3.083   0.000  0.00  0.00    -0.350 OA
ATOM     17  C   UNL     1       3.878   3.083   0.000  0.00  0.00    +0.214 A 
ATOM     18  C   UNL     1       4.133   3.868   0.000  0.00  0.00    +0.063 A 
ENDBRANCH  13  14
ENDBRANCH  10  13
ENDBRANCH   1  10
TORSDOF 4
