REMARK  Name = 
REMARK  4 active torsions:
REMARK  status: ('A' for Active; 'I' for Inactive)
REMARK    1  A    between atoms: N_4  and  C_5
REMARK    2  A    between atoms: C_5  and  C_6
REMARK    3  A    between atoms: N_8  and  C_9
REMARK    4  A    between atoms: C_21  and  C_22
REMARK                            x       y       z     vdW  Elec       q    Type
REMARK                         _______ _______ _______ _____ _____    ______ ____
ROOT
ATOM      1  C   UNL     1      -1.272  -2.370   0.000  0.00  0.00    +0.266 C 
ATOM      2  N   UNL     1      -0.481  -2.602   0.000  0.00  0.00    -0.206 NA
ATOM      3  O   UNL     1      -1.467  -1.568   0.000  0.00  0.00    -0.271 OA
ENDROOT
BRANCH   2   4
ATOM      4  C   UNL     1       0.116  -2.032   0.000  0.00  0.00    +0.095 C 
ATOM      5  C   UNL     1       0.566  -1.242   0.000  0.00  0.00    +0.020 C 
ATOM      6  C   UNL     1       0.566  -0.494   0.000  0.00  0.00    +0.002 C 
ATOM      7  C   UNL     1       1.301  -0.121   0.000  0.00  0.00    +0.000 C 
ATOM      8  C   UNL     1       0.852  -0.911   0.000  0.00  0.00    +0.002 C 
ATOM      9  C   UNL     1       2.037  -0.494   0.000  0.00  0.00    +0.000 C 
ATOM     10  C   UNL     1       2.037  -1.242   0.000  0.00  0.00    +0.000 C 
ATOM     11  C   UNL     1       1.587  -2.032   0.000  0.00  0.00    +0.002 C 
ATOM     12  C   UNL     1       1.301  -1.616   0.000  0.00  0.00    +0.002 C 
ATOM     13  C   UNL     1       0.852  -1.659   0.000  0.00  0.00    +0.020 C 
ENDBRANCH   2   4
BRANCH   1  14
ATOM     14  C   UNL     1      -1.869  -2.939   0.000  0.00  0.00    +0.217 C 
BRANCH  14  22
ATOM     15  C   UNL     1      -3.842  -0.872   0.000  0.00  0.00    +0.054 C 
ATOM     16  C   UNL     1      -3.647  -1.673   0.000  0.00  0.00    +0.076 A 
ATOM     17  C   UNL     1      -4.244  -2.243   0.000  0.00  0.00    +0.008 A 
ATOM     18  C   UNL     1      -5.036  -2.010   0.000  0.00  0.00    +0.033 C 
ATOM     19  C   UNL     1      -4.049  -3.044   0.000  0.00  0.00    +0.123 A 
ATOM     20  C   UNL     1      -3.258  -3.276   0.000  0.00  0.00    +0.286 A 
ATOM     21  O   UNL     1      -3.063  -4.078   0.000  0.00  0.00    -0.265 OA
ATOM     22  N   UNL     1      -2.661  -2.707   0.000  0.00  0.00    -0.207 N 
ATOM     23  N   UNL     1      -2.856  -1.905   0.000  0.00  0.00    -0.171 NA
BRANCH  19  24
ATOM     24  C   UNL     1      -4.646  -3.614   0.000  0.00  0.00    +0.105 C 
ATOM     25  N   UNL     1      -5.243  -4.183   0.000  0.00  0.00    -0.191 NA
ENDBRANCH  19  24
ENDBRANCH  14  22
ENDBRANCH   1  14
TORSDOF 4
