REMARK  Name = 
REMARK  3 active torsions:
REMARK  status: ('A' for Active; 'I' for Inactive)
REMARK    1  A    between atoms: C_6  and  N_7
REMARK    2  A    between atoms: N_10  and  C_11
REMARK    3  A    between atoms: C_13  and  C_14
REMARK                            x       y       z     vdW  Elec       q    Type
REMARK                         _______ _______ _______ _____ _____    ______ ____
ROOT
ATOM      1  N   UNL     1       4.180   3.238   0.000  0.00  0.00    -0.160 NA
ATOM      2  C   UNL     1       4.180   2.413   0.000  0.00  0.00    +0.344 C 
ATOM      3  N   UNL     1       4.895   2.001   0.000  0.00  0.00    -0.184 NA
ATOM      4  O   UNL     1       3.466   2.001   0.000  0.00  0.00    -0.249 OA
ENDROOT
BRANCH   1   9
ATOM      5  C   UNL     1       1.322   3.238   0.000  0.00  0.00    +0.053 C 
ATOM      6  C   UNL     1       2.037   3.651   0.000  0.00  0.00    +0.071 A 
ATOM      7  C   UNL     1       2.751   3.238   0.000  0.00  0.00    +0.087 A 
ATOM      8 CL   UNL     1       2.751   2.413   0.000  0.00  0.00    -0.080 Cl
ATOM      9  C   UNL     1       3.466   3.651   0.000  0.00  0.00    +0.088 A 
ATOM     10  C   UNL     1       3.466   4.476   0.000  0.00  0.00    +0.038 A 
ATOM     11  C   UNL     1       2.751   4.888   0.000  0.00  0.00    +0.100 A 
ATOM     12  N   UNL     1       2.037   4.476   0.000  0.00  0.00    -0.247 NA
ENDBRANCH   1   9
BRANCH   3  13
ATOM     13  C   UNL     1       4.895   1.176   0.000  0.00  0.00    +0.119 C 
ATOM     14  C   UNL     1       4.227   0.691   0.000  0.00  0.00    -0.009 C 
ATOM     15  C   UNL     1       4.482  -0.094   0.000  0.00  0.00    -0.027 C 
ATOM     16  C   UNL     1       5.307  -0.094   0.000  0.00  0.00    +0.057 C 
ATOM     17  C   UNL     1       5.562   0.691   0.000  0.00  0.00    +0.033 C 
BRANCH  16  18
ATOM     18  C   UNL     1       5.792  -0.761   0.000  0.00  0.00    +0.186 C 
ATOM     19  O   UNL     1       6.612  -0.675   0.000  0.00  0.00    -0.220 OA
ENDBRANCH  16  18
ENDBRANCH   3  13
TORSDOF 3
