REMARK  Name = 
REMARK  6 active torsions:
REMARK  status: ('A' for Active; 'I' for Inactive)
REMARK    1  A    between atoms: C_2  and  C_3
REMARK    2  A    between atoms: C_6  and  C_7
REMARK    3  A    between atoms: C_9  and  C_10
REMARK    4  A    between atoms: C_10  and  C_11
REMARK    5  A    between atoms: N_13  and  C_14
REMARK    6  A    between atoms: C_14  and  C_15
REMARK                            x       y       z     vdW  Elec       q    Type
REMARK                         _______ _______ _______ _____ _____    ______ ____
ROOT
ATOM      1  C   UNL     1       0.626   0.489   0.000  0.00  0.00    +0.097 A 
ATOM      2  C   UNL     1       1.380   0.825   0.000  0.00  0.00    +0.037 A 
ATOM      3  C   UNL     1       1.294   1.645   0.000  0.00  0.00    +0.150 A 
ATOM      4  O   UNL     1       0.487   1.817   0.000  0.00  0.00    -0.358 OA
ATOM      5  N   UNL     1       0.074   1.103   0.000  0.00  0.00    -0.082 NA
ENDROOT
BRANCH   1   7
ATOM      6  C   UNL     1       1.068  -0.870   0.000  0.00  0.00    +0.007 C 
ATOM      7  C   UNL     1       0.455  -0.318   0.000  0.00  0.00    +0.049 C 
ENDBRANCH   1   7
BRANCH   3   8
ATOM      8  C   UNL     1       1.907   2.197   0.000  0.00  0.00    +0.067 C 
ATOM      9  C   UNL     1       1.735   3.005   0.000  0.00  0.00    +0.008 C 
ENDBRANCH   3   8
BRANCH   2  10
ATOM     10  C   UNL     1       2.095   0.412   0.000  0.00  0.00    +0.117 C 
BRANCH  10  11
ATOM     11  C   UNL     1       2.809   0.825   0.000  0.00  0.00    +0.246 C 
ATOM     12  N   UNL     1       3.523   0.412   0.000  0.00  0.00    -0.193 NA
ATOM     13  O   UNL     1       2.809   1.650   0.000  0.00  0.00    -0.273 OA
BRANCH  12  14
ATOM     14  C   UNL     1       4.238   0.825   0.000  0.00  0.00    +0.228 C 
BRANCH  14  15
ATOM     15  C   UNL     1       4.952   0.412   0.000  0.00  0.00    +0.387 C 
ATOM     16  O   UNL     1       4.952  -0.412   0.000  0.00  0.00    -0.244 OA
ATOM     17  O   UNL     1       5.667   0.825   0.000  0.00  0.00    -0.244 OA
ENDBRANCH  14  15
ENDBRANCH  12  14
ENDBRANCH  10  11
ENDBRANCH   2  10
TORSDOF 6
