REMARK  Name = 
REMARK  6 active torsions:
REMARK  status: ('A' for Active; 'I' for Inactive)
REMARK    1  A    between atoms: C_2  and  C_3
REMARK    2  A    between atoms: C_2  and  C_17
REMARK    3  A    between atoms: C_3  and  N_4
REMARK    4  A    between atoms: C_5  and  C_7
REMARK    5  A    between atoms: C_7  and  C_8
REMARK    6  A    between atoms: C_11  and  C_13
REMARK                            x       y       z     vdW  Elec       q    Type
REMARK                         _______ _______ _______ _____ _____    ______ ____
ROOT
ATOM      1  C   UNL     1      -0.227  -1.240   0.000  0.00  0.00    +0.133 C 
ENDROOT
BRANCH   1   2
ATOM      2  C   UNL     1      -0.941  -1.653   0.000  0.00  0.00    +0.075 A 
ATOM      3  N   UNL     1      -1.695  -1.317   0.000  0.00  0.00    -0.247 NA
ATOM      4  C   UNL     1      -2.247  -1.930   0.000  0.00  0.00    +0.087 A 
ATOM      5  S   UNL     1      -1.835  -2.645   0.000  0.00  0.00    -0.071 S 
ATOM      6  C   UNL     1      -1.028  -2.473   0.000  0.00  0.00    +0.052 A 
BRANCH   4   7
ATOM      7  C   UNL     1      -3.068  -1.844   0.000  0.00  0.00    +0.041 C 
ATOM      8  C   UNL     1      -2.981  -1.024   0.000  0.00  0.00    +0.006 C 
ATOM      9  C   UNL     1      -3.154  -2.664   0.000  0.00  0.00    +0.006 C 
ATOM     10  C   UNL     1      -3.888  -1.758   0.000  0.00  0.00    +0.006 C 
ENDBRANCH   4   7
ENDBRANCH   1   2
BRANCH   1  12
ATOM     11  N   UNL     1       1.202  -1.240   0.000  0.00  0.00    -0.205 NA
ATOM     12  C   UNL     1       0.487  -1.653   0.000  0.00  0.00    +0.247 C 
ATOM     13  O   UNL     1       0.487  -2.478   0.000  0.00  0.00    -0.273 OA
BRANCH  11  14
ATOM     14  C   UNL     1       1.917  -1.653   0.000  0.00  0.00    +0.126 C 
BRANCH  14  16
ATOM     15  C   UNL     1       2.631  -0.415   0.000  0.00  0.00    +0.014 C 
ATOM     16  C   UNL     1       2.631  -1.240   0.000  0.00  0.00    +0.125 C 
BRANCH  16  17
ATOM     17  C   UNL     1       3.345  -1.653   0.000  0.00  0.00    +0.366 C 
ATOM     18  O   UNL     1       3.345  -2.478   0.000  0.00  0.00    -0.246 OA
ATOM     19  O   UNL     1       4.060  -1.240   0.000  0.00  0.00    -0.246 OA
ENDBRANCH  16  17
ENDBRANCH  14  16
ENDBRANCH  11  14
ENDBRANCH   1  12
TORSDOF 6
