REMARK  Name = 
REMARK  6 active torsions:
REMARK  status: ('A' for Active; 'I' for Inactive)
REMARK    1  A    between atoms: C_5  and  S_6
REMARK    2  A    between atoms: S_6  and  C_7
REMARK    3  A    between atoms: C_7  and  C_8
REMARK    4  A    between atoms: C_8  and  C_9
REMARK    5  A    between atoms: N_14  and  C_15
REMARK    6  A    between atoms: C_15  and  C_16
REMARK                            x       y       z     vdW  Elec       q    Type
REMARK                         _______ _______ _______ _____ _____    ______ ____
ROOT
ATOM      1  C   UNL     1      -0.279  -2.045   0.000  0.00  0.00    +0.074 C 
ATOM      2  C   UNL     1      -0.279  -2.870   0.000  0.00  0.00    +0.144 A 
ATOM      3  N   UNL     1      -0.947  -3.355   0.000  0.00  0.00    -0.285 N 
ATOM      4  C   UNL     1      -0.692  -4.140   0.000  0.00  0.00    +0.193 A 
ATOM      5  N   UNL     1       0.133  -4.140   0.000  0.00  0.00    -0.122 NA
ATOM      6  N   UNL     1       0.388  -3.355   0.000  0.00  0.00    -0.133 NA
ENDROOT
BRANCH   3   7
ATOM      7  C   UNL     1      -1.731  -3.100   0.000  0.00  0.00    +0.198 C 
BRANCH   7   8
ATOM      8  C   UNL     1      -1.903  -2.293   0.000  0.00  0.00    +0.284 C 
ATOM      9  N   UNL     1      -1.290  -1.741   0.000  0.00  0.00    -0.086 NA
ATOM     10  O   UNL     1      -2.687  -2.038   0.000  0.00  0.00    -0.270 OA
ENDBRANCH   7   8
ENDBRANCH   3   7
BRANCH   4  11
ATOM     11  S   UNL     1      -1.177  -4.807   0.000  0.00  0.00    -0.076 S 
BRANCH  11  12
ATOM     12  C   UNL     1      -0.841  -5.561   0.000  0.00  0.00    +0.065 C 
BRANCH  12  13
ATOM     13  C   UNL     1      -1.326  -6.228   0.000  0.00  0.00    +0.012 C 
BRANCH  13  14
ATOM     14  C   UNL     1      -0.990  -6.982   0.000  0.00  0.00    +0.001 C 
ATOM     15  C   UNL     1      -1.403  -7.696   0.000  0.00  0.00    +0.000 C 
ATOM     16  C   UNL     1      -0.851  -8.309   0.000  0.00  0.00    +0.000 C 
ATOM     17  C   UNL     1      -0.097  -7.974   0.000  0.00  0.00    +0.000 C 
ATOM     18  C   UNL     1      -0.183  -7.153   0.000  0.00  0.00    +0.000 C 
ENDBRANCH  13  14
ENDBRANCH  12  13
ENDBRANCH  11  12
ENDBRANCH   4  11
TORSDOF 6
