REMARK  Name = 
REMARK  4 active torsions:
REMARK  status: ('A' for Active; 'I' for Inactive)
REMARK    1  A    between atoms: C_2  and  C_3
REMARK    2  A    between atoms: C_2  and  C_14
REMARK    3  A    between atoms: N_5  and  C_6
REMARK    4  A    between atoms: C_6  and  C_7
REMARK                            x       y       z     vdW  Elec       q    Type
REMARK                         _______ _______ _______ _____ _____    ______ ____
ROOT
ATOM      1  C   UNL     1       0.000  -2.475   0.000  0.00  0.00    +0.245 C 
ATOM      2  N   UNL     1       0.715  -2.062   0.000  0.00  0.00    -0.205 NA
ATOM      3  O   UNL     1       0.000  -3.300   0.000  0.00  0.00    -0.273 OA
ENDROOT
BRANCH   1   5
ATOM      4  C   UNL     1      -0.715  -1.238   0.000  0.00  0.00    +0.014 C 
ATOM      5  C   UNL     1      -0.715  -2.062   0.000  0.00  0.00    +0.103 C 
BRANCH   5   6
ATOM      6  C   UNL     1      -1.429  -2.475   0.000  0.00  0.00    +0.015 A 
ATOM      7  C   UNL     1      -2.183  -2.139   0.000  0.00  0.00    +0.054 A 
ATOM      8  C   UNL     1      -2.354  -1.333   0.000  0.00  0.00    +0.051 C 
ATOM      9  N   UNL     1      -2.735  -2.752   0.000  0.00  0.00    -0.253 N 
ATOM     10  C   UNL     1      -3.555  -2.666   0.000  0.00  0.00    +0.153 C 
ATOM     11  N   UNL     1      -2.322  -3.467   0.000  0.00  0.00    -0.174 NA
ATOM     12  C   UNL     1      -1.515  -3.296   0.000  0.00  0.00    +0.077 A 
ATOM     13  C   UNL     1      -0.902  -3.848   0.000  0.00  0.00    +0.054 C 
ENDBRANCH   5   6
ENDBRANCH   1   5
BRANCH   2  14
ATOM     14  C   UNL     1       1.429  -2.475   0.000  0.00  0.00    +0.115 C 
BRANCH  14  15
ATOM     15  C   UNL     1       2.143  -2.062   0.000  0.00  0.00    +0.022 C 
ATOM     16  C   UNL     1       2.858  -2.475   0.000  0.00  0.00    +0.002 C 
ATOM     17  C   UNL     1       3.572  -2.062   0.000  0.00  0.00    +0.000 C 
ATOM     18  C   UNL     1       4.287  -2.475   0.000  0.00  0.00    +0.000 C 
ATOM     19  C   UNL     1       3.572  -1.238   0.000  0.00  0.00    +0.000 C 
ATOM     20  C   UNL     1       2.858  -0.825   0.000  0.00  0.00    +0.000 C 
ATOM     21  C   UNL     1       2.143  -1.238   0.000  0.00  0.00    +0.002 C 
ENDBRANCH  14  15
ENDBRANCH   2  14
TORSDOF 4
