REMARK  Name = 
REMARK  4 active torsions:
REMARK  status: ('A' for Active; 'I' for Inactive)
REMARK    1  A    between atoms: CA_2  and  C_3
REMARK    2  A    between atoms: CA_2  and  N_5
REMARK    3  A    between atoms: C_6  and  C_8
REMARK    4  A    between atoms: C_8  and  C_11
REMARK                            x       y       z     vdW  Elec       q    Type
REMARK                         _______ _______ _______ _____ _____    ______ ____
ROOT
ATOM      1  C   UNK A   0       0.715   2.062   0.000  0.00  0.00    +0.366 C 
ATOM      2  F   UNK A   0       1.540   2.062   0.000  0.00  0.00    -0.188 F 
ATOM      3  F   UNK A   0      -0.111   2.062   0.000  0.00  0.00    -0.188 F 
ENDROOT
BRANCH   1   4
ATOM      4  C   UNK A   0       0.715   1.238   0.000  0.00  0.00    +0.128 A 
ATOM      5  N   UNK A   0       0.000   0.825   0.000  0.00  0.00    -0.242 NA
ATOM      6  C   UNK A   0       0.000   0.000   0.000  0.00  0.00    +0.099 A 
ATOM      7  C   UNK A   0       0.715  -0.412   0.000  0.00  0.00    +0.021 A 
ATOM      8  C   UNK A   0       1.429   0.000   0.000  0.00  0.00    +0.003 A 
ATOM      9  C   UNK A   0       1.429   0.825   0.000  0.00  0.00    +0.021 A 
ENDBRANCH   1   4
BRANCH   1  11
ATOM     10  N   ALA A   1       0.000   3.300   0.000  0.00  0.00    -0.200 NA
ATOM     11  C   UNK A   0       0.715   2.888   0.000  0.00  0.00    +0.308 C 
ATOM     12  O   UNK A   0       1.429   3.300   0.000  0.00  0.00    -0.267 OA
BRANCH  10  14
ATOM     13  CB  ALA A   1       0.715   4.537   0.000  0.00  0.00    +0.026 C 
ATOM     14  CA  ALA A   1       0.000   4.125   0.000  0.00  0.00    +0.128 C 
BRANCH  14  15
ATOM     15  C   ALA A   1      -0.715   4.537   0.000  0.00  0.00    +0.204 C 
ATOM     16  O   ALA A   1      -0.715   5.362   0.000  0.00  0.00    -0.219 OA
ENDBRANCH  14  15
ENDBRANCH  10  14
ENDBRANCH   1  11
TORSDOF 4
