REMARK  Name = 
REMARK  4 active torsions:
REMARK  status: ('A' for Active; 'I' for Inactive)
REMARK    1  A    between atoms: N_1  and  C_8
REMARK    2  A    between atoms: N_2  and  C_7
REMARK    3  A    between atoms: C_8  and  C_9
REMARK    4  A    between atoms: N_13  and  C_16
REMARK                            x       y       z     vdW  Elec       q    Type
REMARK                         _______ _______ _______ _____ _____    ______ ____
ROOT
ATOM      1  C   UNL     1      -0.939  -3.184   0.000  0.00  0.00    +0.201 C 
ENDROOT
BRANCH   1   2
ATOM      2  N   UNL     1      -0.939  -4.011   0.000  0.00  0.00    -0.238 N 
ATOM      3  C   UNL     1      -0.225  -4.424   0.000  0.00  0.00    +0.294 A 
ATOM      4  O   UNL     1       0.492  -4.011   0.000  0.00  0.00    -0.264 OA
ATOM      5  C   UNL     1      -0.225  -5.250   0.000  0.00  0.00    +0.213 A 
ATOM      6  F   UNL     1       0.492  -5.663   0.000  0.00  0.00    -0.198 F 
ATOM      7  C   UNL     1      -0.939  -5.663   0.000  0.00  0.00    +0.116 A 
ATOM      8  N   UNL     1      -1.657  -5.250   0.000  0.00  0.00    -0.255 N 
ATOM      9  C   UNL     1      -1.657  -4.424   0.000  0.00  0.00    +0.336 A 
ATOM     10  O   UNL     1      -2.370  -4.011   0.000  0.00  0.00    -0.246 OA
BRANCH   8  11
ATOM     11  C   UNL     1      -2.370  -5.663   0.000  0.00  0.00    +0.208 C 
ATOM     12  C   UNL     1      -2.458  -6.485   0.000  0.00  0.00    +0.057 C 
ATOM     13  C   UNL     1      -3.268  -6.656   0.000  0.00  0.00    +0.037 C 
ATOM     14  C   UNL     1      -3.681  -5.943   0.000  0.00  0.00    +0.144 C 
ATOM     15  O   UNL     1      -3.126  -5.329   0.000  0.00  0.00    -0.335 OA
ENDBRANCH   8  11
ENDBRANCH   1   2
BRANCH   1  16
ATOM     16  C   UNL     1      -0.225  -2.771   0.000  0.00  0.00    +0.269 C 
ATOM     17  O   UNL     1       0.492  -3.184   0.000  0.00  0.00    -0.271 OA
ATOM     18  N   UNL     1      -0.225  -1.945   0.000  0.00  0.00    -0.177 NA
BRANCH  18  19
ATOM     19  C   UNL     1       0.492  -1.532   0.000  0.00  0.00    +0.077 A 
ATOM     20  C   UNL     1       0.492  -0.705   0.000  0.00  0.00    +0.020 A 
ATOM     21  C   UNL     1       1.206  -0.292   0.000  0.00  0.00    +0.041 A 
ATOM     22  C   UNL     1       1.920  -0.705   0.000  0.00  0.00    +0.172 A 
ATOM     23  O   UNL     1       2.567  -0.192   0.000  0.00  0.00    -0.472 OA
ATOM     24  C   UNL     1       3.372  -0.376   0.000  0.00  0.00    +0.209 C 
ATOM     25  C   UNL     1       3.731  -1.118   0.000  0.00  0.00    +0.095 C 
ATOM     26  C   UNL     1       3.372  -1.861   0.000  0.00  0.00    +0.209 C 
ATOM     27  O   UNL     1       2.567  -2.049   0.000  0.00  0.00    -0.472 OA
ATOM     28  C   UNL     1       1.920  -1.532   0.000  0.00  0.00    +0.173 A 
ATOM     29  C   UNL     1       1.206  -1.945   0.000  0.00  0.00    +0.057 A 
ENDBRANCH  18  19
ENDBRANCH   1  16
TORSDOF 4
