REMARK  Name = 
REMARK  2 active torsions:
REMARK  status: ('A' for Active; 'I' for Inactive)
REMARK    1  A    between atoms: N_9  and  C_10
REMARK    2  A    between atoms: C_10  and  C_11
REMARK                            x       y       z     vdW  Elec       q    Type
REMARK                         _______ _______ _______ _____ _____    ______ ____
ROOT
ATOM      1  C   UNL     1       0.715   2.062   0.000  0.00  0.00    +0.050 C 
ATOM      2  C   UNL     1       0.715   1.238   0.000  0.00  0.00    +0.044 A 
ATOM      3  N   UNL     1       0.000   0.825   0.000  0.00  0.00    -0.288 N 
ATOM      4  C   UNL     1       0.000   0.000   0.000  0.00  0.00    +0.264 A 
ATOM      5  O   UNL     1      -0.715  -0.412   0.000  0.00  0.00    -0.267 OA
ATOM      6  C   UNL     1       0.715  -0.412   0.000  0.00  0.00    +0.103 A 
ATOM      7  C   UNL     1       1.429   0.000   0.000  0.00  0.00    +0.202 A 
ATOM      8  O   UNL     1       2.143  -0.412   0.000  0.00  0.00    -0.286 OA
ATOM      9  C   UNL     1       1.429   0.825   0.000  0.00  0.00    +0.055 A 
ENDROOT
BRANCH   3  10
ATOM     10  C   UNL     1      -0.715   1.238   0.000  0.00  0.00    +0.223 C 
BRANCH  10  11
ATOM     11  C   UNL     1      -0.715   2.062   0.000  0.00  0.00    +0.388 C 
ATOM     12  O   UNL     1       0.000   2.475   0.000  0.00  0.00    -0.243 OA
ATOM     13  O   UNL     1      -1.429   2.475   0.000  0.00  0.00    -0.243 OA
ENDBRANCH  10  11
ENDBRANCH   3  10
TORSDOF 2
