REMARK  Name = 
REMARK  5 active torsions:
REMARK  status: ('A' for Active; 'I' for Inactive)
REMARK    1  A    between atoms: N_1  and  C_8
REMARK    2  A    between atoms: N_2  and  C_7
REMARK    3  A    between atoms: C_8  and  C_10
REMARK    4  A    between atoms: N_18  and  C_24
REMARK    5  A    between atoms: C_23  and  C_24
REMARK                            x       y       z     vdW  Elec       q    Type
REMARK                         _______ _______ _______ _____ _____    ______ ____
ROOT
ATOM      1  N   UNL     1       5.492   4.821   0.000  0.00  0.00    -0.238 N 
ATOM      2  C   UNL     1       5.492   5.646   0.000  0.00  0.00    +0.294 A 
ATOM      3  O   UNL     1       4.779   6.058   0.000  0.00  0.00    -0.264 OA
ATOM      4  C   UNL     1       6.208   6.058   0.000  0.00  0.00    +0.213 A 
ATOM      5  F   UNL     1       6.208   6.883   0.000  0.00  0.00    -0.198 F 
ATOM      6  C   UNL     1       6.921   5.646   0.000  0.00  0.00    +0.116 A 
ATOM      7  N   UNL     1       6.921   4.821   0.000  0.00  0.00    -0.255 N 
ATOM      8  C   UNL     1       6.208   4.408   0.000  0.00  0.00    +0.336 A 
ATOM      9  O   UNL     1       6.208   3.587   0.000  0.00  0.00    -0.246 OA
ENDROOT
BRANCH   7  10
ATOM     10  C   UNL     1       7.638   4.408   0.000  0.00  0.00    +0.208 C 
ATOM     11  C   UNL     1       8.392   4.746   0.000  0.00  0.00    +0.057 C 
ATOM     12  C   UNL     1       8.942   4.129   0.000  0.00  0.00    +0.037 C 
ATOM     13  C   UNL     1       8.529   3.421   0.000  0.00  0.00    +0.144 C 
ATOM     14  O   UNL     1       7.725   3.592   0.000  0.00  0.00    -0.335 OA
ENDBRANCH   7  10
BRANCH   1  15
ATOM     15  C   UNL     1       4.779   4.408   0.000  0.00  0.00    +0.200 C 
BRANCH  15  16
ATOM     16  C   UNL     1       4.779   3.587   0.000  0.00  0.00    +0.265 C 
ATOM     17  O   UNL     1       5.492   3.175   0.000  0.00  0.00    -0.271 OA
ATOM     18  N   UNL     1       4.067   3.175   0.000  0.00  0.00    -0.199 NA
BRANCH  18  19
ATOM     19  C   UNL     1       4.067   2.350   0.000  0.00  0.00    +0.142 C 
BRANCH  19  20
ATOM     20  C   UNL     1       3.350   1.938   0.000  0.00  0.00    +0.003 A 
ATOM     21  C   UNL     1       3.350   1.113   0.000  0.00  0.00    +0.001 A 
ATOM     22  C   UNL     1       2.638   0.700   0.000  0.00  0.00    +0.040 A 
ATOM     23  C   UNL     1       1.921   1.113   0.000  0.00  0.00    +0.176 A 
ATOM     24  O   UNL     1       1.137   0.858   0.000  0.00  0.00    -0.435 OA
ATOM     25  C   UNL     1       0.650   1.525   0.000  0.00  0.00    +0.429 C 
ATOM     26  O   UNL     1       1.137   2.192   0.000  0.00  0.00    -0.435 OA
ATOM     27  C   UNL     1       1.921   1.938   0.000  0.00  0.00    +0.176 A 
ATOM     28  C   UNL     1       2.638   2.350   0.000  0.00  0.00    +0.038 A 
ENDBRANCH  19  20
ENDBRANCH  18  19
ENDBRANCH  15  16
ENDBRANCH   1  15
TORSDOF 5
