REMARK  Name = 
REMARK  6 active torsions:
REMARK  status: ('A' for Active; 'I' for Inactive)
REMARK    1  A    between atoms: N_1  and  C_10
REMARK    2  A    between atoms: N_2  and  C1*_5
REMARK    3  A    between atoms: C_10  and  C_12
REMARK    4  A    between atoms: C4*_11  and  C5*_27
REMARK    5  A    between atoms: N_16  and  C_22
REMARK    6  A    between atoms: C_17  and  C_18
REMARK                            x       y       z     vdW  Elec       q    Type
REMARK                         _______ _______ _______ _____ _____    ______ ____
ROOT
ATOM      1  N   UNL     1       2.142  -2.888   0.000  0.00  0.00    -0.240 N 
ATOM      2  C   UNL     1       2.854  -2.475   0.000  0.00  0.00    +0.262 A 
ATOM      3  O   UNL     1       2.854  -1.650   0.000  0.00  0.00    -0.267 OA
ATOM      4  C   UNL     1       3.571  -2.888   0.000  0.00  0.00    +0.052 A 
ATOM      5  C   UNL     1       4.283  -2.475   0.000  0.00  0.00    +0.038 C 
ATOM      6  C   UNL     1       3.571  -3.712   0.000  0.00  0.00    +0.082 A 
ATOM      7  N   UNL     1       2.854  -4.125   0.000  0.00  0.00    -0.257 N 
ATOM      8  C   UNL     1       2.142  -3.712   0.000  0.00  0.00    +0.336 A 
ATOM      9  O   UNL     1       1.425  -4.125   0.000  0.00  0.00    -0.246 OA
ENDROOT
BRANCH   7  10
ATOM     10  C1* UNL     1       2.854  -4.950   0.000  0.00  0.00    +0.211 C 
ATOM     11  C2* UNL     1       3.525  -5.433   0.000  0.00  0.00    +0.089 C 
ATOM     12  C3* UNL     1       3.267  -6.217   0.000  0.00  0.00    +0.186 C 
ATOM     13  C4* UNL     1       2.442  -6.217   0.000  0.00  0.00    +0.180 C 
ATOM     14  O3* UNL     1       3.754  -6.883   0.000  0.00  0.00    -0.220 OA
ATOM     15  O4* UNL     1       2.188  -5.433   0.000  0.00  0.00    -0.332 OA
BRANCH  13  16
ATOM     16  C5* UNL     1       1.958  -6.883   0.000  0.00  0.00    +0.214 C 
ATOM     17  O5* UNL     1       2.296  -7.638   0.000  0.00  0.00    -0.218 OA
ENDBRANCH  13  16
ENDBRANCH   7  10
BRANCH   1  18
ATOM     18  C   UNL     1       1.425  -2.475   0.000  0.00  0.00    +0.200 C 
BRANCH  18  19
ATOM     19  C   UNL     1       1.425  -1.650   0.000  0.00  0.00    +0.269 C 
ATOM     20  O   UNL     1       2.142  -1.238   0.000  0.00  0.00    -0.271 OA
ATOM     21  N   UNL     1       0.713  -1.238   0.000  0.00  0.00    -0.178 NA
BRANCH  21  22
ATOM     22  C   UNL     1       0.713  -0.412   0.000  0.00  0.00    +0.073 A 
ATOM     23  C   UNL     1       0.000   0.000   0.000  0.00  0.00    +0.016 A 
ATOM     24  C   UNL     1       0.000   0.825   0.000  0.00  0.00    -0.003 A 
ATOM     25  C   UNL     1       0.713   1.238   0.000  0.00  0.00    -0.023 A 
ATOM     26  C   UNL     1       1.425   0.825   0.000  0.00  0.00    -0.003 A 
ATOM     27  C   UNL     1       1.425   0.000   0.000  0.00  0.00    +0.016 A 
BRANCH  25  28
ATOM     28  C   UNL     1       0.713   2.062   0.000  0.00  0.00    +0.019 C 
ATOM     29  C   UNL     1       1.538   2.062   0.000  0.00  0.00    +0.004 C 
ATOM     30  C   UNL     1       0.713   2.892   0.000  0.00  0.00    +0.004 C 
ATOM     31  C   UNL     1      -0.113   2.062   0.000  0.00  0.00    +0.004 C 
ENDBRANCH  25  28
ENDBRANCH  21  22
ENDBRANCH  18  19
ENDBRANCH   1  18
TORSDOF 6
