REMARK  Name = 
REMARK  5 active torsions:
REMARK  status: ('A' for Active; 'I' for Inactive)
REMARK    1  A    between atoms: C_2  and  C_3
REMARK    2  A    between atoms: C_3  and  N_4
REMARK    3  A    between atoms: N_4  and  C_5
REMARK    4  A    between atoms: C_5  and  C_6
REMARK    5  A    between atoms: C_6  and  N_7
REMARK                            x       y       z     vdW  Elec       q    Type
REMARK                         _______ _______ _______ _____ _____    ______ ____
ROOT
ATOM      1  C   UNL     1       1.754  -0.627   0.000  0.00  0.00    +0.174 C 
ENDROOT
BRANCH   1   3
ATOM      2  O   UNL     1       1.040  -1.865   0.000  0.00  0.00    -0.273 OA
ATOM      3  C   UNL     1       1.040  -1.040   0.000  0.00  0.00    +0.243 C 
ATOM      4  N   UNL     1       0.325  -0.627   0.000  0.00  0.00    -0.278 N 
ATOM      5  C   UNL     1       0.239   0.193   0.000  0.00  0.00    +0.093 C 
ATOM      6  C   UNL     1      -0.568   0.365   0.000  0.00  0.00    +0.023 C 
ATOM      7  C   UNL     1      -0.981  -0.349   0.000  0.00  0.00    +0.023 C 
ATOM      8  C   UNL     1      -0.429  -0.963   0.000  0.00  0.00    +0.093 C 
ENDBRANCH   1   3
BRANCH   1   9
ATOM      9  N   UNL     1       2.469  -1.040   0.000  0.00  0.00    -0.206 NA
BRANCH   9  10
ATOM     10  C   UNL     1       3.183  -0.627   0.000  0.00  0.00    +0.116 C 
BRANCH  10  11
ATOM     11  C   UNL     1       3.898  -1.040   0.000  0.00  0.00    +0.146 C 
BRANCH  11  12
ATOM     12  N   UNL     1       4.612  -0.627   0.000  0.00  0.00    -0.248 N 
ATOM     13  N   UNL     1       5.366  -0.963   0.000  0.00  0.00    -0.168 NA
ATOM     14  C   UNL     1       5.918  -0.349   0.000  0.00  0.00    +0.122 A 
ATOM     15  C   UNL     1       5.505   0.365   0.000  0.00  0.00    +0.043 A 
ATOM     16  C   UNL     1       4.699   0.193   0.000  0.00  0.00    +0.097 A 
ENDBRANCH  11  12
ENDBRANCH  10  11
ENDBRANCH   9  10
ENDBRANCH   1   9
TORSDOF 5
