REMARK  Name = 
REMARK  1 active torsions:
REMARK  status: ('A' for Active; 'I' for Inactive)
REMARK    1  A    between atoms: C_12  and  C_15
REMARK                            x       y       z     vdW  Elec       q    Type
REMARK                         _______ _______ _______ _____ _____    ______ ____
ROOT
ATOM      1  C   UNL     1       0.715  -0.412   0.000  0.00  0.00    +0.034 C 
ATOM      2  C   UNL     1       0.715  -1.238   0.000  0.00  0.00    +0.135 C 
ATOM      3  O   UNL     1       0.000  -1.650   0.000  0.00  0.00    -0.355 OA
ATOM      4  C   UNL     1       0.000  -2.475   0.000  0.00  0.00    +0.135 C 
ATOM      5  C   UNL     1      -0.715  -2.888   0.000  0.00  0.00    +0.034 C 
ATOM      6  C   UNL     1       0.715  -2.888   0.000  0.00  0.00    +0.122 C 
ATOM      7  N   UNL     1       1.429  -2.475   0.000  0.00  0.00    -0.288 N 
ATOM      8  C   UNL     1       2.143  -2.888   0.000  0.00  0.00    +0.132 A 
ATOM      9  N   UNL     1       2.143  -3.712   0.000  0.00  0.00    -0.229 NA
ATOM     10  C   UNL     1       2.858  -4.125   0.000  0.00  0.00    +0.107 A 
ATOM     11  C   UNL     1       3.572  -3.712   0.000  0.00  0.00    +0.099 A 
ATOM     12  C   UNL     1       3.572  -2.888   0.000  0.00  0.00    +0.011 A 
ATOM     13  C   UNL     1       2.858  -2.475   0.000  0.00  0.00    +0.035 A 
ATOM     14  C   UNL     1       1.429  -1.650   0.000  0.00  0.00    +0.122 C 
ENDROOT
BRANCH  11  15
ATOM     15  C   UNL     1       4.287  -4.125   0.000  0.00  0.00    +0.389 C 
ATOM     16  O   UNL     1       4.287  -4.950   0.000  0.00  0.00    -0.240 OA
ATOM     17  O   UNL     1       5.001  -3.712   0.000  0.00  0.00    -0.240 OA
ENDBRANCH  11  15
TORSDOF 1
