REMARK  Name = 
REMARK  5 active torsions:
REMARK  status: ('A' for Active; 'I' for Inactive)
REMARK    1  A    between atoms: C_2  and  C_3
REMARK    2  A    between atoms: C_5  and  C_6
REMARK    3  A    between atoms: C_6  and  C_7
REMARK    4  A    between atoms: N_9  and  C_10
REMARK    5  A    between atoms: C_10  and  C_11
REMARK                            x       y       z     vdW  Elec       q    Type
REMARK                         _______ _______ _______ _____ _____    ______ ____
ROOT
ATOM      1  C   UNL     1      -2.143  -0.412   0.000  0.00  0.00    +0.247 C 
ATOM      2  N   UNL     1      -1.429   0.000   0.000  0.00  0.00    -0.205 NA
ATOM      3  O   UNL     1      -2.143  -1.238   0.000  0.00  0.00    -0.273 OA
ENDROOT
BRANCH   1   4
ATOM      4  C   UNL     1      -2.858   0.000   0.000  0.00  0.00    +0.133 C 
BRANCH   4   8
ATOM      5  C   UNL     1      -4.878  -0.690   0.000  0.00  0.00    +0.088 A 
ATOM      6  S   UNL     1      -4.466  -1.405   0.000  0.00  0.00    -0.071 S 
ATOM      7  C   UNL     1      -3.659  -1.233   0.000  0.00  0.00    +0.052 A 
ATOM      8  C   UNL     1      -3.572  -0.412   0.000  0.00  0.00    +0.075 A 
ATOM      9  N   UNL     1      -4.326  -0.077   0.000  0.00  0.00    -0.247 NA
BRANCH   5  11
ATOM     10  C   UNL     1      -6.184  -1.271   0.000  0.00  0.00    +0.007 C 
ATOM     11  C   UNL     1      -5.699  -0.604   0.000  0.00  0.00    +0.053 C 
ENDBRANCH   5  11
ENDBRANCH   4   8
ENDBRANCH   1   4
BRANCH   2  12
ATOM     12  C   UNL     1      -0.715  -0.412   0.000  0.00  0.00    +0.115 C 
BRANCH  12  13
ATOM     13  C   UNL     1       0.000   0.000   0.000  0.00  0.00    +0.022 C 
ATOM     14  C   UNL     1       0.000   0.825   0.000  0.00  0.00    +0.002 C 
ATOM     15  C   UNL     1       0.611   0.234   0.000  0.00  0.00    +0.000 C 
ATOM     16  C   UNL     1       1.429   0.000   0.000  0.00  0.00    +0.000 C 
ATOM     17  C   UNL     1       1.429   0.825   0.000  0.00  0.00    +0.000 C 
ATOM     18  C   UNL     1       0.715   1.238   0.000  0.00  0.00    +0.000 C 
ATOM     19  C   UNL     1       0.715  -0.412   0.000  0.00  0.00    +0.002 C 
ENDBRANCH  12  13
ENDBRANCH   2  12
TORSDOF 5
