REMARK  Name = 
REMARK  3 active torsions:
REMARK  status: ('A' for Active; 'I' for Inactive)
REMARK    1  A    between atoms: N_2  and  C_4
REMARK    2  A    between atoms: C_4  and  C_5
REMARK    3  A    between atoms: C_5  and  N_6
REMARK                            x       y       z     vdW  Elec       q    Type
REMARK                         _______ _______ _______ _____ _____    ______ ____
ROOT
ATOM      1  C   UNL     1       1.387  -2.408   0.000  0.00  0.00    +0.131 C 
ENDROOT
BRANCH   1   2
ATOM      2  N   UNL     1       2.102  -1.996   0.000  0.00  0.00    -0.185 NA
ATOM      3  C   UNL     1       2.816  -2.408   0.000  0.00  0.00    +0.345 C 
ATOM      4  N   UNL     1       3.530  -1.996   0.000  0.00  0.00    -0.136 NA
ATOM      5  C   UNL     1       4.245  -2.408   0.000  0.00  0.00    +0.187 A 
ATOM      6  S   UNL     1       4.331  -3.229   0.000  0.00  0.00    -0.049 S 
ATOM      7  C   UNL     1       5.138  -3.400   0.000  0.00  0.00    +0.059 A 
ATOM      8  C   UNL     1       5.551  -2.686   0.000  0.00  0.00    +0.108 A 
ATOM      9  N   UNL     1       4.999  -2.073   0.000  0.00  0.00    -0.221 NA
ATOM     10  O   UNL     1       2.816  -3.233   0.000  0.00  0.00    -0.249 OA
ENDBRANCH   1   2
BRANCH   1  11
ATOM     11  C   UNL     1       0.672  -1.996   0.000  0.00  0.00    +0.066 C 
ATOM     12  C   UNL     1       1.157  -1.328   0.000  0.00  0.00    +0.016 C 
ATOM     13  C   UNL     1       0.672  -0.661   0.000  0.00  0.00    +0.001 C 
ATOM     14  C   UNL     1      -0.112  -0.916   0.000  0.00  0.00    +0.001 C 
ATOM     15  C   UNL     1      -0.112  -1.741   0.000  0.00  0.00    +0.016 C 
BRANCH  11  17
ATOM     16  C   UNL     1      -0.483  -2.836   0.000  0.00  0.00    +0.090 C 
ATOM     17  N   UNL     1       0.337  -2.749   0.000  0.00  0.00    -0.271 NA
ATOM     18  C   UNL     1       0.822  -3.417   0.000  0.00  0.00    +0.090 C 
ENDBRANCH  11  17
ENDBRANCH   1  11
TORSDOF 3
