REMARK  Name = 
REMARK  4 active torsions:
REMARK  status: ('A' for Active; 'I' for Inactive)
REMARK    1  A    between atoms: N_2  and  C_10
REMARK    2  A    between atoms: C_10  and  C_13
REMARK    3  A    between atoms: N_11  and  C_16
REMARK    4  A    between atoms: C_16  and  C_21
REMARK                            x       y       z     vdW  Elec       q    Type
REMARK                         _______ _______ _______ _____ _____    ______ ____
ROOT
ATOM      1  C   UNL     1       1.921  -0.283   0.000  0.00  0.00    +0.149 A 
ATOM      2  C   UNL     1       2.638   0.129   0.000  0.00  0.00    +0.154 A 
ATOM      3  N   UNL     1       3.350  -0.283   0.000  0.00  0.00    -0.207 NA
ATOM      4  C   UNL     1       3.350  -1.108   0.000  0.00  0.00    +0.201 A 
ATOM      5  N   UNL     1       2.638  -1.521   0.000  0.00  0.00    -0.205 NA
ATOM      6  N   UNL     1       2.638   0.954   0.000  0.00  0.00    -0.289 N 
ATOM      7  C   UNL     1       3.350   1.367   0.000  0.00  0.00    +0.110 C 
ATOM      8  C   UNL     1       3.350   2.192   0.000  0.00  0.00    +0.094 C 
ATOM      9  N   UNL     1       2.638   2.604   0.000  0.00  0.00    -0.270 NA
ATOM     10  C   UNL     1       1.921   2.192   0.000  0.00  0.00    +0.094 C 
ATOM     11  C   UNL     1       1.921   1.367   0.000  0.00  0.00    +0.110 C 
ATOM     12  N   UNL     1       1.137  -0.029   0.000  0.00  0.00    -0.219 NA
ATOM     13  C   UNL     1       0.650  -0.696   0.000  0.00  0.00    +0.180 A 
ATOM     14  N   UNL     1       1.137  -1.363   0.000  0.00  0.00    -0.292 N 
ATOM     15  C   UNL     1       1.921  -1.108   0.000  0.00  0.00    +0.167 A 
ENDROOT
BRANCH   9  16
ATOM     16  C   UNL     1       2.638   3.429   0.000  0.00  0.00    +0.075 C 
BRANCH  16  17
ATOM     17  C   UNL     1       3.350   3.842   0.000  0.00  0.00    +0.048 C 
ATOM     18  C   UNL     1       3.438   4.658   0.000  0.00  0.00    +0.036 C 
ATOM     19  C   UNL     1       4.242   4.829   0.000  0.00  0.00    +0.142 C 
ATOM     20  O   UNL     1       4.654   4.117   0.000  0.00  0.00    -0.354 OA
ATOM     21  C   UNL     1       4.104   3.504   0.000  0.00  0.00    +0.144 C 
ENDBRANCH  16  17
ENDBRANCH   9  16
BRANCH  14  22
ATOM     22  C   UNL     1       0.883  -2.150   0.000  0.00  0.00    +0.139 C 
BRANCH  22  23
ATOM     23  C   UNL     1       1.433  -2.763   0.000  0.00  0.00    +0.152 C 
ATOM     24  O   UNL     1       1.942  -2.112   0.000  0.00  0.00    -0.223 OA
ATOM     25  C   UNL     1       0.733  -3.200   0.000  0.00  0.00    +0.064 C 
ATOM     26  C   UNL     1       0.762  -4.021   0.000  0.00  0.00    +0.145 C 
ATOM     27  O   UNL     1       1.492  -4.408   0.000  0.00  0.00    -0.354 OA
ATOM     28  C   UNL     1       2.192  -3.971   0.000  0.00  0.00    +0.145 C 
ATOM     29  C   UNL     1       2.163  -3.150   0.000  0.00  0.00    +0.064 C 
ENDBRANCH  22  23
ENDBRANCH  14  22
TORSDOF 4
