REMARK  Name = 
REMARK  3 active torsions:
REMARK  status: ('A' for Active; 'I' for Inactive)
REMARK    1  A    between atoms: C_7  and  N_8
REMARK    2  A    between atoms: C_9  and  C_11
REMARK    3  A    between atoms: C_11  and  C_14
REMARK                            x       y       z     vdW  Elec       q    Type
REMARK                         _______ _______ _______ _____ _____    ______ ____
ROOT
ATOM      1  N   UNL     1       0.000  -3.300   0.000  0.00  0.00    -0.200 NA
ATOM      2  C   UNL     1      -0.715  -3.712   0.000  0.00  0.00    +0.308 C 
ATOM      3  O   UNL     1      -0.715  -4.537   0.000  0.00  0.00    -0.267 OA
ENDROOT
BRANCH   1   6
ATOM      4  O   UNL     1       1.429  -2.475   0.000  0.00  0.00    -0.221 OA
ATOM      5  C   UNL     1       1.429  -3.300   0.000  0.00  0.00    +0.172 C 
ATOM      6  C   UNL     1       0.715  -3.712   0.000  0.00  0.00    +0.126 C 
ATOM      7  C   UNL     1       0.715  -4.537   0.000  0.00  0.00    +0.024 C 
ATOM      8  C   UNL     1       1.429  -4.950   0.000  0.00  0.00    +0.002 C 
ATOM      9  C   UNL     1       2.143  -4.537   0.000  0.00  0.00    +0.003 C 
ATOM     10  C   UNL     1       2.143  -3.712   0.000  0.00  0.00    +0.035 C 
ENDBRANCH   1   6
BRANCH   2  11
ATOM     11  C   UNL     1      -1.429  -3.300   0.000  0.00  0.00    +0.366 C 
ATOM     12  F   UNL     1      -1.841  -4.014   0.000  0.00  0.00    -0.188 F 
ATOM     13  F   UNL     1      -1.016  -2.586   0.000  0.00  0.00    -0.188 F 
BRANCH  11  14
ATOM     14  C   UNL     1      -2.143  -2.888   0.000  0.00  0.00    +0.128 A 
ATOM     15  N   UNL     1      -2.143  -2.062   0.000  0.00  0.00    -0.242 NA
ATOM     16  C   UNL     1      -2.858  -1.650   0.000  0.00  0.00    +0.099 A 
ATOM     17  C   UNL     1      -3.572  -2.062   0.000  0.00  0.00    +0.021 A 
ATOM     18  C   UNL     1      -3.572  -2.888   0.000  0.00  0.00    +0.003 A 
ATOM     19  C   UNL     1      -2.858  -3.300   0.000  0.00  0.00    +0.021 A 
ENDBRANCH  11  14
ENDBRANCH   2  11
TORSDOF 3
