REMARK  Name = 
REMARK  5 active torsions:
REMARK  status: ('A' for Active; 'I' for Inactive)
REMARK    1  A    between atoms: C_2  and  C_3
REMARK    2  A    between atoms: C_5  and  C_6
REMARK    3  A    between atoms: C_6  and  C_7
REMARK    4  A    between atoms: C_7  and  N_8
REMARK    5  A    between atoms: C_9  and  C_11
REMARK                            x       y       z     vdW  Elec       q    Type
REMARK                         _______ _______ _______ _____ _____    ______ ____
ROOT
ATOM      1  C   UNL     1      -0.707  -1.849   0.000  0.00  0.00    +0.122 C 
ENDROOT
BRANCH   1   2
ATOM      2  N   UNL     1       0.007  -1.436   0.000  0.00  0.00    -0.205 NA
ATOM      3  C   UNL     1       0.722  -1.849   0.000  0.00  0.00    +0.240 C 
ATOM      4  O   UNL     1       0.722  -2.674   0.000  0.00  0.00    -0.273 OA
BRANCH   3   5
ATOM      5  C   UNL     1       1.436  -1.436   0.000  0.00  0.00    +0.070 C 
ATOM      6  C   UNL     1       2.221  -1.181   0.000  0.00  0.00    +0.009 C 
ATOM      7  C   UNL     1       2.221  -0.356   0.000  0.00  0.00    +0.000 C 
ATOM      8  C   UNL     1       1.436  -0.101   0.000  0.00  0.00    +0.000 C 
ATOM      9  C   UNL     1       0.952  -0.769   0.000  0.00  0.00    +0.009 C 
ATOM     10  C   UNL     1       1.772  -2.190   0.000  0.00  0.00    +0.009 C 
ENDBRANCH   3   5
ENDBRANCH   1   2
BRANCH   1  11
ATOM     11  C   UNL     1      -1.421  -1.436   0.000  0.00  0.00    +0.076 C 
BRANCH  11  16
ATOM     12  C   UNL     1      -3.442  -2.126   0.000  0.00  0.00    +0.061 A 
ATOM     13  C   UNL     1      -3.029  -2.841   0.000  0.00  0.00    +0.022 A 
ATOM     14  C   UNL     1      -3.365  -3.594   0.000  0.00  0.00    +0.039 C 
ATOM     15  S   UNL     1      -2.222  -2.669   0.000  0.00  0.00    -0.075 S 
ATOM     16  C   UNL     1      -2.136  -1.849   0.000  0.00  0.00    +0.089 A 
ATOM     17  N   UNL     1      -2.890  -1.513   0.000  0.00  0.00    -0.247 NA
BRANCH  12  19
ATOM     18  C   UNL     1      -4.747  -2.707   0.000  0.00  0.00    +0.007 C 
ATOM     19  C   UNL     1      -4.262  -2.040   0.000  0.00  0.00    +0.046 C 
ENDBRANCH  12  19
ENDBRANCH  11  16
ENDBRANCH   1  11
TORSDOF 5
