REMARK  Name = 
REMARK  4 active torsions:
REMARK  status: ('A' for Active; 'I' for Inactive)
REMARK    1  A    between atoms: C_2  and  C_3
REMARK    2  A    between atoms: C_8  and  N_9
REMARK    3  A    between atoms: N_9  and  C_10
REMARK    4  A    between atoms: C_10  and  C_11
REMARK                            x       y       z     vdW  Elec       q    Type
REMARK                         _______ _______ _______ _____ _____    ______ ____
ROOT
ATOM      1  C   UNL     1       0.000   0.000   0.000  0.00  0.00    +0.145 C 
ENDROOT
BRANCH   1   2
ATOM      2  C   UNL     1       0.715  -0.412   0.000  0.00  0.00    +0.153 C 
ATOM      3  O   UNL     1       0.715  -1.238   0.000  0.00  0.00    -0.352 OA
ATOM      4  C   UNL     1       1.429  -1.650   0.000  0.00  0.00    +0.158 C 
ATOM      5  C   UNL     1       2.143  -1.238   0.000  0.00  0.00    +0.087 C 
ATOM      6  N   UNL     1       2.143  -0.412   0.000  0.00  0.00    -0.270 NA
ATOM      7  C   UNL     1       2.858   0.000   0.000  0.00  0.00    +0.072 C 
ATOM      8  C   UNL     1       3.572  -0.412   0.000  0.00  0.00    +0.017 C 
ATOM      9  C   UNL     1       3.572  -1.238   0.000  0.00  0.00    +0.003 C 
ATOM     10  C   UNL     1       2.858  -1.650   0.000  0.00  0.00    +0.019 C 
ATOM     11  C   UNL     1       1.429   0.000   0.000  0.00  0.00    +0.104 C 
ENDBRANCH   1   2
BRANCH   1  12
ATOM     12  N   UNL     1      -0.715  -0.412   0.000  0.00  0.00    -0.216 NA
BRANCH  12  14
ATOM     13  C   UNL     1      -2.143  -0.412   0.000  0.00  0.00    +0.182 A 
ATOM     14  C   UNL     1      -1.429   0.000   0.000  0.00  0.00    +0.175 A 
ATOM     15  N   UNL     1      -1.429   0.825   0.000  0.00  0.00    -0.224 NA
ATOM     16  C   UNL     1      -2.143   1.238   0.000  0.00  0.00    +0.121 A 
ATOM     17  C   UNL     1      -2.858   0.825   0.000  0.00  0.00    +0.120 A 
ATOM     18  N   UNL     1      -2.858   0.000   0.000  0.00  0.00    -0.229 NA
BRANCH  13  20
ATOM     19  N   UNL     1      -2.143  -2.062   0.000  0.00  0.00    -0.189 NA
ATOM     20  C   UNL     1      -2.143  -1.238   0.000  0.00  0.00    +0.123 C 
ENDBRANCH  13  20
ENDBRANCH  12  14
ENDBRANCH   1  12
TORSDOF 4
