REMARK  Name = 
REMARK  3 active torsions:
REMARK  status: ('A' for Active; 'I' for Inactive)
REMARK    1  A    between atoms: N_3  and  C_4
REMARK    2  A    between atoms: C_4  and  C_5
REMARK    3  A    between atoms: N_12  and  C_13
REMARK                            x       y       z     vdW  Elec       q    Type
REMARK                         _______ _______ _______ _____ _____    ______ ____
ROOT
ATOM      1  O   UNL     1       2.143  -3.712   0.000  0.00  0.00    -0.249 OA
ATOM      2  C   UNL     1       2.143  -2.888   0.000  0.00  0.00    +0.344 C 
ATOM      3  N   UNL     1       2.858  -2.475   0.000  0.00  0.00    -0.159 NA
ATOM      4  N   UNL     1       1.429  -2.475   0.000  0.00  0.00    -0.187 NA
ENDROOT
BRANCH   3   5
ATOM      5  C   UNL     1       3.572  -2.888   0.000  0.00  0.00    +0.094 A 
ATOM      6  C   UNL     1       3.572  -3.712   0.000  0.00  0.00    +0.117 A 
ATOM      7  N   UNL     1       4.287  -4.125   0.000  0.00  0.00    -0.228 NA
ATOM      8  C   UNL     1       5.001  -3.712   0.000  0.00  0.00    +0.132 A 
ATOM      9  N   UNL     1       5.716  -4.125   0.000  0.00  0.00    -0.293 N 
ATOM     10  C   UNL     1       5.802  -4.946   0.000  0.00  0.00    +0.092 C 
ATOM     11  C   UNL     1       6.609  -5.117   0.000  0.00  0.00    +0.023 C 
ATOM     12  C   UNL     1       7.021  -4.402   0.000  0.00  0.00    +0.023 C 
ATOM     13  C   UNL     1       6.469  -3.789   0.000  0.00  0.00    +0.092 C 
ATOM     14  C   UNL     1       5.001  -2.888   0.000  0.00  0.00    +0.036 A 
ATOM     15  C   UNL     1       4.287  -2.475   0.000  0.00  0.00    +0.021 A 
ENDBRANCH   3   5
BRANCH   4  16
ATOM     16  C   UNL     1       0.715  -2.888   0.000  0.00  0.00    +0.119 C 
BRANCH  16  17
ATOM     17  C   UNL     1       0.000  -2.475   0.000  0.00  0.00    +0.047 C 
ATOM     18  C   UNL     1      -0.086  -1.655   0.000  0.00  0.00    +0.153 C 
ATOM     19  S   UNL     1      -0.893  -1.483   0.000  0.00  0.00    -0.010 S 
ATOM     20  O   UNL     1      -0.638  -0.698   0.000  0.00  0.00    -0.173 OA
ATOM     21  O   UNL     1      -1.647  -1.147   0.000  0.00  0.00    -0.173 OA
ATOM     22  C   UNL     1      -1.306  -2.197   0.000  0.00  0.00    +0.151 C 
ATOM     23  C   UNL     1      -0.754  -2.811   0.000  0.00  0.00    +0.029 C 
ENDBRANCH  16  17
ENDBRANCH   4  16
TORSDOF 3
