REMARK  Name = 
REMARK  3 active torsions:
REMARK  status: ('A' for Active; 'I' for Inactive)
REMARK    1  A    between atoms: N_9  and  C_10
REMARK    2  A    between atoms: C_10  and  C_11
REMARK    3  A    between atoms: C_11  and  C_12
REMARK                            x       y       z     vdW  Elec       q    Type
REMARK                         _______ _______ _______ _____ _____    ______ ____
ROOT
ATOM      1  F   UNL     1      -2.143   0.412   0.000  0.00  0.00    -0.203 F 
ATOM      2  C   UNL     1      -1.429   0.825   0.000  0.00  0.00    +0.159 A 
ATOM      3  C   UNL     1      -0.715   0.412   0.000  0.00  0.00    +0.130 A 
ATOM      4  N   UNL     1       0.000   0.825   0.000  0.00  0.00    -0.225 NA
ATOM      5  C   UNL     1       0.000   1.650   0.000  0.00  0.00    +0.156 A 
ATOM      6  N   UNL     1       0.715   2.062   0.000  0.00  0.00    -0.142 NA
ATOM      7  C   UNL     1       1.429   1.650   0.000  0.00  0.00    +0.345 C 
ATOM      8  N   UNL     1       2.143   2.062   0.000  0.00  0.00    -0.187 NA
ATOM      9  O   UNL     1       1.429   0.825   0.000  0.00  0.00    -0.249 OA
ATOM     10  C   UNL     1      -0.715   2.062   0.000  0.00  0.00    +0.039 A 
ATOM     11  C   UNL     1      -1.429   1.650   0.000  0.00  0.00    +0.034 A 
ENDROOT
BRANCH   8  12
ATOM     12  C   UNL     1       2.858   1.650   0.000  0.00  0.00    +0.121 C 
BRANCH  12  13
ATOM     13  C   UNL     1       3.572   2.062   0.000  0.00  0.00    +0.045 C 
BRANCH  13  14
ATOM     14  C   UNL     1       4.287   1.650   0.000  0.00  0.00    -0.047 C 
ATOM     15  C   UNL     1       4.373   0.830   0.000  0.00  0.00    +0.022 C 
ATOM     16  C   UNL     1       5.180   0.658   0.000  0.00  0.00    +0.009 C 
ATOM     17  C   UNL     1       5.593   1.373   0.000  0.00  0.00    +0.026 C 
ATOM     18  C   UNL     1       5.040   1.986   0.000  0.00  0.00    -0.035 C 
ENDBRANCH  13  14
ENDBRANCH  12  13
ENDBRANCH   8  12
TORSDOF 3
