REMARK  Name = 
REMARK  6 active torsions:
REMARK  status: ('A' for Active; 'I' for Inactive)
REMARK    1  A    between atoms: C_2  and  C_4
REMARK    2  A    between atoms: C_2  and  N_19
REMARK    3  A    between atoms: C_4  and  N_5
REMARK    4  A    between atoms: C_6  and  C_8
REMARK    5  A    between atoms: C_8  and  N_9
REMARK    6  A    between atoms: C_11  and  N_16
REMARK                            x       y       z     vdW  Elec       q    Type
REMARK                         _______ _______ _______ _____ _____    ______ ____
ROOT
ATOM      1  N   UNL     1       1.429  -2.475   0.000  0.00  0.00    -0.202 NA
ATOM      2  C   UNL     1       1.429  -3.300   0.000  0.00  0.00    +0.265 C 
ATOM      3  O   UNL     1       0.715  -3.712   0.000  0.00  0.00    -0.271 OA
ENDROOT
BRANCH   1   4
ATOM      4  C   UNL     1       0.715  -2.062   0.000  0.00  0.00    +0.130 C 
BRANCH   4   6
ATOM      5  C   UNL     1       1.540  -1.238   0.000  0.00  0.00    +0.018 C 
ATOM      6  C   UNL     1       0.715  -1.238   0.000  0.00  0.00    +0.066 C 
ATOM      7  C   UNL     1      -0.111  -1.238   0.000  0.00  0.00    +0.018 C 
BRANCH   6   8
ATOM      8  N   UNL     1       0.715  -0.412   0.000  0.00  0.00    -0.269 NA
ATOM      9  C   UNL     1       1.429   0.000   0.000  0.00  0.00    +0.105 C 
ATOM     10  C   UNL     1       1.429   0.825   0.000  0.00  0.00    +0.159 C 
ATOM     11  O   UNL     1       0.715   1.238   0.000  0.00  0.00    -0.351 OA
ATOM     12  C   UNL     1       0.000   0.825   0.000  0.00  0.00    +0.159 C 
ATOM     13  C   UNL     1       0.000   0.000   0.000  0.00  0.00    +0.105 C 
ENDBRANCH   6   8
ENDBRANCH   4   6
ENDBRANCH   1   4
BRANCH   2  14
ATOM     14  C   UNL     1       2.143  -3.712   0.000  0.00  0.00    +0.196 C 
BRANCH  14  15
ATOM     15  N   UNL     1       2.143  -4.537   0.000  0.00  0.00    -0.280 N 
ATOM     16  C   UNL     1       1.429  -4.950   0.000  0.00  0.00    +0.262 A 
ATOM     17  O   UNL     1       0.715  -4.537   0.000  0.00  0.00    -0.267 OA
ATOM     18  C   UNL     1       1.429  -5.775   0.000  0.00  0.00    +0.067 A 
ATOM     19  C   UNL     1       2.143  -6.188   0.000  0.00  0.00    +0.082 A 
ATOM     20  C   UNL     1       2.858  -5.775   0.000  0.00  0.00    +0.307 A 
ATOM     21  C   UNL     1       2.858  -4.950   0.000  0.00  0.00    +0.155 A 
BRANCH  20  22
ATOM     22  N   UNL     1       3.572  -6.188   0.000  0.00  0.00    +0.082 N 
ATOM     23  O   UNL     1       4.287  -5.775   0.000  0.00  0.00    -0.576 OA
ATOM     24  O   UNL     1       3.572  -7.013   0.000  0.00  0.00    +0.042 OA
ENDBRANCH  20  22
ENDBRANCH  14  15
ENDBRANCH   2  14
TORSDOF 6
