REMARK  Name = 
REMARK  4 active torsions:
REMARK  status: ('A' for Active; 'I' for Inactive)
REMARK    1  A    between atoms: C_2  and  C_3
REMARK    2  A    between atoms: C_2  and  C_14
REMARK    3  A    between atoms: C_3  and  N_4
REMARK    4  A    between atoms: N_7  and  C_8
REMARK                            x       y       z     vdW  Elec       q    Type
REMARK                         _______ _______ _______ _____ _____    ______ ____
ROOT
ATOM      1  N   UNL     1       3.572  -3.712   0.000  0.00  0.00    -0.187 NA
ATOM      2  C   UNL     1       4.287  -4.125   0.000  0.00  0.00    +0.339 C 
ATOM      3  N   UNL     1       5.001  -3.712   0.000  0.00  0.00    -0.188 NA
ATOM      4  O   UNL     1       4.287  -4.950   0.000  0.00  0.00    -0.249 OA
ENDROOT
BRANCH   3   5
ATOM      5  C   UNL     1       5.716  -4.125   0.000  0.00  0.00    +0.108 C 
ATOM      6  C   UNL     1       5.716  -4.950   0.000  0.00  0.00    +0.079 C 
ATOM      7  S   UNL     1       6.430  -5.362   0.000  0.00  0.00    -0.138 S 
ATOM      8  C   UNL     1       7.145  -4.950   0.000  0.00  0.00    +0.058 C 
ATOM      9  C   UNL     1       7.145  -4.125   0.000  0.00  0.00    +0.013 C 
ATOM     10  C   UNL     1       6.430  -3.712   0.000  0.00  0.00    +0.024 C 
ENDBRANCH   3   5
BRANCH   1  11
ATOM     11  C   UNL     1       2.858  -4.125   0.000  0.00  0.00    +0.123 C 
BRANCH  11  13
ATOM     12  C   UNL     1       2.143  -2.888   0.000  0.00  0.00    +0.009 C 
ATOM     13  C   UNL     1       2.143  -3.712   0.000  0.00  0.00    +0.068 C 
BRANCH  13  14
ATOM     14  C   UNL     1       1.429  -4.125   0.000  0.00  0.00    +0.089 A 
ATOM     15  S   UNL     1       0.675  -3.789   0.000  0.00  0.00    -0.075 S 
ATOM     16  C   UNL     1       0.123  -4.402   0.000  0.00  0.00    +0.028 A 
ATOM     17  C   UNL     1      -0.697  -4.316   0.000  0.00  0.00    +0.040 C 
ATOM     18  C   UNL     1       0.536  -5.117   0.000  0.00  0.00    +0.101 A 
ATOM     19  N   UNL     1       1.343  -4.946   0.000  0.00  0.00    -0.241 NA
ENDBRANCH  13  14
ENDBRANCH  11  13
ENDBRANCH   1  11
TORSDOF 4
