REMARK  Name = 
REMARK  4 active torsions:
REMARK  status: ('A' for Active; 'I' for Inactive)
REMARK    1  A    between atoms: C_3  and  N_4
REMARK    2  A    between atoms: N_4  and  C_5
REMARK    3  A    between atoms: C_5  and  C_6
REMARK    4  A    between atoms: C_11  and  C_12
REMARK                            x       y       z     vdW  Elec       q    Type
REMARK                         _______ _______ _______ _____ _____    ______ ____
ROOT
ATOM      1  C   UNL     1      -0.608   2.001   0.000  0.00  0.00    +0.136 C 
ATOM      2  N   UNL     1      -1.322   2.413   0.000  0.00  0.00    -0.266 N 
ATOM      3  C   UNL     1      -1.322   3.238   0.000  0.00  0.00    +0.335 A 
ATOM      4  O   UNL     1      -0.608   3.651   0.000  0.00  0.00    -0.246 OA
ATOM      5  N   UNL     1      -2.037   3.651   0.000  0.00  0.00    -0.246 N 
ATOM      6  C   UNL     1      -2.037   4.476   0.000  0.00  0.00    +0.138 C 
ATOM      7  C   UNL     1      -2.751   3.238   0.000  0.00  0.00    +0.277 A 
ATOM      8  O   UNL     1      -3.466   3.651   0.000  0.00  0.00    -0.266 OA
ATOM      9  C   UNL     1      -2.751   2.413   0.000  0.00  0.00    +0.156 A 
ATOM     10  C   UNL     1      -2.037   2.001   0.000  0.00  0.00    +0.146 A 
ENDROOT
BRANCH   9  11
ATOM     11  C   UNL     1      -3.466   2.001   0.000  0.00  0.00    +0.108 C 
ATOM     12  N   UNL     1      -4.180   1.588   0.000  0.00  0.00    -0.191 NA
ENDBRANCH   9  11
BRANCH  10  13
ATOM     13  N   UNL     1      -2.037   1.176   0.000  0.00  0.00    -0.218 NA
BRANCH  13  14
ATOM     14  C   UNL     1      -2.751   0.763   0.000  0.00  0.00    +0.143 C 
BRANCH  14  15
ATOM     15  C   UNL     1      -2.751  -0.062   0.000  0.00  0.00    +0.137 C 
ATOM     16  O   UNL     1      -3.419  -0.546   0.000  0.00  0.00    -0.354 OA
ATOM     17  C   UNL     1      -3.164  -1.331   0.000  0.00  0.00    +0.142 C 
ATOM     18  C   UNL     1      -2.339  -1.331   0.000  0.00  0.00    +0.035 C 
ATOM     19  C   UNL     1      -2.084  -0.546   0.000  0.00  0.00    +0.034 C 
ENDBRANCH  14  15
ENDBRANCH  13  14
ENDBRANCH  10  13
TORSDOF 4
