REMARK  Name = 
REMARK  6 active torsions:
REMARK  status: ('A' for Active; 'I' for Inactive)
REMARK    1  A    between atoms: C_2  and  C_3
REMARK    2  A    between atoms: C_2  and  N_19
REMARK    3  A    between atoms: C_3  and  N_4
REMARK    4  A    between atoms: C_5  and  C_7
REMARK    5  A    between atoms: C_7  and  N_8
REMARK    6  A    between atoms: C_10  and  C_15
REMARK                            x       y       z     vdW  Elec       q    Type
REMARK                         _______ _______ _______ _____ _____    ______ ____
ROOT
ATOM      1  N   UNL     1       2.143  -1.238   0.000  0.00  0.00    -0.202 NA
ATOM      2  C   UNL     1       2.858  -0.825   0.000  0.00  0.00    +0.265 C 
ATOM      3  O   UNL     1       2.858   0.000   0.000  0.00  0.00    -0.271 OA
ENDROOT
BRANCH   2   4
ATOM      4  C   UNL     1       3.572  -1.238   0.000  0.00  0.00    +0.196 C 
BRANCH   4   5
ATOM      5  N   UNL     1       4.287  -0.825   0.000  0.00  0.00    -0.285 N 
ATOM      6  C   UNL     1       5.001  -1.238   0.000  0.00  0.00    +0.261 A 
ATOM      7  O   UNL     1       5.001  -2.062   0.000  0.00  0.00    -0.267 OA
ATOM      8  C   UNL     1       5.716  -0.825   0.000  0.00  0.00    +0.061 A 
ATOM      9  C   UNL     1       5.716   0.000   0.000  0.00  0.00    +0.010 A 
ATOM     10  C   UNL     1       5.001   0.412   0.000  0.00  0.00    +0.089 A 
ATOM     11  C   UNL     1       4.287   0.000   0.000  0.00  0.00    +0.083 A 
BRANCH  10  12
ATOM     12  C   UNL     1       5.001   1.238   0.000  0.00  0.00    +0.420 C 
ATOM     13  F   UNL     1       5.826   1.238   0.000  0.00  0.00    -0.166 F 
ATOM     14  F   UNL     1       4.176   1.238   0.000  0.00  0.00    -0.166 F 
ATOM     15  F   UNL     1       5.001   2.062   0.000  0.00  0.00    -0.166 F 
ENDBRANCH  10  12
ENDBRANCH   4   5
ENDBRANCH   2   4
BRANCH   1  16
ATOM     16  C   UNL     1       1.429  -0.825   0.000  0.00  0.00    +0.131 C 
BRANCH  16  18
ATOM     17  C   UNL     1       0.715  -2.062   0.000  0.00  0.00    +0.019 C 
ATOM     18  C   UNL     1       0.715  -1.238   0.000  0.00  0.00    +0.079 C 
BRANCH  18  19
ATOM     19  N   UNL     1       0.000  -0.825   0.000  0.00  0.00    -0.268 NA
ATOM     20  C   UNL     1       0.000   0.000   0.000  0.00  0.00    +0.105 C 
ATOM     21  C   UNL     1      -0.715   0.412   0.000  0.00  0.00    +0.159 C 
ATOM     22  O   UNL     1      -1.429   0.000   0.000  0.00  0.00    -0.351 OA
ATOM     23  C   UNL     1      -1.429  -0.825   0.000  0.00  0.00    +0.159 C 
ATOM     24  C   UNL     1      -0.715  -1.238   0.000  0.00  0.00    +0.105 C 
ENDBRANCH  18  19
ENDBRANCH  16  18
ENDBRANCH   1  16
TORSDOF 6
