REMARK  Name = 
REMARK  5 active torsions:
REMARK  status: ('A' for Active; 'I' for Inactive)
REMARK    1  A    between atoms: C_2  and  N_3
REMARK    2  A    between atoms: C_5  and  N_6
REMARK    3  A    between atoms: N_9  and  C_10
REMARK    4  A    between atoms: C_10  and  C_11
REMARK    5  A    between atoms: C_11  and  N_13
REMARK                            x       y       z     vdW  Elec       q    Type
REMARK                         _______ _______ _______ _____ _____    ______ ____
ROOT
ATOM      1  N   UNL     1       3.163  -2.952   0.000  0.00  0.00    -0.158 NA
ATOM      2  C   UNL     1       3.878  -3.364   0.000  0.00  0.00    +0.344 C 
ATOM      3  N   UNL     1       4.592  -2.952   0.000  0.00  0.00    -0.185 NA
ATOM      4  O   UNL     1       3.878  -4.189   0.000  0.00  0.00    -0.249 OA
ENDROOT
BRANCH   1   8
ATOM      5  N   UNL     1       1.143  -3.642   0.000  0.00  0.00    -0.248 N 
ATOM      6  N   UNL     1       1.556  -4.356   0.000  0.00  0.00    -0.166 NA
ATOM      7  C   UNL     1       2.363  -4.185   0.000  0.00  0.00    +0.138 A 
ATOM      8  C   UNL     1       2.449  -3.364   0.000  0.00  0.00    +0.114 A 
ATOM      9  C   UNL     1       1.695  -3.029   0.000  0.00  0.00    +0.113 A 
BRANCH   5  11
ATOM     10  C   UNL     1      -0.162  -4.223   0.000  0.00  0.00    +0.028 C 
ATOM     11  C   UNL     1       0.323  -3.556   0.000  0.00  0.00    +0.128 C 
ENDBRANCH   5  11
ENDBRANCH   1   8
BRANCH   3  12
ATOM     12  C   UNL     1       5.307  -3.364   0.000  0.00  0.00    +0.133 C 
BRANCH  12  13
ATOM     13  C   UNL     1       6.021  -2.952   0.000  0.00  0.00    +0.079 C 
ATOM     14  C   UNL     1       6.021  -2.127   0.000  0.00  0.00    +0.019 C 
BRANCH  13  15
ATOM     15  N   UNL     1       6.736  -3.364   0.000  0.00  0.00    -0.272 NA
ATOM     16  C   UNL     1       6.822  -4.185   0.000  0.00  0.00    +0.072 C 
ATOM     17  C   UNL     1       7.629  -4.356   0.000  0.00  0.00    +0.019 C 
ATOM     18  C   UNL     1       8.041  -3.642   0.000  0.00  0.00    +0.019 C 
ATOM     19  C   UNL     1       7.489  -3.029   0.000  0.00  0.00    +0.072 C 
ENDBRANCH  13  15
ENDBRANCH  12  13
ENDBRANCH   3  12
TORSDOF 5
