REMARK  Name = 
REMARK  3 active torsions:
REMARK  status: ('A' for Active; 'I' for Inactive)
REMARK    1  A    between atoms: N_5  and  C_6
REMARK    2  A    between atoms: C_6  and  C_7
REMARK    3  A    between atoms: N_12  and  C_13
REMARK                            x       y       z     vdW  Elec       q    Type
REMARK                         _______ _______ _______ _____ _____    ______ ____
ROOT
ATOM      1  C   UNL     1       2.858  -4.125   0.000  0.00  0.00    +0.274 C 
ATOM      2  N   UNL     1       3.572  -3.712   0.000  0.00  0.00    -0.125 NA
ATOM      3  C   UNL     1       4.287  -4.125   0.000  0.00  0.00    +0.346 C 
ATOM      4  N   UNL     1       5.001  -3.712   0.000  0.00  0.00    -0.189 NA
ATOM      5  O   UNL     1       4.287  -4.950   0.000  0.00  0.00    -0.249 OA
ATOM      6  O   UNL     1       2.858  -4.950   0.000  0.00  0.00    -0.271 OA
ENDROOT
BRANCH   4   7
ATOM      7  C   UNL     1       5.716  -4.125   0.000  0.00  0.00    +0.097 C 
ATOM      8  C   UNL     1       5.716  -4.950   0.000  0.00  0.00    +0.022 C 
ATOM      9  C   UNL     1       6.430  -5.362   0.000  0.00  0.00    +0.002 C 
ATOM     10  C   UNL     1       7.145  -4.950   0.000  0.00  0.00    +0.000 C 
ATOM     11  C   UNL     1       7.145  -4.125   0.000  0.00  0.00    +0.002 C 
ATOM     12  C   UNL     1       6.430  -3.712   0.000  0.00  0.00    +0.022 C 
ENDBRANCH   4   7
BRANCH   1  13
ATOM     13  C   UNL     1       2.143  -3.712   0.000  0.00  0.00    +0.217 C 
BRANCH  13  20
ATOM     14 CL   UNL     1      -0.715  -5.362   0.000  0.00  0.00    -0.080 Cl
ATOM     15  C   UNL     1       0.000  -4.950   0.000  0.00  0.00    +0.094 A 
ATOM     16  C   UNL     1       0.715  -5.362   0.000  0.00  0.00    +0.127 A 
ATOM     17 CL   UNL     1       0.715  -6.188   0.000  0.00  0.00    -0.076 Cl
ATOM     18  C   UNL     1       1.429  -4.950   0.000  0.00  0.00    +0.288 A 
ATOM     19  O   UNL     1       2.143  -5.362   0.000  0.00  0.00    -0.265 OA
ATOM     20  N   UNL     1       1.429  -4.125   0.000  0.00  0.00    -0.206 N 
ATOM     21  N   UNL     1       0.715  -3.712   0.000  0.00  0.00    -0.164 NA
ATOM     22  C   UNL     1       0.000  -4.125   0.000  0.00  0.00    +0.133 A 
ENDBRANCH  13  20
ENDBRANCH   1  13
TORSDOF 3
