REMARK  Name = 
REMARK  3 active torsions:
REMARK  status: ('A' for Active; 'I' for Inactive)
REMARK    1  A    between atoms: CA_2  and  C_3
REMARK    2  A    between atoms: CA_2  and  N_5
REMARK    3  A    between atoms: N_8  and  C_9
REMARK                            x       y       z     vdW  Elec       q    Type
REMARK                         _______ _______ _______ _____ _____    ______ ____
ROOT
ATOM      1  C   UNK A   0       5.716  -6.600   0.000  0.00  0.00    +0.094 A 
ATOM      2  C   UNK A   0       5.716  -7.425   0.000  0.00  0.00    +0.117 A 
ATOM      3  N   UNK A   0       6.430  -7.838   0.000  0.00  0.00    -0.228 NA
ATOM      4  C   UNK A   0       7.145  -7.425   0.000  0.00  0.00    +0.132 A 
ATOM      5  N   UNK A   0       7.859  -7.838   0.000  0.00  0.00    -0.293 N 
ATOM      6  C   UNK A   0       7.859  -8.662   0.000  0.00  0.00    +0.092 C 
ATOM      7  C   UNK A   0       8.574  -9.075   0.000  0.00  0.00    +0.022 C 
ATOM      8  C   UNK A   0       9.288  -8.662   0.000  0.00  0.00    +0.004 C 
ATOM      9  C   UNK A   0       9.288  -7.838   0.000  0.00  0.00    +0.022 C 
ATOM     10  C   UNK A   0       8.574  -7.425   0.000  0.00  0.00    +0.092 C 
ATOM     11  C   UNK A   0       7.145  -6.600   0.000  0.00  0.00    +0.036 A 
ATOM     12  C   UNK A   0       6.430  -6.188   0.000  0.00  0.00    +0.021 A 
ENDROOT
BRANCH   1  15
ATOM     13  N   ALA A   1       3.572  -6.188   0.000  0.00  0.00    -0.186 NA
ATOM     14  C   UNK A   0       4.287  -6.600   0.000  0.00  0.00    +0.344 C 
ATOM     15  N   UNK A   0       5.001  -6.188   0.000  0.00  0.00    -0.159 NA
ATOM     16  O   UNK A   0       4.287  -7.425   0.000  0.00  0.00    -0.249 OA
BRANCH  13  18
ATOM     17  CB  ALA A   1       2.858  -7.425   0.000  0.00  0.00    +0.026 C 
ATOM     18  CA  ALA A   1       2.858  -6.600   0.000  0.00  0.00    +0.130 C 
BRANCH  18  19
ATOM     19  C   ALA A   1       2.143  -6.188   0.000  0.00  0.00    +0.204 C 
ATOM     20  O   ALA A   1       1.429  -6.600   0.000  0.00  0.00    -0.219 OA
ENDBRANCH  18  19
ENDBRANCH  13  18
ENDBRANCH   1  15
TORSDOF 3
