REMARK  Name = 
REMARK  7 active torsions:
REMARK  status: ('A' for Active; 'I' for Inactive)
REMARK    1  A    between atoms: C_5  and  O_6
REMARK    2  A    between atoms: O_6  and  C_7
REMARK    3  A    between atoms: C_7  and  C_8
REMARK    4  A    between atoms: C_8  and  N_9
REMARK    5  A    between atoms: C_12  and  N_13
REMARK    6  A    between atoms: N_13  and  C_14
REMARK    7  A    between atoms: C_14  and  C_15
REMARK                            x       y       z     vdW  Elec       q    Type
REMARK                         _______ _______ _______ _____ _____    ______ ____
ROOT
ATOM      1  N   UNL     1       1.429  -6.600   0.000  0.00  0.00    -0.212 N 
ATOM      2  C   UNL     1       0.715  -6.188   0.000  0.00  0.00    +0.288 A 
ATOM      3  O   UNL     1       0.715  -5.362   0.000  0.00  0.00    -0.265 OA
ATOM      4  C   UNL     1       0.000  -6.600   0.000  0.00  0.00    +0.131 A 
ATOM      5 CL   UNL     1      -0.715  -6.188   0.000  0.00  0.00    -0.076 Cl
ATOM      6  C   UNL     1       0.000  -7.425   0.000  0.00  0.00    +0.102 A 
ATOM      7  C   UNL     1       0.715  -7.838   0.000  0.00  0.00    +0.137 A 
ATOM      8  N   UNL     1       1.429  -7.425   0.000  0.00  0.00    -0.164 NA
ENDROOT
BRANCH   1   9
ATOM      9  C   UNL     1       2.143  -6.188   0.000  0.00  0.00    +0.178 C 
BRANCH   9  10
ATOM     10  C   UNL     1       2.143  -5.362   0.000  0.00  0.00    +0.232 C 
BRANCH  10  11
ATOM     11  O   UNL     1       2.858  -4.950   0.000  0.00  0.00    -0.473 OA
BRANCH  11  16
ATOM     12 CL   UNL     1       2.858  -1.650   0.000  0.00  0.00    -0.082 Cl
ATOM     13  C   UNL     1       2.858  -2.475   0.000  0.00  0.00    +0.058 A 
ATOM     14  C   UNL     1       2.143  -2.888   0.000  0.00  0.00    +0.015 A 
ATOM     15  C   UNL     1       2.143  -3.712   0.000  0.00  0.00    +0.038 A 
ATOM     16  C   UNL     1       2.858  -4.125   0.000  0.00  0.00    +0.139 A 
ATOM     17  C   UNL     1       3.572  -3.712   0.000  0.00  0.00    +0.038 A 
ATOM     18  C   UNL     1       3.572  -2.888   0.000  0.00  0.00    +0.015 A 
ENDBRANCH  11  16
ENDBRANCH  10  11
ENDBRANCH   9  10
ENDBRANCH   1   9
BRANCH   6  19
ATOM     19  N   UNL     1      -0.715  -7.838   0.000  0.00  0.00    -0.230 NA
BRANCH  19  20
ATOM     20  C   UNL     1      -0.715  -8.662   0.000  0.00  0.00    +0.138 C 
BRANCH  20  21
ATOM     21  C   UNL     1      -1.429  -9.075   0.000  0.00  0.00    -0.003 C 
ATOM     22  C   UNL     1      -1.429  -9.900   0.000  0.00  0.00    -0.003 C 
ENDBRANCH  20  21
ENDBRANCH  19  20
ENDBRANCH   6  19
TORSDOF 7
