REMARK  Name = 
REMARK  4 active torsions:
REMARK  status: ('A' for Active; 'I' for Inactive)
REMARK    1  A    between atoms: C_2  and  N_3
REMARK    2  A    between atoms: C_2  and  C_18
REMARK    3  A    between atoms: C_4  and  C_6
REMARK    4  A    between atoms: C_8  and  N_12
REMARK                            x       y       z     vdW  Elec       q    Type
REMARK                         _______ _______ _______ _____ _____    ______ ____
ROOT
ATOM      1  C   UNL     1      -2.858  -2.475   0.000  0.00  0.00    +0.137 A 
ATOM      2  N   UNL     1      -3.572  -2.062   0.000  0.00  0.00    -0.239 NA
ATOM      3  C   UNL     1      -4.287  -2.475   0.000  0.00  0.00    +0.100 A 
ATOM      4  C   UNL     1      -4.287  -3.300   0.000  0.00  0.00    +0.035 A 
ATOM      5  C   UNL     1      -3.572  -3.712   0.000  0.00  0.00    +0.051 A 
ATOM      6  C   UNL     1      -2.858  -3.300   0.000  0.00  0.00    +0.038 A 
ENDROOT
BRANCH   5   7
ATOM      7  N   UNL     1      -3.572  -4.537   0.000  0.00  0.00    -0.303 N 
ATOM      8  C   UNL     1      -4.287  -4.950   0.000  0.00  0.00    +0.123 C 
ATOM      9  C   UNL     1      -4.287  -5.775   0.000  0.00  0.00    +0.164 C 
ATOM     10  O   UNL     1      -3.572  -6.188   0.000  0.00  0.00    -0.350 OA
ATOM     11  C   UNL     1      -2.858  -5.775   0.000  0.00  0.00    +0.164 C 
ATOM     12  C   UNL     1      -2.858  -4.950   0.000  0.00  0.00    +0.123 C 
ENDBRANCH   5   7
BRANCH   1  14
ATOM     13  N   UNL     1      -1.429  -2.475   0.000  0.00  0.00    -0.198 NA
ATOM     14  C   UNL     1      -2.143  -2.062   0.000  0.00  0.00    +0.283 C 
ATOM     15  O   UNL     1      -2.143  -1.238   0.000  0.00  0.00    -0.267 OA
BRANCH  13  17
ATOM     16  C   UNL     1      -0.715  -1.238   0.000  0.00  0.00    +0.028 C 
ATOM     17  C   UNL     1      -0.715  -2.062   0.000  0.00  0.00    +0.118 C 
BRANCH  17  18
ATOM     18  C   UNL     1       0.000  -2.475   0.000  0.00  0.00    -0.005 C 
ATOM     19  C   UNL     1       0.715  -2.062   0.000  0.00  0.00    -0.003 C 
ENDBRANCH  17  18
ENDBRANCH  13  17
ENDBRANCH   1  14
TORSDOF 4
