REMARK  Name = 
REMARK  3 active torsions:
REMARK  status: ('A' for Active; 'I' for Inactive)
REMARK    1  A    between atoms: N_2  and  C_4
REMARK    2  A    between atoms: C_4  and  C_5
REMARK    3  A    between atoms: C_5  and  N_6
REMARK                            x       y       z     vdW  Elec       q    Type
REMARK                         _______ _______ _______ _____ _____    ______ ____
ROOT
ATOM      1  C   UNL     1       0.248  -1.407   0.000  0.00  0.00    +0.131 C 
ENDROOT
BRANCH   1   2
ATOM      2  N   UNL     1       0.963  -1.820   0.000  0.00  0.00    -0.186 NA
ATOM      3  C   UNL     1       1.677  -1.407   0.000  0.00  0.00    +0.345 C 
ATOM      4  N   UNL     1       2.392  -1.820   0.000  0.00  0.00    -0.139 NA
ATOM      5  C   UNL     1       3.106  -1.407   0.000  0.00  0.00    +0.197 A 
ATOM      6  N   UNL     1       3.860  -1.743   0.000  0.00  0.00    -0.060 NA
ATOM      7  O   UNL     1       4.412  -1.130   0.000  0.00  0.00    -0.356 OA
ATOM      8  C   UNL     1       3.999  -0.415   0.000  0.00  0.00    +0.156 A 
ATOM      9  C   UNL     1       4.335   0.338   0.000  0.00  0.00    +0.075 C 
ATOM     10  C   UNL     1       3.192  -0.587   0.000  0.00  0.00    +0.075 A 
ATOM     11  O   UNL     1       1.677  -0.582   0.000  0.00  0.00    -0.249 OA
ENDBRANCH   1   2
BRANCH   1  12
ATOM     12  C   UNL     1      -0.466  -1.820   0.000  0.00  0.00    +0.066 C 
ATOM     13  C   UNL     1      -0.749  -1.044   0.000  0.00  0.00    +0.016 C 
ATOM     14  C   UNL     1      -1.561  -0.901   0.000  0.00  0.00    +0.001 C 
ATOM     15  C   UNL     1      -2.091  -1.533   0.000  0.00  0.00    +0.000 C 
ATOM     16  C   UNL     1      -1.809  -2.308   0.000  0.00  0.00    +0.001 C 
ATOM     17  C   UNL     1      -0.997  -2.452   0.000  0.00  0.00    +0.016 C 
BRANCH  12  19
ATOM     18  C   UNL     1      -0.218  -3.227   0.000  0.00  0.00    +0.090 C 
ATOM     19  N   UNL     1       0.064  -2.452   0.000  0.00  0.00    -0.271 NA
ATOM     20  C   UNL     1       0.876  -2.308   0.000  0.00  0.00    +0.090 C 
ENDBRANCH  12  19
ENDBRANCH   1  12
TORSDOF 3
