REMARK  Name = 
REMARK  2 active torsions:
REMARK  status: ('A' for Active; 'I' for Inactive)
REMARK    1  A    between atoms: C_2  and  N_6
REMARK    2  A    between atoms: N_9  and  C_10
REMARK                            x       y       z     vdW  Elec       q    Type
REMARK                         _______ _______ _______ _____ _____    ______ ____
ROOT
ATOM      1  N   UNL     1       3.290  -1.570   0.000  0.00  0.00    -0.190 NA
ATOM      2  C   UNL     1       4.087  -1.783   0.000  0.00  0.00    +0.343 C 
ATOM      3  N   UNL     1       4.670  -1.200   0.000  0.00  0.00    -0.159 NA
ATOM      4  O   UNL     1       4.301  -2.580   0.000  0.00  0.00    -0.249 OA
ENDROOT
BRANCH   3   5
ATOM      5  C   UNL     1       5.467  -1.413   0.000  0.00  0.00    +0.105 A 
ATOM      6  C   UNL     1       5.681  -2.210   0.000  0.00  0.00    +0.174 A 
ATOM      7  F   UNL     1       5.098  -2.794   0.000  0.00  0.00    -0.201 F 
ATOM      8  C   UNL     1       6.478  -2.424   0.000  0.00  0.00    +0.130 A 
ATOM      9  N   UNL     1       7.061  -1.841   0.000  0.00  0.00    -0.240 NA
ATOM     10  C   UNL     1       6.848  -1.044   0.000  0.00  0.00    +0.100 A 
ATOM     11  C   UNL     1       6.051  -0.830   0.000  0.00  0.00    +0.040 A 
ENDBRANCH   3   5
BRANCH   1  13
ATOM     12  C   UNL     1       2.123  -1.570   0.000  0.00  0.00    +0.022 C 
ATOM     13  C   UNL     1       2.707  -2.153   0.000  0.00  0.00    +0.080 C 
ATOM     14  C   UNL     1       2.123  -2.736   0.000  0.00  0.00    +0.020 C 
ATOM     15  C   UNL     1       2.707  -3.320   0.000  0.00  0.00    +0.003 C 
ATOM     16  C   UNL     1       3.290  -2.736   0.000  0.00  0.00    +0.020 C 
ENDBRANCH   1  13
TORSDOF 2
