REMARK  Name = 
REMARK  4 active torsions:
REMARK  status: ('A' for Active; 'I' for Inactive)
REMARK    1  A    between atoms: C_2  and  S_3
REMARK    2  A    between atoms: S_3  and  C_4
REMARK    3  A    between atoms: C_8  and  N_9
REMARK    4  A    between atoms: N_12  and  C_13
REMARK                            x       y       z     vdW  Elec       q    Type
REMARK                         _______ _______ _______ _____ _____    ______ ____
ROOT
ATOM      1  N   UNL     1      -3.489  -1.529   0.000  0.00  0.00    -0.188 NA
ATOM      2  C   UNL     1      -3.660  -0.722   0.000  0.00  0.00    +0.344 C 
ATOM      3  N   UNL     1      -4.445  -0.467   0.000  0.00  0.00    -0.159 NA
ATOM      4  O   UNL     1      -3.047  -0.170   0.000  0.00  0.00    -0.249 OA
ENDROOT
BRANCH   3   5
ATOM      5  C   UNL     1      -5.058  -1.019   0.000  0.00  0.00    +0.105 A 
ATOM      6  C   UNL     1      -5.843  -0.764   0.000  0.00  0.00    +0.174 A 
ATOM      7  F   UNL     1      -6.014   0.043   0.000  0.00  0.00    -0.201 F 
ATOM      8  C   UNL     1      -6.456  -1.316   0.000  0.00  0.00    +0.130 A 
ATOM      9  N   UNL     1      -6.284  -2.123   0.000  0.00  0.00    -0.240 NA
ATOM     10  C   UNL     1      -5.500  -2.378   0.000  0.00  0.00    +0.100 A 
ATOM     11  C   UNL     1      -4.886  -1.826   0.000  0.00  0.00    +0.040 A 
ENDBRANCH   3   5
BRANCH   1  13
ATOM     12  C   UNL     1      -2.037  -1.299   0.000  0.00  0.00    +0.068 C 
ATOM     13  C   UNL     1      -2.704  -1.784   0.000  0.00  0.00    +0.107 C 
ATOM     14  C   UNL     1      -2.449  -2.569   0.000  0.00  0.00    +0.023 C 
ATOM     15  C   UNL     1      -1.624  -2.569   0.000  0.00  0.00    +0.003 C 
ATOM     16  C   UNL     1      -1.369  -1.784   0.000  0.00  0.00    +0.013 C 
BRANCH  12  17
ATOM     17  S   UNL     1      -2.037  -0.474   0.000  0.00  0.00    -0.139 S 
BRANCH  17  19
ATOM     18  C   UNL     1      -1.322   0.763   0.000  0.00  0.00    +0.013 C 
ATOM     19  C   UNL     1      -1.322  -0.062   0.000  0.00  0.00    +0.058 C 
ENDBRANCH  17  19
ENDBRANCH  12  17
ENDBRANCH   1  13
TORSDOF 4
