REMARK  Name = 
REMARK  3 active torsions:
REMARK  status: ('A' for Active; 'I' for Inactive)
REMARK    1  A    between atoms: C_2  and  C_3
REMARK    2  A    between atoms: C_3  and  N_4
REMARK    3  A    between atoms: N_12  and  C_13
REMARK                            x       y       z     vdW  Elec       q    Type
REMARK                         _______ _______ _______ _____ _____    ______ ____
ROOT
ATOM      1  O   UNL     1       2.888  -2.421   0.000  0.00  0.00    -0.271 OA
ATOM      2  C   UNL     1       2.173  -2.009   0.000  0.00  0.00    +0.265 C 
ATOM      3  N   UNL     1       2.173  -1.184   0.000  0.00  0.00    -0.206 NA
ENDROOT
BRANCH   3   4
ATOM      4  C   UNL     1       2.888  -0.771   0.000  0.00  0.00    +0.095 C 
ATOM      5  C   UNL     1       3.542  -1.274   0.000  0.00  0.00    +0.022 C 
ATOM      6  C   UNL     1       4.360  -1.166   0.000  0.00  0.00    +0.002 C 
ATOM      7  C   UNL     1       4.862  -0.511   0.000  0.00  0.00    +0.000 C 
ATOM      8  C   UNL     1       4.755   0.307   0.000  0.00  0.00    +0.000 C 
ATOM      9  C   UNL     1       4.100   0.809   0.000  0.00  0.00    +0.000 C 
ATOM     10  C   UNL     1       3.282   0.701   0.000  0.00  0.00    +0.002 C 
ATOM     11  C   UNL     1       2.780   0.047   0.000  0.00  0.00    +0.022 C 
ENDBRANCH   3   4
BRANCH   2  12
ATOM     12  C   UNL     1       1.459  -2.421   0.000  0.00  0.00    +0.197 C 
BRANCH  12  13
ATOM     13  N   UNL     1       1.459  -3.246   0.000  0.00  0.00    -0.269 N 
ATOM     14  C   UNL     1       0.744  -3.659   0.000  0.00  0.00    +0.353 A 
ATOM     15  O   UNL     1       0.030  -3.246   0.000  0.00  0.00    -0.244 OA
ATOM     16  N   UNL     1       0.744  -4.484   0.000  0.00  0.00    -0.153 NA
ATOM     17  C   UNL     1       1.459  -4.896   0.000  0.00  0.00    +0.285 A 
ATOM     18  O   UNL     1       1.459  -5.721   0.000  0.00  0.00    -0.265 OA
ATOM     19  C   UNL     1       2.173  -4.484   0.000  0.00  0.00    +0.081 A 
ATOM     20  C   UNL     1       2.173  -3.659   0.000  0.00  0.00    +0.085 A 
ENDBRANCH  12  13
ENDBRANCH   2  12
TORSDOF 3
