REMARK  Name = 
REMARK  1 active torsions:
REMARK  status: ('A' for Active; 'I' for Inactive)
REMARK    1  A    between atoms: N_8  and  C_9
REMARK                            x       y       z     vdW  Elec       q    Type
REMARK                         _______ _______ _______ _____ _____    ______ ____
ROOT
ATOM      1  C   UNL     1      -3.506  -3.070   0.000  0.00  0.00    +0.075 C 
ATOM      2  C   UNL     1      -2.752  -2.735   0.000  0.00  0.00    +0.156 A 
ATOM      3  O   UNL     1      -2.038  -3.147   0.000  0.00  0.00    -0.356 OA
ATOM      4  N   UNL     1      -1.425  -2.595   0.000  0.00  0.00    -0.060 NA
ATOM      5  C   UNL     1      -1.760  -1.841   0.000  0.00  0.00    +0.197 A 
ATOM      6  N   UNL     1      -1.348  -1.127   0.000  0.00  0.00    -0.139 NA
ATOM      7  C   UNL     1      -0.523  -1.127   0.000  0.00  0.00    +0.345 C 
ATOM      8  N   UNL     1      -0.111  -0.412   0.000  0.00  0.00    -0.189 NA
ATOM      9  O   UNL     1      -0.111  -1.841   0.000  0.00  0.00    -0.249 OA
ATOM     10  C   UNL     1      -2.581  -1.928   0.000  0.00  0.00    +0.075 A 
ENDROOT
BRANCH   8  11
ATOM     11  C   UNL     1       0.715  -0.412   0.000  0.00  0.00    +0.097 C 
ATOM     12  C   UNL     1       1.429  -0.825   0.000  0.00  0.00    +0.022 C 
ATOM     13  C   UNL     1       2.143  -1.238   0.000  0.00  0.00    +0.002 C 
ATOM     14  C   UNL     1       2.858  -0.825   0.000  0.00  0.00    +0.000 C 
ATOM     15  C   UNL     1       2.858   0.000   0.000  0.00  0.00    +0.000 C 
ATOM     16  C   UNL     1       2.143   0.412   0.000  0.00  0.00    +0.002 C 
ATOM     17  C   UNL     1       1.429   0.000   0.000  0.00  0.00    +0.022 C 
ENDBRANCH   8  11
TORSDOF 1
