REMARK  Name = 
REMARK  5 active torsions:
REMARK  status: ('A' for Active; 'I' for Inactive)
REMARK    1  A    between atoms: N_1  and  C_4
REMARK    2  A    between atoms: N_3  and  C_11
REMARK    3  A    between atoms: C_10  and  C_18
REMARK    4  A    between atoms: C_14  and  C_21
REMARK    5  A    between atoms: C_14  and  C_22
REMARK                            x       y       z     vdW  Elec       q    Type
REMARK                         _______ _______ _______ _____ _____    ______ ____
ROOT
ATOM      1  C   UNL     1       3.280   1.240   0.000  0.00  0.00    +0.154 A 
ATOM      2  N   UNL     1       3.998   0.826   0.000  0.00  0.00    -0.207 NA
ATOM      3  C   UNL     1       3.998   0.000   0.000  0.00  0.00    +0.201 A 
ATOM      4  N   UNL     1       3.280  -0.413   0.000  0.00  0.00    -0.205 NA
ATOM      5  C   UNL     1       2.567   0.000   0.000  0.00  0.00    +0.167 A 
ATOM      6  N   UNL     1       1.782  -0.255   0.000  0.00  0.00    -0.296 N 
ATOM      7  C   UNL     1       1.294   0.413   0.000  0.00  0.00    +0.180 A 
ATOM      8  N   UNL     1       1.782   1.085   0.000  0.00  0.00    -0.219 NA
ATOM      9  C   UNL     1       2.567   0.826   0.000  0.00  0.00    +0.149 A 
ENDROOT
BRANCH   1  10
ATOM     10  N   UNL     1       3.280   2.066   0.000  0.00  0.00    -0.293 N 
ATOM     11  C   UNL     1       3.865   2.654   0.000  0.00  0.00    +0.076 C 
ATOM     12  C   UNL     1       3.280   3.239   0.000  0.00  0.00    +0.035 C 
ATOM     13  C   UNL     1       2.567   3.652   0.000  0.00  0.00    +0.003 C 
ATOM     14  C   UNL     1       2.567   4.474   0.000  0.00  0.00    +0.000 C 
ATOM     15  C   UNL     1       3.280   4.887   0.000  0.00  0.00    +0.000 C 
ATOM     16  C   UNL     1       3.998   4.474   0.000  0.00  0.00    +0.000 C 
ATOM     17  C   UNL     1       3.998   3.652   0.000  0.00  0.00    +0.003 C 
ATOM     18  C   UNL     1       2.696   2.654   0.000  0.00  0.00    +0.094 C 
BRANCH  11  19
ATOM     19  C   UNL     1       4.691   2.654   0.000  0.00  0.00    +0.018 C 
ATOM     20  C   UNL     1       5.104   3.368   0.000  0.00  0.00    +0.002 C 
ATOM     21  C   UNL     1       5.104   1.937   0.000  0.00  0.00    +0.002 C 
ENDBRANCH  11  19
ENDBRANCH   1  10
BRANCH   6  22
ATOM     22  C   UNL     1       1.523  -1.039   0.000  0.00  0.00    +0.089 C 
ATOM     23  C   UNL     1       0.789  -1.415   0.000  0.00  0.00    +0.028 C 
ATOM     24  C   UNL     1       1.164  -2.149   0.000  0.00  0.00    +0.065 C 
ATOM     25  C   UNL     1       1.899  -1.774   0.000  0.00  0.00    +0.028 C 
BRANCH  24  26
ATOM     26  C   UNL     1       1.540  -2.888   0.000  0.00  0.00    +0.185 C 
ATOM     27  O   UNL     1       2.366  -2.930   0.000  0.00  0.00    -0.220 OA
ENDBRANCH  24  26
BRANCH  24  28
ATOM     28  C   UNL     1       0.430  -2.525   0.000  0.00  0.00    +0.185 C 
ATOM     29  O   UNL     1      -0.267  -2.074   0.000  0.00  0.00    -0.220 OA
ENDBRANCH  24  28
ENDBRANCH   6  22
TORSDOF 5
