REMARK  Name = 
REMARK  2 active torsions:
REMARK  status: ('A' for Active; 'I' for Inactive)
REMARK    1  A    between atoms: C_1  and  C_5
REMARK    2  A    between atoms: C_6  and  C_12
REMARK                            x       y       z     vdW  Elec       q    Type
REMARK                         _______ _______ _______ _____ _____    ______ ____
ROOT
ATOM      1  C   UNL     1       0.842  -2.271   0.000  0.00  0.00    +0.242 A 
ATOM      2  O   UNL     1       0.588  -1.488   0.000  0.00  0.00    -0.422 OA
ATOM      3  C   UNL     1       1.254  -1.004   0.000  0.00  0.00    +0.226 A 
ATOM      4  N   UNL     1       1.921  -1.488   0.000  0.00  0.00    -0.112 NA
ATOM      5  N   UNL     1       1.667  -2.271   0.000  0.00  0.00    -0.110 NA
ENDROOT
BRANCH   1   6
ATOM      6  C   UNL     1       0.358  -2.942   0.000  0.00  0.00    +0.153 C 
ATOM      7  C   UNL     1       0.613  -3.725   0.000  0.00  0.00    +0.061 C 
ATOM      8  C   UNL     1      -0.054  -4.208   0.000  0.00  0.00    +0.171 C 
ATOM      9  C   UNL     1      -0.725  -3.725   0.000  0.00  0.00    +0.122 C 
ATOM     10  O   UNL     1      -0.054  -5.033   0.000  0.00  0.00    -0.222 OA
ATOM     11  N   UNL     1      -0.467  -2.942   0.000  0.00  0.00    -0.207 NA
ENDBRANCH   1   6
BRANCH   3  12
ATOM     12  C   UNL     1       1.254  -0.179   0.000  0.00  0.00    +0.087 C 
ATOM     13  C   UNL     1       1.971   0.233   0.000  0.00  0.00    +0.010 C 
ENDBRANCH   3  12
TORSDOF 2
