REMARK  Name = 
REMARK  5 active torsions:
REMARK  status: ('A' for Active; 'I' for Inactive)
REMARK    1  A    between atoms: N_4  and  C_5
REMARK    2  A    between atoms: C_5  and  C_6
REMARK    3  A    between atoms: C_6  and  N_7
REMARK    4  A    between atoms: C_8  and  C_10
REMARK    5  A    between atoms: C_10  and  N_11
REMARK                            x       y       z     vdW  Elec       q    Type
REMARK                         _______ _______ _______ _____ _____    ______ ____
ROOT
ATOM      1  N   UNL     1       0.715   1.238   0.000  0.00  0.00    -0.202 NA
ATOM      2  C   UNL     1       1.429   0.825   0.000  0.00  0.00    +0.266 C 
ATOM      3  O   UNL     1       1.429   0.000   0.000  0.00  0.00    -0.271 OA
ENDROOT
BRANCH   1   4
ATOM      4  C   UNL     1       0.000   0.825   0.000  0.00  0.00    +0.132 C 
BRANCH   4   5
ATOM      5  C   UNL     1      -0.715   1.238   0.000  0.00  0.00    +0.096 C 
BRANCH   5  12
ATOM      6  C   UNL     1      -3.572   1.238   0.000  0.00  0.00    +0.034 C 
ATOM      7  C   UNL     1      -2.858   0.825   0.000  0.00  0.00    +0.131 C 
ATOM      8  O   UNL     1      -2.858   0.000   0.000  0.00  0.00    -0.356 OA
ATOM      9  C   UNL     1      -2.143  -0.412   0.000  0.00  0.00    +0.131 C 
ATOM     10  C   UNL     1      -2.143  -1.238   0.000  0.00  0.00    +0.034 C 
ATOM     11  C   UNL     1      -1.429   0.000   0.000  0.00  0.00    +0.102 C 
ATOM     12  N   UNL     1      -1.429   0.825   0.000  0.00  0.00    -0.267 NA
ATOM     13  C   UNL     1      -2.143   1.238   0.000  0.00  0.00    +0.102 C 
ENDBRANCH   5  12
ENDBRANCH   4   5
ENDBRANCH   1   4
BRANCH   2  14
ATOM     14  C   UNL     1       2.143   1.238   0.000  0.00  0.00    +0.213 C 
BRANCH  14  15
ATOM     15  N   UNL     1       2.858   0.825   0.000  0.00  0.00    -0.246 N 
ATOM     16  C   UNL     1       2.944   0.004   0.000  0.00  0.00    +0.058 A 
ATOM     17  C   UNL     1       2.331  -0.547   0.000  0.00  0.00    +0.052 C 
ATOM     18  C   UNL     1       3.751  -0.167   0.000  0.00  0.00    +0.031 A 
ATOM     19  C   UNL     1       4.164   0.547   0.000  0.00  0.00    +0.080 A 
ATOM     20  C   UNL     1       4.984   0.634   0.000  0.00  0.00    +0.054 C 
ATOM     21  N   UNL     1       3.612   1.161   0.000  0.00  0.00    -0.174 NA
ENDBRANCH  14  15
ENDBRANCH   2  14
TORSDOF 5
