REMARK  Name = 
REMARK  6 active torsions:
REMARK  status: ('A' for Active; 'I' for Inactive)
REMARK    1  A    between atoms: C_2  and  N_6
REMARK    2  A    between atoms: N_3  and  C_13
REMARK    3  A    between atoms: N_10  and  C_19
REMARK    4  A    between atoms: C_12  and  C_13
REMARK    5  A    between atoms: C_12  and  C_22
REMARK    6  A    between atoms: C_19  and  C_26
REMARK                            x       y       z     vdW  Elec       q    Type
REMARK                         _______ _______ _______ _____ _____    ______ ____
ROOT
ATOM      1  C   UNL     1       2.562   0.825   0.000  0.00  0.00    +0.149 A 
ATOM      2  N   UNL     1       1.779   1.083   0.000  0.00  0.00    -0.219 NA
ATOM      3  C   UNL     1       1.292   0.412   0.000  0.00  0.00    +0.180 A 
ATOM      4  N   UNL     1       1.779  -0.254   0.000  0.00  0.00    -0.294 N 
ATOM      5  C   UNL     1       2.562   0.000   0.000  0.00  0.00    +0.167 A 
ATOM      6  N   UNL     1       3.275  -0.412   0.000  0.00  0.00    -0.205 NA
ATOM      7  C   UNL     1       3.992   0.000   0.000  0.00  0.00    +0.201 A 
ATOM      8  N   UNL     1       3.992   0.825   0.000  0.00  0.00    -0.207 NA
ATOM      9  C   UNL     1       3.275   1.238   0.000  0.00  0.00    +0.154 A 
ENDROOT
BRANCH   9  10
ATOM     10  N   UNL     1       3.275   2.062   0.000  0.00  0.00    -0.291 N 
ATOM     11  C   UNL     1       3.992   2.475   0.000  0.00  0.00    +0.109 C 
ATOM     12  C   UNL     1       3.992   3.300   0.000  0.00  0.00    +0.094 C 
ATOM     13  N   UNL     1       3.275   3.712   0.000  0.00  0.00    -0.268 NA
ATOM     14  C   UNL     1       2.562   3.300   0.000  0.00  0.00    +0.092 C 
ATOM     15  C   UNL     1       2.562   2.475   0.000  0.00  0.00    +0.090 C 
ATOM     16  C   UNL     1       1.850   2.062   0.000  0.00  0.00    +0.023 C 
BRANCH  13  17
ATOM     17  C   UNL     1       3.275   4.533   0.000  0.00  0.00    +0.105 C 
BRANCH  17  18
ATOM     18  C   UNL     1       2.562   4.950   0.000  0.00  0.00    +0.168 C 
ATOM     19  C   UNL     1       2.562   5.775   0.000  0.00  0.00    +0.037 C 
ATOM     20  O   UNL     1       1.850   4.533   0.000  0.00  0.00    -0.222 OA
ENDBRANCH  17  18
ENDBRANCH  13  17
ENDBRANCH   9  10
BRANCH   4  21
ATOM     21  C   UNL     1       1.521  -1.038   0.000  0.00  0.00    +0.116 C 
BRANCH  21  22
ATOM     22  C   UNL     1       0.717  -1.208   0.000  0.00  0.00    +0.106 C 
ATOM     23  C   UNL     1       0.887  -2.017   0.000  0.00  0.00    +0.149 C 
ATOM     24  O   UNL     1       0.079  -2.188   0.000  0.00  0.00    -0.353 OA
ATOM     25  C   UNL     1      -0.092  -1.379   0.000  0.00  0.00    +0.149 C 
BRANCH  22  26
ATOM     26  C   UNL     1       0.546  -0.400   0.000  0.00  0.00    +0.189 C 
ATOM     27  O   UNL     1      -0.242  -0.146   0.000  0.00  0.00    -0.220 OA
ENDBRANCH  22  26
ENDBRANCH  21  22
ENDBRANCH   4  21
TORSDOF 6
