REMARK  Name = 
REMARK  1 active torsions:
REMARK  status: ('A' for Active; 'I' for Inactive)
REMARK    1  A    between atoms: N_3  and  C_4
REMARK                            x       y       z     vdW  Elec       q    Type
REMARK                         _______ _______ _______ _____ _____    ______ ____
ROOT
ATOM      1  O   UNL     1       4.180  -1.712   0.000  0.00  0.00    -0.249 OA
ATOM      2  C   UNL     1       3.466  -1.299   0.000  0.00  0.00    +0.345 C 
ATOM      3  N   UNL     1       3.466  -0.474   0.000  0.00  0.00    -0.140 NA
ATOM      4  C   UNL     1       4.180  -0.062   0.000  0.00  0.00    +0.177 A 
ATOM      5  N   UNL     1       4.895  -0.474   0.000  0.00  0.00    -0.131 NA
ATOM      6  N   UNL     1       5.609  -0.062   0.000  0.00  0.00    -0.145 NA
ATOM      7  C   UNL     1       5.609   0.763   0.000  0.00  0.00    +0.122 A 
ATOM      8  C   UNL     1       4.895   1.176   0.000  0.00  0.00    +0.025 A 
ATOM      9  C   UNL     1       4.180   0.763   0.000  0.00  0.00    +0.040 A 
ATOM     10  N   UNL     1       2.751  -1.712   0.000  0.00  0.00    -0.189 NA
ENDROOT
BRANCH  10  11
ATOM     11  C   UNL     1       2.751  -2.537   0.000  0.00  0.00    +0.097 C 
ATOM     12  C   UNL     1       2.084  -3.022   0.000  0.00  0.00    +0.022 C 
ATOM     13  C   UNL     1       2.339  -3.806   0.000  0.00  0.00    +0.002 C 
ATOM     14  C   UNL     1       3.164  -3.806   0.000  0.00  0.00    +0.002 C 
ATOM     15  C   UNL     1       3.419  -3.022   0.000  0.00  0.00    +0.022 C 
ENDBRANCH  10  11
TORSDOF 1
