REMARK  Name = 
REMARK  5 active torsions:
REMARK  status: ('A' for Active; 'I' for Inactive)
REMARK    1  A    between atoms: C_2  and  N_3
REMARK    2  A    between atoms: C_2  and  C_18
REMARK    3  A    between atoms: C_4  and  C_6
REMARK    4  A    between atoms: C_6  and  N_7
REMARK    5  A    between atoms: C_9  and  C_14
REMARK                            x       y       z     vdW  Elec       q    Type
REMARK                         _______ _______ _______ _____ _____    ______ ____
ROOT
ATOM      1  N   UNL     1       3.572  -2.888   0.000  0.00  0.00    -0.285 N 
ATOM      2  C   UNL     1       3.572  -3.712   0.000  0.00  0.00    +0.261 A 
ATOM      3  O   UNL     1       2.858  -4.125   0.000  0.00  0.00    -0.267 OA
ATOM      4  C   UNL     1       4.287  -4.125   0.000  0.00  0.00    +0.061 A 
ATOM      5  C   UNL     1       5.001  -3.712   0.000  0.00  0.00    +0.010 A 
ATOM      6  C   UNL     1       5.001  -2.888   0.000  0.00  0.00    +0.089 A 
ATOM      7  C   UNL     1       4.287  -2.475   0.000  0.00  0.00    +0.083 A 
ENDROOT
BRANCH   6   8
ATOM      8  C   UNL     1       5.716  -2.475   0.000  0.00  0.00    +0.420 C 
ATOM      9  F   UNL     1       6.128  -3.189   0.000  0.00  0.00    -0.166 F 
ATOM     10  F   UNL     1       5.303  -1.760   0.000  0.00  0.00    -0.166 F 
ATOM     11  F   UNL     1       6.430  -2.062   0.000  0.00  0.00    -0.166 F 
ENDBRANCH   6   8
BRANCH   1  12
ATOM     12  C   UNL     1       2.858  -2.475   0.000  0.00  0.00    +0.196 C 
BRANCH  12  14
ATOM     13  N   UNL     1       1.429  -2.475   0.000  0.00  0.00    -0.206 NA
ATOM     14  C   UNL     1       2.143  -2.888   0.000  0.00  0.00    +0.264 C 
ATOM     15  O   UNL     1       2.143  -3.712   0.000  0.00  0.00    -0.271 OA
BRANCH  13  17
ATOM     16  C   UNL     1       0.715  -3.712   0.000  0.00  0.00    +0.023 C 
ATOM     17  C   UNL     1       0.715  -2.888   0.000  0.00  0.00    +0.095 C 
BRANCH  17  18
ATOM     18  C   UNL     1       0.000  -2.475   0.000  0.00  0.00    +0.020 C 
ATOM     19  C   UNL     1      -0.412  -1.760   0.000  0.00  0.00    +0.002 C 
ATOM     20  C   UNL     1      -0.825  -2.475   0.000  0.00  0.00    +0.002 C 
ENDBRANCH  17  18
ENDBRANCH  13  17
ENDBRANCH  12  14
ENDBRANCH   1  12
TORSDOF 5
