REMARK  Name = 
REMARK  5 active torsions:
REMARK  status: ('A' for Active; 'I' for Inactive)
REMARK    1  A    between atoms: C_2  and  N_3
REMARK    2  A    between atoms: C_4  and  C_6
REMARK    3  A    between atoms: C_6  and  N_7
REMARK    4  A    between atoms: C_10  and  C_11
REMARK    5  A    between atoms: N_14  and  C_15
REMARK                            x       y       z     vdW  Elec       q    Type
REMARK                         _______ _______ _______ _____ _____    ______ ____
ROOT
ATOM      1  N   UNL     1       3.572  -2.888   0.000  0.00  0.00    -0.239 N 
ATOM      2  C   UNL     1       3.572  -3.712   0.000  0.00  0.00    +0.334 A 
ATOM      3  O   UNL     1       2.858  -4.125   0.000  0.00  0.00    -0.246 OA
ATOM      4  N   UNL     1       4.287  -4.125   0.000  0.00  0.00    -0.281 N 
ATOM      5  C   UNL     1       5.001  -3.712   0.000  0.00  0.00    +0.095 A 
ATOM      6  C   UNL     1       5.001  -2.888   0.000  0.00  0.00    +0.142 A 
ATOM      7  C   UNL     1       4.287  -2.475   0.000  0.00  0.00    +0.276 A 
ATOM      8  O   UNL     1       4.287  -1.650   0.000  0.00  0.00    -0.266 OA
ENDROOT
BRANCH   4   9
ATOM      9  C   UNL     1       4.287  -4.950   0.000  0.00  0.00    +0.090 C 
ATOM     10  C   UNL     1       3.874  -5.665   0.000  0.00  0.00    +0.025 C 
ATOM     11  C   UNL     1       4.699  -5.665   0.000  0.00  0.00    +0.025 C 
ENDBRANCH   4   9
BRANCH   6  12
ATOM     12  C   UNL     1       5.716  -2.475   0.000  0.00  0.00    +0.107 C 
ATOM     13  N   UNL     1       6.430  -2.062   0.000  0.00  0.00    -0.191 NA
ENDBRANCH   6  12
BRANCH   1  14
ATOM     14  C   UNL     1       2.858  -2.475   0.000  0.00  0.00    +0.200 C 
BRANCH  14  16
ATOM     15  N   UNL     1       1.429  -2.475   0.000  0.00  0.00    -0.204 NA
ATOM     16  C   UNL     1       2.143  -2.888   0.000  0.00  0.00    +0.265 C 
ATOM     17  O   UNL     1       2.143  -3.712   0.000  0.00  0.00    -0.271 OA
BRANCH  15  19
ATOM     18  C   UNL     1       0.000  -2.475   0.000  0.00  0.00    +0.025 C 
ATOM     19  C   UNL     1       0.715  -2.888   0.000  0.00  0.00    +0.115 C 
ENDBRANCH  15  19
ENDBRANCH  14  16
ENDBRANCH   1  14
TORSDOF 5
