REMARK  Name = 
REMARK  6 active torsions:
REMARK  status: ('A' for Active; 'I' for Inactive)
REMARK    1  A    between atoms: N_1  and  C_8
REMARK    2  A    between atoms: N_2  and  C_7
REMARK    3  A    between atoms: C_8  and  C_9
REMARK    4  A    between atoms: N_10  and  C_12
REMARK    5  A    between atoms: C_13  and  O_15
REMARK    6  A    between atoms: O_15  and  C_19
REMARK                            x       y       z     vdW  Elec       q    Type
REMARK                         _______ _______ _______ _____ _____    ______ ____
ROOT
ATOM      1  C   UNL     1       4.179   3.242   0.000  0.00  0.00    +0.269 C 
ATOM      2  O   UNL     1       4.179   2.417   0.000  0.00  0.00    -0.271 OA
ATOM      3  N   UNL     1       3.462   3.654   0.000  0.00  0.00    -0.174 NA
ENDROOT
BRANCH   3   4
ATOM      4  C   UNL     1       2.750   3.242   0.000  0.00  0.00    +0.108 A 
ATOM      5  C   UNL     1       2.750   2.417   0.000  0.00  0.00    +0.020 A 
ATOM      6  C   UNL     1       2.033   2.004   0.000  0.00  0.00    +0.002 A 
ATOM      7  C   UNL     1       1.321   2.417   0.000  0.00  0.00    +0.003 A 
ATOM      8  C   UNL     1       1.321   3.242   0.000  0.00  0.00    +0.039 A 
ATOM      9  C   UNL     1       2.033   3.654   0.000  0.00  0.00    +0.160 A 
BRANCH   9  10
ATOM     10  O   UNL     1       2.033   4.475   0.000  0.00  0.00    -0.452 OA
BRANCH  10  11
ATOM     11  C   UNL     1       2.750   4.888   0.000  0.00  0.00    +0.145 A 
ATOM     12  C   UNL     1       3.462   4.475   0.000  0.00  0.00    +0.037 A 
ATOM     13  C   UNL     1       4.179   4.888   0.000  0.00  0.00    +0.003 A 
ATOM     14  C   UNL     1       4.179   5.713   0.000  0.00  0.00    +0.000 A 
ATOM     15  C   UNL     1       3.462   6.125   0.000  0.00  0.00    +0.003 A 
ATOM     16  C   UNL     1       2.750   5.713   0.000  0.00  0.00    +0.037 A 
ENDBRANCH  10  11
ENDBRANCH   9  10
ENDBRANCH   3   4
BRANCH   1  17
ATOM     17  C   UNL     1       4.892   3.654   0.000  0.00  0.00    +0.201 C 
BRANCH  17  18
ATOM     18  N   UNL     1       5.608   3.242   0.000  0.00  0.00    -0.238 N 
ATOM     19  C   UNL     1       6.321   3.654   0.000  0.00  0.00    +0.294 A 
ATOM     20  O   UNL     1       6.321   4.475   0.000  0.00  0.00    -0.264 OA
ATOM     21  C   UNL     1       7.037   3.242   0.000  0.00  0.00    +0.213 A 
ATOM     22  F   UNL     1       7.750   3.654   0.000  0.00  0.00    -0.198 F 
ATOM     23  C   UNL     1       7.037   2.417   0.000  0.00  0.00    +0.116 A 
ATOM     24  N   UNL     1       6.321   2.004   0.000  0.00  0.00    -0.255 N 
ATOM     25  C   UNL     1       5.608   2.417   0.000  0.00  0.00    +0.336 A 
ATOM     26  O   UNL     1       4.892   2.004   0.000  0.00  0.00    -0.246 OA
BRANCH  24  27
ATOM     27  C   UNL     1       6.321   1.179   0.000  0.00  0.00    +0.208 C 
ATOM     28  C   UNL     1       6.987   0.692   0.000  0.00  0.00    +0.057 C 
ATOM     29  C   UNL     1       6.733  -0.092   0.000  0.00  0.00    +0.037 C 
ATOM     30  C   UNL     1       5.908  -0.092   0.000  0.00  0.00    +0.144 C 
ATOM     31  O   UNL     1       5.654   0.692   0.000  0.00  0.00    -0.335 OA
ENDBRANCH  24  27
ENDBRANCH  17  18
ENDBRANCH   1  17
TORSDOF 6
