REMARK  Name = 
REMARK  5 active torsions:
REMARK  status: ('A' for Active; 'I' for Inactive)
REMARK    1  A    between atoms: C_2  and  CA_4
REMARK    2  A    between atoms: CA_4  and  CB_5
REMARK    3  A    between atoms: CA_4  and  N_11
REMARK    4  A    between atoms: CB_5  and  CG_6
REMARK    5  A    between atoms: C_12  and  C_14
REMARK                            x       y       z     vdW  Elec       q    Type
REMARK                         _______ _______ _______ _____ _____    ______ ____
ROOT
ATOM      1  CA  HIS A   1       1.429  -2.475   0.000  0.00  0.00    +0.204 C 
ENDROOT
BRANCH   1   3
ATOM      2  O   HIS A   1       2.143  -1.238   0.000  0.00  0.00    -0.244 OA
ATOM      3  C   HIS A   1       1.429  -1.650   0.000  0.00  0.00    +0.385 C 
ATOM      4  OXT HIS A   1       0.715  -1.238   0.000  0.00  0.00    -0.244 OA
ENDBRANCH   1   3
BRANCH   1   5
ATOM      5  N   HIS A   1       2.143  -2.888   0.000  0.00  0.00    -0.195 NA
ATOM      6  C   UNK A   0       2.858  -2.475   0.000  0.00  0.00    +0.241 C 
ATOM      7  O   UNK A   0       2.858  -1.650   0.000  0.00  0.00    -0.273 OA
BRANCH   6   8
ATOM      8  C   UNK A   0       3.572  -2.888   0.000  0.00  0.00    +0.078 C 
ATOM      9  C   UNK A   0       3.572  -3.712   0.000  0.00  0.00    +0.009 C 
ATOM     10  C   UNK A   0       4.287  -4.125   0.000  0.00  0.00    +0.000 C 
ATOM     11  C   UNK A   0       5.001  -3.712   0.000  0.00  0.00    +0.000 C 
ATOM     12  C   UNK A   0       5.001  -2.888   0.000  0.00  0.00    +0.000 C 
ATOM     13  C   UNK A   0       4.287  -2.475   0.000  0.00  0.00    +0.009 C 
ENDBRANCH   6   8
ENDBRANCH   1   5
BRANCH   1  14
ATOM     14  CB  HIS A   1       0.715  -2.888   0.000  0.00  0.00    +0.081 C 
BRANCH  14  15
ATOM     15  CG  HIS A   1       0.000  -2.475   0.000  0.00  0.00    +0.082 A 
ATOM     16  ND1 HIS A   1      -0.086  -1.655   0.000  0.00  0.00    -0.227 NA
ATOM     17  CE1 HIS A   1      -0.893  -1.483   0.000  0.00  0.00    +0.199 A 
ATOM     18  NE2 HIS A   1      -1.306  -2.197   0.000  0.00  0.00    -0.221 NA
ATOM     19  CD2 HIS A   1      -0.754  -2.811   0.000  0.00  0.00    +0.115 A 
ENDBRANCH  14  15
ENDBRANCH   1  14
TORSDOF 5
