REMARK  Name = 
REMARK  3 active torsions:
REMARK  status: ('A' for Active; 'I' for Inactive)
REMARK    1  A    between atoms: C_2  and  C_3
REMARK    2  A    between atoms: C_3  and  N_4
REMARK    3  A    between atoms: N_7  and  C_8
REMARK                            x       y       z     vdW  Elec       q    Type
REMARK                         _______ _______ _______ _____ _____    ______ ____
ROOT
ATOM      1  N   UNL     1       0.000  -2.475   0.000  0.00  0.00    -0.184 NA
ATOM      2  C   UNL     1       0.715  -2.062   0.000  0.00  0.00    +0.344 C 
ATOM      3  N   UNL     1       1.429  -2.475   0.000  0.00  0.00    -0.161 NA
ATOM      4  O   UNL     1       0.715  -1.238   0.000  0.00  0.00    -0.249 OA
ENDROOT
BRANCH   3   5
ATOM      5  C   UNL     1       2.143  -2.062   0.000  0.00  0.00    +0.078 A 
ATOM      6  C   UNL     1       2.858  -2.475   0.000  0.00  0.00    +0.037 A 
ATOM      7  C   UNL     1       3.572  -2.062   0.000  0.00  0.00    +0.100 A 
ATOM      8  N   UNL     1       3.572  -1.238   0.000  0.00  0.00    -0.242 NA
ATOM      9  C   UNL     1       2.858  -0.825   0.000  0.00  0.00    +0.100 A 
ATOM     10  C   UNL     1       2.143  -1.238   0.000  0.00  0.00    +0.037 A 
ENDBRANCH   3   5
BRANCH   1  11
ATOM     11  C   UNL     1      -0.715  -2.062   0.000  0.00  0.00    +0.147 C 
BRANCH  11  13
ATOM     12  O   UNL     1      -0.944  -3.142   0.000  0.00  0.00    -0.224 OA
ATOM     13  C   UNL     1      -1.429  -2.475   0.000  0.00  0.00    +0.147 C 
ATOM     14  C   UNL     1      -1.764  -1.721   0.000  0.00  0.00    +0.032 C 
ATOM     15  C   UNL     1      -2.585  -1.808   0.000  0.00  0.00    +0.003 C 
ATOM     16  C   UNL     1      -2.756  -2.615   0.000  0.00  0.00    +0.003 C 
ATOM     17  C   UNL     1      -2.042  -3.027   0.000  0.00  0.00    +0.032 C 
ENDBRANCH  11  13
ENDBRANCH   1  11
TORSDOF 3
