REMARK  Name = 
REMARK  5 active torsions:
REMARK  status: ('A' for Active; 'I' for Inactive)
REMARK    1  A    between atoms: O_2  and  C_3
REMARK    2  A    between atoms: C_8  and  N_9
REMARK    3  A    between atoms: N_12  and  C_13
REMARK    4  A    between atoms: C_13  and  C_14
REMARK    5  A    between atoms: C_14  and  N_17
REMARK                            x       y       z     vdW  Elec       q    Type
REMARK                         _______ _______ _______ _____ _____    ______ ____
ROOT
ATOM      1  N   UNL     1       0.715  -4.537   0.000  0.00  0.00    -0.156 NA
ATOM      2  C   UNL     1       0.000  -4.950   0.000  0.00  0.00    +0.344 C 
ATOM      3  N   UNL     1      -0.715  -4.537   0.000  0.00  0.00    -0.186 NA
ATOM      4  O   UNL     1       0.000  -5.775   0.000  0.00  0.00    -0.249 OA
ENDROOT
BRANCH   1   6
ATOM      5  C   UNL     1       2.143  -4.537   0.000  0.00  0.00    +0.241 A 
ATOM      6  C   UNL     1       1.429  -4.950   0.000  0.00  0.00    +0.128 A 
ATOM      7  C   UNL     1       1.429  -5.775   0.000  0.00  0.00    +0.023 A 
ATOM      8  C   UNL     1       2.143  -6.188   0.000  0.00  0.00    +0.022 A 
ATOM      9  C   UNL     1       2.858  -5.775   0.000  0.00  0.00    +0.102 A 
ATOM     10  N   UNL     1       2.858  -4.950   0.000  0.00  0.00    -0.209 NA
BRANCH   5  12
ATOM     11  C   UNL     1       2.858  -3.300   0.000  0.00  0.00    +0.254 C 
ATOM     12  O   UNL     1       2.143  -3.712   0.000  0.00  0.00    -0.455 OA
ENDBRANCH   5  12
ENDBRANCH   1   6
BRANCH   3  13
ATOM     13  C   UNL     1      -1.429  -4.950   0.000  0.00  0.00    +0.131 C 
BRANCH  13  14
ATOM     14  C   UNL     1      -2.143  -4.537   0.000  0.00  0.00    +0.066 C 
ATOM     15  C   UNL     1      -2.556  -5.252   0.000  0.00  0.00    +0.018 C 
ATOM     16  C   UNL     1      -1.731  -3.823   0.000  0.00  0.00    +0.018 C 
BRANCH  14  17
ATOM     17  N   UNL     1      -2.858  -4.125   0.000  0.00  0.00    -0.271 NA
ATOM     18  C   UNL     1      -2.858  -3.300   0.000  0.00  0.00    +0.090 C 
ATOM     19  C   UNL     1      -3.572  -2.888   0.000  0.00  0.00    +0.090 C 
ATOM     20  N   UNL     1      -4.287  -3.300   0.000  0.00  0.00    -0.269 NA
ATOM     21  C   UNL     1      -5.001  -2.888   0.000  0.00  0.00    +0.090 C 
ATOM     22  C   UNL     1      -4.287  -4.125   0.000  0.00  0.00    +0.090 C 
ATOM     23  C   UNL     1      -3.572  -4.537   0.000  0.00  0.00    +0.090 C 
ENDBRANCH  14  17
ENDBRANCH  13  14
ENDBRANCH   3  13
TORSDOF 5
