REMARK  Name = 
REMARK  5 active torsions:
REMARK  status: ('A' for Active; 'I' for Inactive)
REMARK    1  A    between atoms: C_2  and  C_4
REMARK    2  A    between atoms: C_7  and  C_10
REMARK    3  A    between atoms: C_10  and  C_12
REMARK    4  A    between atoms: C_12  and  N_13
REMARK    5  A    between atoms: C_14  and  C_15
REMARK                            x       y       z     vdW  Elec       q    Type
REMARK                         _______ _______ _______ _____ _____    ______ ____
ROOT
ATOM      1  C   UNL     1       0.884  -2.150   0.000  0.00  0.00    +0.145 C 
ENDROOT
BRANCH   1   2
ATOM      2  N   UNL     1       1.139  -1.365   0.000  0.00  0.00    -0.310 N 
ATOM      3  C   UNL     1       1.923  -1.110   0.000  0.00  0.00    +0.079 A 
ATOM      4  C   UNL     1       1.923  -0.285   0.000  0.00  0.00    +0.098 A 
ATOM      5  C   UNL     1       2.638   0.127   0.000  0.00  0.00    +0.021 A 
ATOM      6  C   UNL     1       3.352  -0.285   0.000  0.00  0.00    +0.002 A 
ATOM      7  C   UNL     1       3.352  -1.110   0.000  0.00  0.00    +0.002 A 
ATOM      8  N   UNL     1       1.139  -0.030   0.000  0.00  0.00    -0.228 NA
ATOM      9  C   UNL     1       2.638  -1.523   0.000  0.00  0.00    +0.019 A 
ATOM     10  C   UNL     1       0.654  -0.698   0.000  0.00  0.00    +0.154 A 
BRANCH  10  11
ATOM     11  C   UNL     1      -0.171  -0.698   0.000  0.00  0.00    +0.245 C 
ATOM     12  O   UNL     1      -0.584   0.017   0.000  0.00  0.00    -0.212 OA
ENDBRANCH  10  11
ENDBRANCH   1   2
BRANCH   1  13
ATOM     13  C   UNL     1       0.077  -2.321   0.000  0.00  0.00    +0.197 C 
ATOM     14  O   UNL     1      -0.475  -1.708   0.000  0.00  0.00    -0.216 OA
BRANCH  13  18
ATOM     15  C   UNL     1      -0.688  -4.675   0.000  0.00  0.00    -0.023 A 
ATOM     16  C   UNL     1       0.119  -4.504   0.000  0.00  0.00    -0.005 A 
ATOM     17  C   UNL     1       0.374  -3.719   0.000  0.00  0.00    -0.002 A 
ATOM     18  C   UNL     1      -0.178  -3.106   0.000  0.00  0.00    +0.010 A 
ATOM     19  C   UNL     1      -0.985  -3.278   0.000  0.00  0.00    -0.002 A 
ATOM     20  C   UNL     1      -1.240  -4.062   0.000  0.00  0.00    -0.005 A 
BRANCH  15  22
ATOM     21  C   UNL     1      -0.391  -6.073   0.000  0.00  0.00    +0.005 C 
ATOM     22  C   UNL     1      -0.943  -5.460   0.000  0.00  0.00    +0.022 C 
ATOM     23  C   UNL     1      -1.750  -5.631   0.000  0.00  0.00    +0.005 C 
ENDBRANCH  15  22
ENDBRANCH  13  18
ENDBRANCH   1  13
TORSDOF 5
