REMARK  Name = 
REMARK  5 active torsions:
REMARK  status: ('A' for Active; 'I' for Inactive)
REMARK    1  A    between atoms: C_2  and  C_3
REMARK    2  A    between atoms: C_2  and  N_10
REMARK    3  A    between atoms: C_3  and  N_4
REMARK    4  A    between atoms: N_10  and  C_11
REMARK    5  A    between atoms: C_11  and  C_12
REMARK                            x       y       z     vdW  Elec       q    Type
REMARK                         _______ _______ _______ _____ _____    ______ ____
ROOT
ATOM      1  C   UNL     1      -1.159  -2.358   0.000  0.00  0.00    +0.021 C 
ATOM      2  C   UNL     1      -1.159  -1.533   0.000  0.00  0.00    +0.097 C 
ENDROOT
BRANCH   2   3
ATOM      3  N   UNL     1      -0.444  -1.121   0.000  0.00  0.00    -0.215 NA
BRANCH   3   4
ATOM      4  C   UNL     1       0.270  -1.533   0.000  0.00  0.00    +0.119 C 
BRANCH   4   5
ATOM      5  C   UNL     1       0.985  -1.121   0.000  0.00  0.00    +0.143 C 
ATOM      6  C   UNL     1       1.797  -0.978   0.000  0.00  0.00    +0.032 C 
ATOM      7  C   UNL     1       2.079  -0.202   0.000  0.00  0.00    +0.003 C 
ATOM      8  C   UNL     1       1.549   0.430   0.000  0.00  0.00    +0.000 C 
ATOM      9  C   UNL     1       0.737   0.286   0.000  0.00  0.00    +0.003 C 
ATOM     10  C   UNL     1       0.455  -0.489   0.000  0.00  0.00    +0.032 C 
ATOM     11  O   UNL     1       1.267  -1.896   0.000  0.00  0.00    -0.224 OA
ENDBRANCH   4   5
ENDBRANCH   3   4
ENDBRANCH   2   3
BRANCH   2  12
ATOM     12  C   UNL     1      -1.873  -1.121   0.000  0.00  0.00    +0.145 C 
BRANCH  12  13
ATOM     13  N   UNL     1      -2.587  -1.533   0.000  0.00  0.00    -0.248 N 
ATOM     14  N   UNL     1      -3.341  -1.198   0.000  0.00  0.00    -0.168 NA
ATOM     15  C   UNL     1      -3.893  -1.811   0.000  0.00  0.00    +0.117 A 
ATOM     16  C   UNL     1      -3.481  -2.525   0.000  0.00  0.00    +0.018 A 
ATOM     17  C   UNL     1      -3.816  -3.279   0.000  0.00  0.00    +0.034 C 
ATOM     18  C   UNL     1      -2.674  -2.354   0.000  0.00  0.00    +0.092 A 
ENDBRANCH  12  13
ENDBRANCH   2  12
TORSDOF 5
