REMARK  Name = 
REMARK  2 active torsions:
REMARK  status: ('A' for Active; 'I' for Inactive)
REMARK    1  A    between atoms: C_2  and  C_3
REMARK    2  A    between atoms: C_3  and  C_4
REMARK                            x       y       z     vdW  Elec       q    Type
REMARK                         _______ _______ _______ _____ _____    ______ ____
ROOT
ATOM      1  C   UNL     1       0.715  -1.238   0.000  0.00  0.00    +0.108 C 
ATOM      2  N   UNL     1       0.000  -1.650   0.000  0.00  0.00    -0.275 N 
ATOM      3  C   UNL     1      -0.715  -1.238   0.000  0.00  0.00    +0.220 A 
ATOM      4  N   UNL     1      -0.715  -0.412   0.000  0.00  0.00    -0.211 NA
ATOM      5  C   UNL     1      -1.429   0.000   0.000  0.00  0.00    +0.115 A 
ATOM      6  C   UNL     1      -2.143  -0.412   0.000  0.00  0.00    +0.096 A 
ATOM      7 CL   UNL     1      -2.858   0.000   0.000  0.00  0.00    -0.079 Cl
ATOM      8  C   UNL     1      -2.143  -1.238   0.000  0.00  0.00    +0.115 A 
ATOM      9  N   UNL     1      -1.429  -1.650   0.000  0.00  0.00    -0.211 NA
ATOM     10  C   UNL     1       0.000  -2.475   0.000  0.00  0.00    +0.126 C 
ATOM     11  C   UNL     1       0.715  -2.888   0.000  0.00  0.00    +0.164 C 
ATOM     12  O   UNL     1       1.429  -2.475   0.000  0.00  0.00    -0.350 OA
ATOM     13  C   UNL     1       1.429  -1.650   0.000  0.00  0.00    +0.162 C 
ENDROOT
BRANCH   1  14
ATOM     14  C   UNL     1       0.715  -0.412   0.000  0.00  0.00    +0.058 C 
BRANCH  14  16
ATOM     15  O   UNL     1       1.429   0.825   0.000  0.00  0.00    -0.220 OA
ATOM     16  C   UNL     1       1.429   0.000   0.000  0.00  0.00    +0.184 C 
ENDBRANCH  14  16
ENDBRANCH   1  14
TORSDOF 2
