REMARK  Name = 
REMARK  3 active torsions:
REMARK  status: ('A' for Active; 'I' for Inactive)
REMARK    1  A    between atoms: N_13  and  C_14
REMARK    2  A    between atoms: C_14  and  C_15
REMARK    3  A    between atoms: C_15  and  C_16
REMARK                            x       y       z     vdW  Elec       q    Type
REMARK                         _______ _______ _______ _____ _____    ______ ____
ROOT
ATOM      1  C   UNL     1      -1.429  -1.650   0.000  0.00  0.00    +0.090 C 
ATOM      2  N   UNL     1      -0.715  -1.238   0.000  0.00  0.00    -0.271 NA
ATOM      3  C   UNL     1      -0.715  -0.412   0.000  0.00  0.00    +0.074 C 
ATOM      4  C   UNL     1       0.000   0.000   0.000  0.00  0.00    +0.034 C 
ATOM      5  C   UNL     1       0.000   0.825   0.000  0.00  0.00    +0.005 C 
ATOM      6  C   UNL     1       0.715   1.238   0.000  0.00  0.00    +0.022 C 
ATOM      7  C   UNL     1       1.429   0.825   0.000  0.00  0.00    +0.095 C 
ATOM      8  N   UNL     1       1.429   0.000   0.000  0.00  0.00    -0.264 N 
ATOM      9  C   UNL     1       2.143  -0.412   0.000  0.00  0.00    +0.323 C 
ATOM     10  N   UNL     1       2.858   0.000   0.000  0.00  0.00    -0.188 NA
ATOM     11  O   UNL     1       2.143  -1.238   0.000  0.00  0.00    -0.251 OA
ATOM     12  C   UNL     1       0.715  -0.412   0.000  0.00  0.00    +0.080 C 
ATOM     13  C   UNL     1       0.715  -1.238   0.000  0.00  0.00    +0.037 C 
ATOM     14  C   UNL     1       0.000  -1.650   0.000  0.00  0.00    +0.074 C 
ENDROOT
BRANCH  10  15
ATOM     15  C   UNL     1       3.572  -0.412   0.000  0.00  0.00    +0.122 C 
BRANCH  15  16
ATOM     16  C   UNL     1       4.287   0.000   0.000  0.00  0.00    +0.051 C 
BRANCH  16  17
ATOM     17  C   UNL     1       5.001  -0.412   0.000  0.00  0.00    -0.001 A 
ATOM     18  C   UNL     1       5.001  -1.238   0.000  0.00  0.00    +0.094 A 
ATOM     19  N   UNL     1       5.716  -1.650   0.000  0.00  0.00    -0.248 NA
ATOM     20  C   UNL     1       6.430  -1.238   0.000  0.00  0.00    +0.059 A 
ATOM     21  C   UNL     1       7.145  -1.650   0.000  0.00  0.00    +0.052 C 
ATOM     22  C   UNL     1       6.430  -0.412   0.000  0.00  0.00    +0.014 A 
ATOM     23  C   UNL     1       5.716   0.000   0.000  0.00  0.00    -0.001 A 
ENDBRANCH  16  17
ENDBRANCH  15  16
ENDBRANCH  10  15
TORSDOF 3
