REMARK  Name = 
REMARK  3 active torsions:
REMARK  status: ('A' for Active; 'I' for Inactive)
REMARK    1  A    between atoms: C_2  and  C_3
REMARK    2  A    between atoms: N_10  and  C_11
REMARK    3  A    between atoms: C_11  and  C_12
REMARK                            x       y       z     vdW  Elec       q    Type
REMARK                         _______ _______ _______ _____ _____    ______ ____
ROOT
ATOM      1  C   UNL     1      -0.633  -1.718   0.000  0.00  0.00    +0.067 A 
ATOM      2  N   UNL     1      -0.081  -2.331   0.000  0.00  0.00    -0.227 NA
ATOM      3  C   UNL     1       0.672  -1.996   0.000  0.00  0.00    +0.187 A 
ATOM      4  N   UNL     1       1.387  -2.408   0.000  0.00  0.00    -0.136 NA
ATOM      5  C   UNL     1       2.102  -1.996   0.000  0.00  0.00    +0.345 C 
ATOM      6  N   UNL     1       2.816  -2.408   0.000  0.00  0.00    -0.186 NA
ATOM      7  O   UNL     1       2.102  -1.171   0.000  0.00  0.00    -0.249 OA
ATOM      8  S   UNL     1       0.586  -1.175   0.000  0.00  0.00    -0.049 S 
ATOM      9  C   UNL     1      -0.221  -1.004   0.000  0.00  0.00    +0.053 A 
ENDROOT
BRANCH   1  11
ATOM     10  C   UNL     1      -1.939  -1.137   0.000  0.00  0.00    +0.007 C 
ATOM     11  C   UNL     1      -1.454  -1.804   0.000  0.00  0.00    +0.046 C 
ENDBRANCH   1  11
BRANCH   6  12
ATOM     12  C   UNL     1       3.530  -1.996   0.000  0.00  0.00    +0.128 C 
BRANCH  12  13
ATOM     13  C   UNL     1       4.245  -2.408   0.000  0.00  0.00    +0.069 C 
ATOM     14  S   UNL     1       4.331  -3.229   0.000  0.00  0.00    -0.139 S 
ATOM     15  C   UNL     1       5.138  -3.400   0.000  0.00  0.00    +0.058 C 
ATOM     16  C   UNL     1       5.551  -2.686   0.000  0.00  0.00    +0.013 C 
ATOM     17  C   UNL     1       4.999  -2.073   0.000  0.00  0.00    +0.013 C 
ENDBRANCH  12  13
ENDBRANCH   6  12
TORSDOF 3
