REMARK  Name = 
REMARK  4 active torsions:
REMARK  status: ('A' for Active; 'I' for Inactive)
REMARK    1  A    between atoms: O_2  and  C_3
REMARK    2  A    between atoms: N_8  and  C_9
REMARK    3  A    between atoms: C_9  and  C_10
REMARK    4  A    between atoms: C_10  and  C_12
REMARK                            x       y       z     vdW  Elec       q    Type
REMARK                         _______ _______ _______ _____ _____    ______ ____
ROOT
ATOM      1  C   UNL     1       0.000  -4.125   0.000  0.00  0.00    +0.168 C 
ENDROOT
BRANCH   1   4
ATOM      2  C   UNL     1       1.429  -2.475   0.000  0.00  0.00    +0.242 A 
ATOM      3  N   UNL     1       0.715  -2.888   0.000  0.00  0.00    -0.129 NA
ATOM      4  N   UNL     1       0.715  -3.712   0.000  0.00  0.00    -0.211 N 
ATOM      5  C   UNL     1       1.429  -4.125   0.000  0.00  0.00    +0.277 A 
ATOM      6  O   UNL     1       1.429  -4.950   0.000  0.00  0.00    -0.266 OA
ATOM      7  C   UNL     1       2.143  -3.712   0.000  0.00  0.00    +0.067 A 
ATOM      8  C   UNL     1       2.143  -2.888   0.000  0.00  0.00    +0.064 A 
BRANCH   2  10
ATOM      9  C   UNL     1       2.143  -1.238   0.000  0.00  0.00    +0.254 C 
ATOM     10  O   UNL     1       1.429  -1.650   0.000  0.00  0.00    -0.455 OA
ENDBRANCH   2  10
ENDBRANCH   1   4
BRANCH   1  11
ATOM     11  C   UNL     1       0.000  -4.950   0.000  0.00  0.00    +0.201 C 
ATOM     12  O   UNL     1       0.715  -5.362   0.000  0.00  0.00    -0.216 OA
BRANCH  11  13
ATOM     13  C   UNL     1      -0.715  -5.362   0.000  0.00  0.00    +0.037 A 
ATOM     14  C   UNL     1      -1.429  -4.950   0.000  0.00  0.00    +0.141 A 
ATOM     15  F   UNL     1      -1.429  -4.125   0.000  0.00  0.00    -0.204 F 
ATOM     16  C   UNL     1      -2.143  -5.362   0.000  0.00  0.00    +0.059 A 
ATOM     17  C   UNL     1      -2.143  -6.188   0.000  0.00  0.00    +0.142 A 
ATOM     18  F   UNL     1      -2.858  -6.600   0.000  0.00  0.00    -0.204 F 
ATOM     19  C   UNL     1      -1.429  -6.600   0.000  0.00  0.00    +0.030 A 
ATOM     20  C   UNL     1      -0.715  -6.188   0.000  0.00  0.00    +0.003 A 
ENDBRANCH  11  13
ENDBRANCH   1  11
TORSDOF 4
