REMARK  Name = 
REMARK  6 active torsions:
REMARK  status: ('A' for Active; 'I' for Inactive)
REMARK    1  A    between atoms: C_2  and  C_4
REMARK    2  A    between atoms: C_4  and  N_5
REMARK    3  A    between atoms: C_4  and  C_13
REMARK    4  A    between atoms: N_15  and  C_16
REMARK    5  A    between atoms: C_16  and  C_17
REMARK    6  A    between atoms: C_17  and  C_18
REMARK                            x       y       z     vdW  Elec       q    Type
REMARK                         _______ _______ _______ _____ _____    ______ ____
ROOT
ATOM      1  C   UNL     1       2.143  -3.712   0.000  0.00  0.00    +0.137 C 
ENDROOT
BRANCH   1   2
ATOM      2  N   UNL     1       1.429  -4.125   0.000  0.00  0.00    -0.262 NA
ATOM      3  C   UNL     1       0.715  -3.712   0.000  0.00  0.00    +0.102 C 
ATOM      4  C   UNL     1       0.000  -4.125   0.000  0.00  0.00    +0.131 C 
ATOM      5  C   UNL     1      -0.715  -3.712   0.000  0.00  0.00    +0.034 C 
ATOM      6  O   UNL     1       0.000  -4.950   0.000  0.00  0.00    -0.356 OA
ATOM      7  C   UNL     1       0.715  -5.362   0.000  0.00  0.00    +0.131 C 
ATOM      8  C   UNL     1       0.715  -6.188   0.000  0.00  0.00    +0.034 C 
ATOM      9  C   UNL     1       1.429  -4.950   0.000  0.00  0.00    +0.102 C 
ENDBRANCH   1   2
BRANCH   1  10
ATOM     10  C   UNL     1       2.858  -4.125   0.000  0.00  0.00    +0.256 C 
ATOM     11  N   UNL     1       3.572  -3.712   0.000  0.00  0.00    -0.204 NA
ATOM     12  O   UNL     1       2.858  -4.950   0.000  0.00  0.00    -0.272 OA
BRANCH  11  13
ATOM     13  C   UNL     1       4.287  -4.125   0.000  0.00  0.00    +0.121 C 
BRANCH  13  14
ATOM     14  C   UNL     1       5.001  -3.712   0.000  0.00  0.00    +0.069 C 
BRANCH  14  15
ATOM     15  C   UNL     1       5.716  -4.125   0.000  0.00  0.00    +0.061 A 
ATOM     16  N   UNL     1       5.716  -4.950   0.000  0.00  0.00    -0.248 NA
ATOM     17  C   UNL     1       6.430  -5.362   0.000  0.00  0.00    +0.098 A 
ATOM     18  C   UNL     1       7.145  -4.950   0.000  0.00  0.00    +0.021 A 
ATOM     19  C   UNL     1       7.145  -4.125   0.000  0.00  0.00    +0.003 A 
ATOM     20  C   UNL     1       6.430  -3.712   0.000  0.00  0.00    +0.015 A 
ENDBRANCH  14  15
ENDBRANCH  13  14
ENDBRANCH  11  13
ENDBRANCH   1  10
BRANCH   1  22
ATOM     21  C   UNL     1       1.429  -2.475   0.000  0.00  0.00    +0.002 C 
ATOM     22  C   UNL     1       2.143  -2.888   0.000  0.00  0.00    +0.024 C 
ATOM     23  C   UNL     1       2.858  -2.475   0.000  0.00  0.00    +0.002 C 
ENDBRANCH   1  22
TORSDOF 6
