REMARK  Name = 
REMARK  5 active torsions:
REMARK  status: ('A' for Active; 'I' for Inactive)
REMARK    1  A    between atoms: N_2  and  C_13
REMARK    2  A    between atoms: C_3  and  N_6
REMARK    3  A    between atoms: N_6  and  C_8
REMARK    4  A    between atoms: C_13  and  C_15
REMARK    5  A    between atoms: N_14  and  C_25
REMARK                            x       y       z     vdW  Elec       q    Type
REMARK                         _______ _______ _______ _____ _____    ______ ____
ROOT
ATOM      1  C   UNL     1       2.562   0.825   0.000  0.00  0.00    +0.149 A 
ATOM      2  N   UNL     1       1.779   1.083   0.000  0.00  0.00    -0.219 NA
ATOM      3  C   UNL     1       1.292   0.412   0.000  0.00  0.00    +0.180 A 
ATOM      4  N   UNL     1       1.779  -0.254   0.000  0.00  0.00    -0.292 N 
ATOM      5  C   UNL     1       2.562   0.000   0.000  0.00  0.00    +0.167 A 
ATOM      6  N   UNL     1       3.275  -0.412   0.000  0.00  0.00    -0.205 NA
ATOM      7  C   UNL     1       3.992   0.000   0.000  0.00  0.00    +0.201 A 
ATOM      8  N   UNL     1       3.992   0.825   0.000  0.00  0.00    -0.207 NA
ATOM      9  C   UNL     1       3.275   1.238   0.000  0.00  0.00    +0.154 A 
ENDROOT
BRANCH   9  10
ATOM     10  N   UNL     1       3.275   2.062   0.000  0.00  0.00    -0.292 N 
ATOM     11  C   UNL     1       2.562   2.475   0.000  0.00  0.00    +0.114 C 
BRANCH  10  12
ATOM     12  C   UNL     1       3.992   2.475   0.000  0.00  0.00    +0.077 C 
ATOM     13  C   UNL     1       4.704   2.062   0.000  0.00  0.00    +0.037 C 
ATOM     14  C   UNL     1       5.421   2.475   0.000  0.00  0.00    +0.074 C 
ATOM     15  N   UNL     1       5.421   3.300   0.000  0.00  0.00    -0.273 NA
ATOM     16  C   UNL     1       4.704   3.712   0.000  0.00  0.00    +0.074 C 
ATOM     17  C   UNL     1       3.992   3.300   0.000  0.00  0.00    +0.034 C 
ATOM     18  C   UNL     1       3.275   3.712   0.000  0.00  0.00    +0.003 C 
BRANCH  15  19
ATOM     19  C   UNL     1       6.133   3.712   0.000  0.00  0.00    +0.072 C 
ATOM     20  C   UNL     1       6.133   4.533   0.000  0.00  0.00    +0.019 C 
ENDBRANCH  15  19
ENDBRANCH  10  12
ENDBRANCH   9  10
BRANCH   4  21
ATOM     21  C   UNL     1       1.521  -1.038   0.000  0.00  0.00    +0.142 C 
BRANCH  21  22
ATOM     22  C   UNL     1       2.075  -1.650   0.000  0.00  0.00    +0.177 C 
ATOM     23  C   UNL     1       2.487  -2.367   0.000  0.00  0.00    +0.174 C 
ATOM     24  O   UNL     1       3.296  -2.192   0.000  0.00  0.00    -0.351 OA
ATOM     25  C   UNL     1       3.379  -1.375   0.000  0.00  0.00    +0.145 C 
ATOM     26  O   UNL     1       1.408  -2.138   0.000  0.00  0.00    -0.221 OA
ATOM     27  C   UNL     1       2.625  -1.038   0.000  0.00  0.00    +0.067 C 
ENDBRANCH  21  22
ENDBRANCH   4  21
TORSDOF 5
