REMARK  Name = 
REMARK  5 active torsions:
REMARK  status: ('A' for Active; 'I' for Inactive)
REMARK    1  A    between atoms: C_2  and  C_3
REMARK    2  A    between atoms: C_3  and  N_4
REMARK    3  A    between atoms: N_11  and  C_12
REMARK    4  A    between atoms: C_12  and  C_13
REMARK    5  A    between atoms: C_13  and  N_14
REMARK                            x       y       z     vdW  Elec       q    Type
REMARK                         _______ _______ _______ _____ _____    ______ ____
ROOT
ATOM      1  O   UNL     1       2.018  -5.287   0.000  0.00  0.00    -0.271 OA
ATOM      2  C   UNL     1       2.018  -4.462   0.000  0.00  0.00    +0.265 C 
ATOM      3  N   UNL     1       2.733  -4.050   0.000  0.00  0.00    -0.202 NA
ENDROOT
BRANCH   3   4
ATOM      4  C   UNL     1       3.447  -4.462   0.000  0.00  0.00    +0.132 C 
BRANCH   4   5
ATOM      5  C   UNL     1       4.162  -4.050   0.000  0.00  0.00    +0.096 C 
BRANCH   5   6
ATOM      6  N   UNL     1       4.876  -4.462   0.000  0.00  0.00    -0.271 NA
ATOM      7  C   UNL     1       4.814  -5.285   0.000  0.00  0.00    +0.072 C 
ATOM      8  C   UNL     1       5.419  -5.846   0.000  0.00  0.00    +0.017 C 
ATOM      9  C   UNL     1       6.235  -5.723   0.000  0.00  0.00    +0.001 C 
ATOM     10  C   UNL     1       6.648  -5.008   0.000  0.00  0.00    +0.001 C 
ATOM     11  C   UNL     1       6.346  -4.240   0.000  0.00  0.00    +0.017 C 
ATOM     12  C   UNL     1       5.558  -3.997   0.000  0.00  0.00    +0.072 C 
ENDBRANCH   5   6
ENDBRANCH   4   5
ENDBRANCH   3   4
BRANCH   2  13
ATOM     13  C   UNL     1       1.304  -4.050   0.000  0.00  0.00    +0.196 C 
BRANCH  13  14
ATOM     14  N   UNL     1       0.589  -4.462   0.000  0.00  0.00    -0.285 N 
ATOM     15  C   UNL     1      -0.125  -4.050   0.000  0.00  0.00    +0.261 A 
ATOM     16  O   UNL     1      -0.125  -3.225   0.000  0.00  0.00    -0.267 OA
ATOM     17  C   UNL     1      -0.840  -4.462   0.000  0.00  0.00    +0.061 A 
ATOM     18  C   UNL     1      -0.840  -5.287   0.000  0.00  0.00    +0.006 A 
ATOM     19  C   UNL     1      -0.125  -5.700   0.000  0.00  0.00    +0.019 A 
ATOM     20  C   UNL     1       0.589  -5.287   0.000  0.00  0.00    +0.079 A 
ENDBRANCH  13  14
ENDBRANCH   2  13
TORSDOF 5
