REMARK  Name = 
REMARK  5 active torsions:
REMARK  status: ('A' for Active; 'I' for Inactive)
REMARK    1  A    between atoms: C_5  and  C_6
REMARK    2  A    between atoms: C_6  and  C_7
REMARK    3  A    between atoms: C_7  and  N_8
REMARK    4  A    between atoms: C_15  and  C_16
REMARK    5  A    between atoms: C_16  and  C_17
REMARK                            x       y       z     vdW  Elec       q    Type
REMARK                         _______ _______ _______ _____ _____    ______ ____
ROOT
ATOM      1  N   UNL     1       0.715  -2.062   0.000  0.00  0.00    -0.188 NA
ATOM      2  C   UNL     1       1.429  -2.475   0.000  0.00  0.00    +0.323 C 
ATOM      3  N   UNL     1       2.143  -2.062   0.000  0.00  0.00    -0.263 N 
ATOM      4  C   UNL     1       2.858  -2.475   0.000  0.00  0.00    +0.095 C 
ATOM      5  C   UNL     1       3.572  -2.062   0.000  0.00  0.00    +0.029 C 
ATOM      6  C   UNL     1       3.572  -1.238   0.000  0.00  0.00    +0.004 C 
ATOM      7  C   UNL     1       2.858  -0.825   0.000  0.00  0.00    +0.022 C 
ATOM      8  C   UNL     1       2.143  -1.238   0.000  0.00  0.00    +0.095 C 
ATOM      9  O   UNL     1       1.429  -3.300   0.000  0.00  0.00    -0.251 OA
ENDROOT
BRANCH   1  10
ATOM     10  C   UNL     1       0.000  -2.475   0.000  0.00  0.00    +0.122 C 
BRANCH  10  11
ATOM     11  C   UNL     1      -0.715  -2.062   0.000  0.00  0.00    +0.051 C 
BRANCH  11  16
ATOM     12  C   UNL     1      -3.572  -3.712   0.000  0.00  0.00    +0.052 C 
ATOM     13  C   UNL     1      -2.858  -3.300   0.000  0.00  0.00    +0.059 A 
ATOM     14  N   UNL     1      -2.143  -3.712   0.000  0.00  0.00    -0.248 NA
ATOM     15  C   UNL     1      -1.429  -3.300   0.000  0.00  0.00    +0.094 A 
ATOM     16  C   UNL     1      -1.429  -2.475   0.000  0.00  0.00    -0.001 A 
ATOM     17  C   UNL     1      -2.143  -2.062   0.000  0.00  0.00    -0.001 A 
ATOM     18  C   UNL     1      -2.858  -2.475   0.000  0.00  0.00    +0.014 A 
ENDBRANCH  11  16
ENDBRANCH  10  11
ENDBRANCH   1  10
BRANCH   5  19
ATOM     19  C   UNL     1       4.287  -2.475   0.000  0.00  0.00    +0.090 C 
BRANCH  19  20
ATOM     20  C   UNL     1       4.287  -3.300   0.000  0.00  0.00    +0.261 C 
ATOM     21  N   UNL     1       3.572  -3.712   0.000  0.00  0.00    -0.088 NA
ATOM     22  O   UNL     1       5.001  -3.712   0.000  0.00  0.00    -0.272 OA
ENDBRANCH  19  20
ENDBRANCH   5  19
TORSDOF 5
