REMARK  Name = 
REMARK  5 active torsions:
REMARK  status: ('A' for Active; 'I' for Inactive)
REMARK    1  A    between atoms: N_4  and  C_5
REMARK    2  A    between atoms: C_5  and  C_6
REMARK    3  A    between atoms: C_6  and  C_8
REMARK    4  A    between atoms: C_8  and  N_9
REMARK    5  A    between atoms: C_21  and  C_22
REMARK                            x       y       z     vdW  Elec       q    Type
REMARK                         _______ _______ _______ _____ _____    ______ ____
ROOT
ATOM      1  C   UNL     1      -0.715  -1.238   0.000  0.00  0.00    +0.192 C 
ATOM      2  O   UNL     1      -0.715  -0.412   0.000  0.00  0.00    -0.219 OA
ENDROOT
BRANCH   1   3
ATOM      3  C   UNL     1      -1.429  -1.650   0.000  0.00  0.00    +0.165 C 
BRANCH   3  11
ATOM      4  C   UNL     1      -2.858   0.825   0.000  0.00  0.00    +0.054 C 
ATOM      5  C   UNL     1      -2.858   0.000   0.000  0.00  0.00    +0.076 A 
ATOM      6  C   UNL     1      -3.572  -0.412   0.000  0.00  0.00    +0.008 A 
ATOM      7  C   UNL     1      -4.287   0.000   0.000  0.00  0.00    +0.033 C 
ATOM      8  C   UNL     1      -3.572  -1.238   0.000  0.00  0.00    +0.123 A 
ATOM      9  C   UNL     1      -2.858  -1.650   0.000  0.00  0.00    +0.286 A 
ATOM     10  O   UNL     1      -2.858  -2.475   0.000  0.00  0.00    -0.265 OA
ATOM     11  N   UNL     1      -2.143  -1.238   0.000  0.00  0.00    -0.214 N 
ATOM     12  N   UNL     1      -2.143  -0.412   0.000  0.00  0.00    -0.171 NA
BRANCH   8  13
ATOM     13  C   UNL     1      -4.287  -1.650   0.000  0.00  0.00    +0.105 C 
ATOM     14  N   UNL     1      -5.001  -2.062   0.000  0.00  0.00    -0.191 NA
ENDBRANCH   8  13
ENDBRANCH   3  11
ENDBRANCH   1   3
BRANCH   1  15
ATOM     15  C   UNL     1       0.000  -1.650   0.000  0.00  0.00    +0.108 C 
BRANCH  15  16
ATOM     16  N   UNL     1       0.715  -1.238   0.000  0.00  0.00    -0.266 NA
ATOM     17  C   UNL     1       1.429  -1.650   0.000  0.00  0.00    +0.099 C 
ATOM     18  C   UNL     1       2.143  -1.238   0.000  0.00  0.00    -0.010 A 
ATOM     19  C   UNL     1       2.143  -0.412   0.000  0.00  0.00    -0.023 A 
ATOM     20  C   UNL     1       2.858   0.000   0.000  0.00  0.00    -0.004 A 
ATOM     21  C   UNL     1       3.572  -0.412   0.000  0.00  0.00    -0.000 A 
ATOM     22  C   UNL     1       3.572  -1.238   0.000  0.00  0.00    -0.000 A 
ATOM     23  C   UNL     1       1.429   0.000   0.000  0.00  0.00    +0.043 C 
ATOM     24  C   UNL     1       2.858  -1.650   0.000  0.00  0.00    -0.003 A 
ATOM     25  C   UNL     1       0.715  -0.412   0.000  0.00  0.00    +0.077 C 
ENDBRANCH  15  16
ENDBRANCH   1  15
TORSDOF 5
