REMARK  Name = 
REMARK  6 active torsions:
REMARK  status: ('A' for Active; 'I' for Inactive)
REMARK    1  A    between atoms: C_2  and  C_4
REMARK    2  A    between atoms: C_4  and  O_5
REMARK    3  A    between atoms: O_5  and  C_6
REMARK    4  A    between atoms: N_8  and  C_10
REMARK    5  A    between atoms: C_12  and  C_18
REMARK    6  A    between atoms: C_15  and  C_16
REMARK                            x       y       z     vdW  Elec       q    Type
REMARK                         _______ _______ _______ _____ _____    ______ ____
ROOT
ATOM      1  C   UNL     1       0.715  -3.229   0.000  0.00  0.00    +0.141 A 
ATOM      2  C   UNL     1       0.000  -3.642   0.000  0.00  0.00    +0.100 A 
ATOM      3  C   UNL     1       0.000  -4.467   0.000  0.00  0.00    +0.015 A 
ATOM      4  C   UNL     1       0.715  -4.879   0.000  0.00  0.00    +0.024 A 
ATOM      5  C   UNL     1       1.429  -4.467   0.000  0.00  0.00    +0.154 A 
ATOM      6  N   UNL     1       1.429  -3.642   0.000  0.00  0.00    -0.226 NA
ENDROOT
BRANCH   5   7
ATOM      7  C   UNL     1       2.143  -4.879   0.000  0.00  0.00    +0.435 C 
ATOM      8  F   UNL     1       2.556  -4.165   0.000  0.00  0.00    -0.164 F 
ATOM      9  F   UNL     1       1.731  -5.594   0.000  0.00  0.00    -0.164 F 
ATOM     10  F   UNL     1       2.858  -5.292   0.000  0.00  0.00    -0.164 F 
ENDBRANCH   5   7
BRANCH   1  13
ATOM     11  C   UNL     1       0.715  -1.238   0.000  0.00  0.00    +0.155 C 
ATOM     12  C   UNL     1       0.131  -1.821   0.000  0.00  0.00    +0.123 C 
ATOM     13  N   UNL     1       0.715  -2.404   0.000  0.00  0.00    -0.288 N 
ATOM     14  C   UNL     1       1.298  -1.821   0.000  0.00  0.00    +0.123 C 
BRANCH  11  15
ATOM     15  O   UNL     1       0.715  -0.412   0.000  0.00  0.00    -0.343 OA
BRANCH  15  16
ATOM     16  C   UNL     1       0.000   0.000   0.000  0.00  0.00    +0.230 C 
BRANCH  16  18
ATOM     17  N   UNL     1      -0.715   1.238   0.000  0.00  0.00    -0.086 NA
ATOM     18  C   UNL     1       0.000   0.825   0.000  0.00  0.00    +0.291 C 
ATOM     19  O   UNL     1       0.715   1.238   0.000  0.00  0.00    -0.269 OA
ENDBRANCH  16  18
ENDBRANCH  15  16
ENDBRANCH  11  15
ENDBRANCH   1  13
BRANCH   2  20
ATOM     20  C   UNL     1      -0.715  -3.229   0.000  0.00  0.00    +0.103 C 
ATOM     21  N   UNL     1      -1.429  -2.817   0.000  0.00  0.00    -0.191 NA
ENDBRANCH   2  20
TORSDOF 6
