REMARK  Name = 
REMARK  2 active torsions:
REMARK  status: ('A' for Active; 'I' for Inactive)
REMARK    1  A    between atoms: C_6  and  C_8
REMARK    2  A    between atoms: N_10  and  C_11
REMARK                            x       y       z     vdW  Elec       q    Type
REMARK                         _______ _______ _______ _____ _____    ______ ____
ROOT
ATOM      1  C   UNL     1       0.000  -4.125   0.000  0.00  0.00    +0.274 C 
ATOM      2  N   UNL     1       0.000  -4.950   0.000  0.00  0.00    -0.176 NA
ATOM      3  O   UNL     1      -0.715  -3.712   0.000  0.00  0.00    -0.270 OA
ENDROOT
BRANCH   2   4
ATOM      4  C   UNL     1      -0.715  -5.362   0.000  0.00  0.00    +0.087 A 
ATOM      5  C   UNL     1      -1.429  -4.950   0.000  0.00  0.00    +0.086 A 
ATOM      6 CL   UNL     1      -1.429  -4.125   0.000  0.00  0.00    -0.080 Cl
ATOM      7  C   UNL     1      -2.143  -5.362   0.000  0.00  0.00    +0.071 A 
ATOM      8  C   UNL     1      -2.858  -4.950   0.000  0.00  0.00    +0.053 C 
ATOM      9  N   UNL     1      -2.143  -6.188   0.000  0.00  0.00    -0.247 NA
ATOM     10  C   UNL     1      -1.429  -6.600   0.000  0.00  0.00    +0.100 A 
ATOM     11  C   UNL     1      -0.715  -6.188   0.000  0.00  0.00    +0.038 A 
ENDBRANCH   2   4
BRANCH   1  15
ATOM     12  C   UNL     1       1.429  -1.650   0.000  0.00  0.00    +0.090 C 
ATOM     13  N   UNL     1       1.429  -2.475   0.000  0.00  0.00    -0.267 NA
ATOM     14  C   UNL     1       0.715  -2.888   0.000  0.00  0.00    +0.112 C 
ATOM     15  C   UNL     1       0.715  -3.712   0.000  0.00  0.00    +0.209 C 
ATOM     16  O   UNL     1       1.429  -4.125   0.000  0.00  0.00    -0.344 OA
ATOM     17  C   UNL     1       2.143  -3.712   0.000  0.00  0.00    +0.160 C 
ATOM     18  C   UNL     1       2.143  -2.888   0.000  0.00  0.00    +0.105 C 
ENDBRANCH   1  15
TORSDOF 2
