REMARK  Name = 
REMARK  5 active torsions:
REMARK  status: ('A' for Active; 'I' for Inactive)
REMARK    1  A    between atoms: C_2  and  C_3
REMARK    2  A    between atoms: C_2  and  N_10
REMARK    3  A    between atoms: C_3  and  N_4
REMARK    4  A    between atoms: C_11  and  C_13
REMARK    5  A    between atoms: C_13  and  C_14
REMARK                            x       y       z     vdW  Elec       q    Type
REMARK                         _______ _______ _______ _____ _____    ______ ____
ROOT
ATOM      1  N   UNL     1       2.143  -1.238   0.000  0.00  0.00    -0.205 NA
ATOM      2  C   UNL     1       2.858  -1.650   0.000  0.00  0.00    +0.246 C 
ATOM      3  O   UNL     1       2.858  -2.475   0.000  0.00  0.00    -0.273 OA
ENDROOT
BRANCH   1   5
ATOM      4  C   UNL     1       1.429  -2.475   0.000  0.00  0.00    +0.025 C 
ATOM      5  C   UNL     1       1.429  -1.650   0.000  0.00  0.00    +0.111 C 
BRANCH   5   6
ATOM      6  C   UNL     1       0.715  -1.238   0.000  0.00  0.00    +0.094 C 
BRANCH   6   7
ATOM      7  N   UNL     1       0.000  -1.650   0.000  0.00  0.00    -0.267 NA
ATOM      8  C   UNL     1      -0.715  -1.238   0.000  0.00  0.00    +0.105 C 
ATOM      9  C   UNL     1      -1.429  -1.650   0.000  0.00  0.00    +0.159 C 
ATOM     10  O   UNL     1      -1.429  -2.475   0.000  0.00  0.00    -0.351 OA
ATOM     11  C   UNL     1      -0.715  -2.888   0.000  0.00  0.00    +0.159 C 
ATOM     12  C   UNL     1       0.000  -2.475   0.000  0.00  0.00    +0.105 C 
ENDBRANCH   6   7
ENDBRANCH   5   6
ENDBRANCH   1   5
BRANCH   2  13
ATOM     13  C   UNL     1       3.572  -1.238   0.000  0.00  0.00    +0.117 C 
BRANCH  13  14
ATOM     14  C   UNL     1       4.287  -1.650   0.000  0.00  0.00    +0.037 A 
ATOM     15  C   UNL     1       4.373  -2.470   0.000  0.00  0.00    +0.151 A 
ATOM     16  C   UNL     1       3.760  -3.022   0.000  0.00  0.00    +0.075 C 
ATOM     17  O   UNL     1       5.180  -2.642   0.000  0.00  0.00    -0.358 OA
ATOM     18  N   UNL     1       5.593  -1.927   0.000  0.00  0.00    -0.082 NA
ATOM     19  C   UNL     1       5.040  -1.314   0.000  0.00  0.00    +0.097 A 
ATOM     20  C   UNL     1       5.212  -0.507   0.000  0.00  0.00    +0.055 C 
ENDBRANCH  13  14
ENDBRANCH   2  13
TORSDOF 5
