REMARK  Name = 
REMARK  4 active torsions:
REMARK  status: ('A' for Active; 'I' for Inactive)
REMARK    1  A    between atoms: C_2  and  C_3
REMARK    2  A    between atoms: C_2  and  N_15
REMARK    3  A    between atoms: N_5  and  C_6
REMARK    4  A    between atoms: C_6  and  C_12
REMARK                            x       y       z     vdW  Elec       q    Type
REMARK                         _______ _______ _______ _____ _____    ______ ____
ROOT
ATOM      1  C   UNL     1       1.351  -1.029   0.000  0.00  0.00    +0.264 C 
ATOM      2  N   UNL     1       0.636  -1.441   0.000  0.00  0.00    -0.196 NA
ATOM      3  O   UNL     1       1.351  -0.204   0.000  0.00  0.00    -0.271 OA
ENDROOT
BRANCH   2   4
ATOM      4  C   UNL     1      -0.078  -1.029   0.000  0.00  0.00    +0.171 C 
ATOM      5  C   UNL     1       0.452  -0.397   0.000  0.00  0.00    +0.031 C 
ATOM      6  C   UNL     1       0.170   0.379   0.000  0.00  0.00    +0.002 C 
ATOM      7  C   UNL     1      -0.642   0.522   0.000  0.00  0.00    +0.000 C 
ATOM      8  C   UNL     1      -1.173  -0.110   0.000  0.00  0.00    +0.002 C 
ATOM      9  C   UNL     1      -0.890  -0.885   0.000  0.00  0.00    +0.031 C 
BRANCH   4  10
ATOM     10  C   UNL     1      -0.360  -1.804   0.000  0.00  0.00    +0.382 C 
ATOM     11  O   UNL     1       0.170  -2.436   0.000  0.00  0.00    -0.244 OA
ATOM     12  O   UNL     1      -1.173  -1.947   0.000  0.00  0.00    -0.244 OA
ENDBRANCH   4  10
ENDBRANCH   2   4
BRANCH   1  14
ATOM     13  C   UNL     1       2.780  -1.029   0.000  0.00  0.00    +0.036 C 
ATOM     14  C   UNL     1       2.065  -1.441   0.000  0.00  0.00    +0.183 C 
BRANCH  14  15
ATOM     15  N   UNL     1       2.065  -2.266   0.000  0.00  0.00    -0.242 N 
ATOM     16  N   UNL     1       1.398  -2.751   0.000  0.00  0.00    -0.167 NA
ATOM     17  C   UNL     1       1.653  -3.536   0.000  0.00  0.00    +0.122 A 
ATOM     18  C   UNL     1       2.478  -3.536   0.000  0.00  0.00    +0.043 A 
ATOM     19  C   UNL     1       2.733  -2.751   0.000  0.00  0.00    +0.097 A 
ENDBRANCH  14  15
ENDBRANCH   1  14
TORSDOF 4
