REMARK  Name = 
REMARK  6 active torsions:
REMARK  status: ('A' for Active; 'I' for Inactive)
REMARK    1  A    between atoms: C_2  and  N_3
REMARK    2  A    between atoms: C_7  and  C_8
REMARK    3  A    between atoms: C_8  and  N_9
REMARK    4  A    between atoms: C_10  and  C_12
REMARK    5  A    between atoms: C_12  and  C_13
REMARK    6  A    between atoms: C_16  and  C_18
REMARK                            x       y       z     vdW  Elec       q    Type
REMARK                         _______ _______ _______ _____ _____    ______ ____
ROOT
ATOM      1  N   UNL     1       0.743  -2.437   0.000  0.00  0.00    -0.204 NA
ATOM      2  C   UNL     1       1.457  -2.025   0.000  0.00  0.00    +0.247 C 
ATOM      3  O   UNL     1       1.457  -1.200   0.000  0.00  0.00    -0.273 OA
ENDROOT
BRANCH   1   4
ATOM      4  C   UNL     1       0.028  -2.025   0.000  0.00  0.00    +0.131 C 
BRANCH   4   6
ATOM      5  N   UNL     1      -0.773  -3.258   0.000  0.00  0.00    -0.272 NA
ATOM      6  C   UNL     1      -0.686  -2.437   0.000  0.00  0.00    +0.079 C 
ATOM      7  C   UNL     1      -1.440  -2.102   0.000  0.00  0.00    +0.019 C 
ATOM      8  C   UNL     1      -1.992  -2.715   0.000  0.00  0.00    +0.019 C 
ATOM      9  C   UNL     1      -1.580  -3.429   0.000  0.00  0.00    +0.072 C 
BRANCH   5  11
ATOM     10  C   UNL     1      -0.331  -4.617   0.000  0.00  0.00    +0.019 C 
ATOM     11  C   UNL     1      -0.160  -3.810   0.000  0.00  0.00    +0.072 C 
ENDBRANCH   5  11
ENDBRANCH   4   6
ENDBRANCH   1   4
BRANCH   2  12
ATOM     12  C   UNL     1       2.171  -2.437   0.000  0.00  0.00    +0.133 C 
BRANCH  12  13
ATOM     13  C   UNL     1       2.886  -2.025   0.000  0.00  0.00    +0.075 A 
ATOM     14  N   UNL     1       3.640  -2.360   0.000  0.00  0.00    -0.247 NA
ATOM     15  C   UNL     1       4.192  -1.747   0.000  0.00  0.00    +0.087 A 
ATOM     16  S   UNL     1       3.779  -1.033   0.000  0.00  0.00    -0.071 S 
ATOM     17  C   UNL     1       2.972  -1.204   0.000  0.00  0.00    +0.052 A 
BRANCH  15  18
ATOM     18  C   UNL     1       5.012  -1.833   0.000  0.00  0.00    +0.047 C 
ATOM     19  C   UNL     1       5.348  -2.587   0.000  0.00  0.00    +0.007 C 
ATOM     20  C   UNL     1       5.497  -1.166   0.000  0.00  0.00    +0.007 C 
ENDBRANCH  15  18
ENDBRANCH  12  13
ENDBRANCH   2  12
TORSDOF 6
