REMARK  Name = 
REMARK  6 active torsions:
REMARK  status: ('A' for Active; 'I' for Inactive)
REMARK    1  A    between atoms: C_2  and  N_3
REMARK    2  A    between atoms: C_4  and  C_6
REMARK    3  A    between atoms: C_6  and  N_7
REMARK    4  A    between atoms: C_8  and  C_10
REMARK    5  A    between atoms: C_10  and  C_11
REMARK    6  A    between atoms: C_14  and  C_16
REMARK                            x       y       z     vdW  Elec       q    Type
REMARK                         _______ _______ _______ _____ _____    ______ ____
ROOT
ATOM      1  N   UNL     1       3.006  -5.233   0.000  0.00  0.00    -0.195 NA
ATOM      2  C   UNL     1       3.721  -4.820   0.000  0.00  0.00    +0.248 C 
ATOM      3  O   UNL     1       3.721  -3.995   0.000  0.00  0.00    -0.273 OA
ENDROOT
BRANCH   1   4
ATOM      4  C   UNL     1       2.292  -4.820   0.000  0.00  0.00    +0.201 C 
BRANCH   4   6
ATOM      5  N   UNL     1       0.863  -4.820   0.000  0.00  0.00    -0.204 NA
ATOM      6  C   UNL     1       1.577  -5.233   0.000  0.00  0.00    +0.263 C 
ATOM      7  O   UNL     1       1.577  -6.058   0.000  0.00  0.00    -0.271 OA
BRANCH   5   9
ATOM      8  C   UNL     1      -0.566  -4.820   0.000  0.00  0.00    +0.025 C 
ATOM      9  C   UNL     1       0.148  -5.233   0.000  0.00  0.00    +0.115 C 
ENDBRANCH   5   9
ENDBRANCH   4   6
ENDBRANCH   1   4
BRANCH   2  10
ATOM     10  C   UNL     1       4.435  -5.233   0.000  0.00  0.00    +0.133 C 
BRANCH  10  11
ATOM     11  C   UNL     1       5.150  -4.820   0.000  0.00  0.00    +0.075 A 
ATOM     12  N   UNL     1       5.903  -5.156   0.000  0.00  0.00    -0.247 NA
ATOM     13  C   UNL     1       6.455  -4.543   0.000  0.00  0.00    +0.087 A 
ATOM     14  S   UNL     1       6.043  -3.828   0.000  0.00  0.00    -0.071 S 
ATOM     15  C   UNL     1       5.236  -4.000   0.000  0.00  0.00    +0.052 A 
BRANCH  13  16
ATOM     16  C   UNL     1       7.276  -4.629   0.000  0.00  0.00    +0.047 C 
ATOM     17  C   UNL     1       7.611  -5.383   0.000  0.00  0.00    +0.007 C 
ATOM     18  C   UNL     1       7.761  -3.962   0.000  0.00  0.00    +0.007 C 
ENDBRANCH  13  16
ENDBRANCH  10  11
ENDBRANCH   2  10
TORSDOF 6
