REMARK  Name = 
REMARK  3 active torsions:
REMARK  status: ('A' for Active; 'I' for Inactive)
REMARK    1  A    between atoms: C_2  and  N_5
REMARK    2  A    between atoms: C_6  and  C_8
REMARK    3  A    between atoms: C_8  and  N_9
REMARK                            x       y       z     vdW  Elec       q    Type
REMARK                         _______ _______ _______ _____ _____    ______ ____
ROOT
ATOM      1  C   UNL     1       0.715   2.062   0.000  0.00  0.00    +0.217 C 
ENDROOT
BRANCH   1   2
ATOM      2  N   UNL     1       0.715   1.238   0.000  0.00  0.00    -0.204 N 
ATOM      3  C   UNL     1       0.000   0.825   0.000  0.00  0.00    +0.277 A 
ATOM      4  O   UNL     1      -0.715   1.238   0.000  0.00  0.00    -0.265 OA
ATOM      5  C   UNL     1       0.000   0.000   0.000  0.00  0.00    +0.067 A 
ATOM      6  C   UNL     1       0.715  -0.412   0.000  0.00  0.00    +0.069 A 
ATOM      7  C   UNL     1       1.429   0.000   0.000  0.00  0.00    +0.295 A 
ATOM      8  O   UNL     1       2.143  -0.412   0.000  0.00  0.00    -0.264 OA
ATOM      9  N   UNL     1       1.429   0.825   0.000  0.00  0.00    -0.124 NA
ENDBRANCH   1   2
BRANCH   1  11
ATOM     10  N   UNL     1       0.000   3.300   0.000  0.00  0.00    -0.207 NA
ATOM     11  C   UNL     1       0.000   2.475   0.000  0.00  0.00    +0.266 C 
ATOM     12  O   UNL     1      -0.715   2.062   0.000  0.00  0.00    -0.271 OA
BRANCH  10  14
ATOM     13  C   UNL     1      -1.429   4.125   0.000  0.00  0.00    +0.022 C 
ATOM     14  C   UNL     1      -0.715   3.712   0.000  0.00  0.00    +0.079 C 
ATOM     15  C   UNL     1      -0.302   4.427   0.000  0.00  0.00    +0.022 C 
ATOM     16  C   UNL     1      -1.127   2.998   0.000  0.00  0.00    +0.022 C 
ENDBRANCH  10  14
ENDBRANCH   1  11
TORSDOF 3
