REMARK  Name = 
REMARK  3 active torsions:
REMARK  status: ('A' for Active; 'I' for Inactive)
REMARK    1  A    between atoms: N_9  and  C_10
REMARK    2  A    between atoms: C_10  and  C_11
REMARK    3  A    between atoms: C_11  and  C_14
REMARK                            x       y       z     vdW  Elec       q    Type
REMARK                         _______ _______ _______ _____ _____    ______ ____
ROOT
ATOM      1  F   UNL     1      -3.572   3.712   0.000  0.00  0.00    -0.203 F 
ATOM      2  C   UNL     1      -2.858   3.300   0.000  0.00  0.00    +0.159 A 
ATOM      3  C   UNL     1      -2.858   2.475   0.000  0.00  0.00    +0.130 A 
ATOM      4  N   UNL     1      -2.143   2.062   0.000  0.00  0.00    -0.225 NA
ATOM      5  C   UNL     1      -1.429   2.475   0.000  0.00  0.00    +0.156 A 
ATOM      6  N   UNL     1      -0.715   2.062   0.000  0.00  0.00    -0.142 NA
ATOM      7  C   UNL     1       0.000   2.475   0.000  0.00  0.00    +0.345 C 
ATOM      8  N   UNL     1       0.715   2.062   0.000  0.00  0.00    -0.187 NA
ATOM      9  O   UNL     1       0.000   3.300   0.000  0.00  0.00    -0.249 OA
ATOM     10  C   UNL     1      -1.429   3.300   0.000  0.00  0.00    +0.039 A 
ATOM     11  C   UNL     1      -2.143   3.712   0.000  0.00  0.00    +0.034 A 
ENDROOT
BRANCH   8  12
ATOM     12  C   UNL     1       1.429   2.475   0.000  0.00  0.00    +0.117 C 
BRANCH  12  13
ATOM     13  C   UNL     1       2.143   2.062   0.000  0.00  0.00    +0.020 C 
ATOM     14  C   UNL     1       1.861   1.287   0.000  0.00  0.00    +0.002 C 
ATOM     15  C   UNL     1       2.674   1.431   0.000  0.00  0.00    +0.002 C 
BRANCH  13  16
ATOM     16  C   UNL     1       2.674   2.695   0.000  0.00  0.00    +0.002 C 
ATOM     17  C   UNL     1       3.449   2.977   0.000  0.00  0.00    +0.000 C 
ATOM     18  C   UNL     1       2.817   3.507   0.000  0.00  0.00    +0.000 C 
ENDBRANCH  13  16
ENDBRANCH  12  13
ENDBRANCH   8  12
TORSDOF 3
