REMARK  Name = 
REMARK  4 active torsions:
REMARK  status: ('A' for Active; 'I' for Inactive)
REMARK    1  A    between atoms: N_6  and  C_7
REMARK    2  A    between atoms: C_7  and  C_8
REMARK    3  A    between atoms: C_8  and  C_10
REMARK    4  A    between atoms: C_10  and  N_11
REMARK                            x       y       z     vdW  Elec       q    Type
REMARK                         _______ _______ _______ _____ _____    ______ ____
ROOT
ATOM      1  C   UNL     1       0.884  -2.150   0.000  0.00  0.00    +0.142 C 
ENDROOT
BRANCH   1   2
ATOM      2  N   UNL     1       1.139  -1.365   0.000  0.00  0.00    -0.306 N 
ATOM      3  C   UNL     1       1.923  -1.110   0.000  0.00  0.00    +0.079 A 
ATOM      4  C   UNL     1       1.923  -0.285   0.000  0.00  0.00    +0.098 A 
ATOM      5  C   UNL     1       2.638   0.127   0.000  0.00  0.00    +0.016 A 
ATOM      6  C   UNL     1       3.352  -0.285   0.000  0.00  0.00    -0.024 A 
ATOM      7  C   UNL     1       3.352  -1.110   0.000  0.00  0.00    -0.024 A 
ATOM      8  C   UNL     1       4.067  -1.523   0.000  0.00  0.00    +0.031 C 
ATOM      9  C   UNL     1       4.067   0.127   0.000  0.00  0.00    +0.031 C 
ATOM     10  N   UNL     1       1.139  -0.030   0.000  0.00  0.00    -0.224 NA
ATOM     11  C   UNL     1       2.638  -1.523   0.000  0.00  0.00    +0.014 A 
ATOM     12  C   UNL     1       0.654  -0.698   0.000  0.00  0.00    +0.179 A 
ENDBRANCH   1   2
BRANCH   1  13
ATOM     13  C   UNL     1       0.077  -2.321   0.000  0.00  0.00    +0.195 C 
ATOM     14  O   UNL     1      -0.475  -1.708   0.000  0.00  0.00    -0.219 OA
BRANCH  13  15
ATOM     15  C   UNL     1      -0.178  -3.106   0.000  0.00  0.00    +0.136 C 
BRANCH  15  20
ATOM     16  C   UNL     1      -2.693  -4.558   0.000  0.00  0.00    +0.010 C 
ATOM     17  C   UNL     1      -2.141  -3.945   0.000  0.00  0.00    +0.086 C 
ATOM     18  C   UNL     1      -1.321  -4.031   0.000  0.00  0.00    +0.231 C 
ATOM     19  O   UNL     1      -0.908  -4.746   0.000  0.00  0.00    -0.274 OA
ATOM     20  N   UNL     1      -0.985  -3.278   0.000  0.00  0.00    -0.227 N 
ATOM     21  C   UNL     1      -1.598  -2.726   0.000  0.00  0.00    +0.232 C 
ATOM     22  O   UNL     1      -1.512  -1.905   0.000  0.00  0.00    -0.274 OA
ATOM     23  C   UNL     1      -2.313  -3.138   0.000  0.00  0.00    +0.095 C 
ENDBRANCH  15  20
ENDBRANCH  13  15
ENDBRANCH   1  13
TORSDOF 4
