REMARK  Name = 
REMARK  2 active torsions:
REMARK  status: ('A' for Active; 'I' for Inactive)
REMARK    1  A    between atoms: C_6  and  C_8
REMARK    2  A    between atoms: C_8  and  N_9
REMARK                            x       y       z     vdW  Elec       q    Type
REMARK                         _______ _______ _______ _____ _____    ______ ____
ROOT
ATOM      1  N   UNL     1      -2.042  -1.098   0.000  0.00  0.00    -0.292 N 
ATOM      2  C   UNL     1      -1.429  -1.650   0.000  0.00  0.00    +0.167 A 
ATOM      3  C   UNL     1      -0.715  -1.238   0.000  0.00  0.00    +0.149 A 
ATOM      4  C   UNL     1       0.000  -1.650   0.000  0.00  0.00    +0.154 A 
ATOM      5  N   UNL     1       0.715  -1.238   0.000  0.00  0.00    -0.290 N 
ATOM      6  C   UNL     1       1.429  -1.650   0.000  0.00  0.00    +0.116 C 
ATOM      7  C   UNL     1       2.143  -1.238   0.000  0.00  0.00    +0.142 C 
ATOM      8  C   UNL     1       2.143  -0.412   0.000  0.00  0.00    +0.139 C 
ATOM      9  O   UNL     1       2.858   0.000   0.000  0.00  0.00    -0.345 OA
ATOM     10  C   UNL     1       3.572  -0.412   0.000  0.00  0.00    +0.229 C 
ATOM     11  C   UNL     1       3.572  -1.238   0.000  0.00  0.00    +0.272 C 
ATOM     12  O   UNL     1       4.287  -1.650   0.000  0.00  0.00    -0.271 OA
ATOM     13  C   UNL     1       1.429   0.000   0.000  0.00  0.00    +0.053 C 
ATOM     14  N   UNL     1       2.858  -1.650   0.000  0.00  0.00    -0.201 NA
ATOM     15  C   UNL     1       0.715  -0.412   0.000  0.00  0.00    +0.095 C 
ATOM     16  N   UNL     1       0.000  -2.475   0.000  0.00  0.00    -0.207 NA
ATOM     17  C   UNL     1      -0.715  -2.888   0.000  0.00  0.00    +0.201 A 
ATOM     18  N   UNL     1      -0.886  -0.430   0.000  0.00  0.00    -0.219 NA
ATOM     19  N   UNL     1      -1.429  -2.475   0.000  0.00  0.00    -0.205 NA
ATOM     20  C   UNL     1      -1.706  -0.344   0.000  0.00  0.00    +0.180 A 
ENDROOT
BRANCH   1  21
ATOM     21  C   UNL     1      -2.849  -1.270   0.000  0.00  0.00    +0.142 C 
BRANCH  21  24
ATOM     22  C   UNL     1      -4.082  -1.959   0.000  0.00  0.00    +0.035 C 
ATOM     23  C   UNL     1      -4.074  -1.134   0.000  0.00  0.00    +0.145 C 
ATOM     24  C   UNL     1      -3.401  -0.656   0.000  0.00  0.00    +0.174 C 
ATOM     25  O   UNL     1      -2.591  -0.502   0.000  0.00  0.00    -0.221 OA
ATOM     26  C   UNL     1      -3.648   0.131   0.000  0.00  0.00    +0.067 C 
ATOM     27  C   UNL     1      -4.473   0.140   0.000  0.00  0.00    +0.145 C 
ATOM     28  O   UNL     1      -4.736  -0.642   0.000  0.00  0.00    -0.354 OA
ENDBRANCH  21  24
ENDBRANCH   1  21
TORSDOF 2
