REMARK  Name = 
REMARK  2 active torsions:
REMARK  status: ('A' for Active; 'I' for Inactive)
REMARK    1  A    between atoms: C_2  and  C_3
REMARK    2  A    between atoms: C_3  and  C_5
REMARK                            x       y       z     vdW  Elec       q    Type
REMARK                         _______ _______ _______ _____ _____    ______ ____
ROOT
ATOM      1  C   UNL     1       0.715   1.238   0.000  0.00  0.00    +0.012 A 
ATOM      2  C   UNL     1       0.000   0.825   0.000  0.00  0.00    +0.019 A 
ATOM      3  C   UNL     1       0.000   0.000   0.000  0.00  0.00    +0.099 A 
ATOM      4  N   UNL     1       0.715  -0.412   0.000  0.00  0.00    -0.242 NA
ATOM      5  C   UNL     1       1.429   0.000   0.000  0.00  0.00    +0.099 A 
ATOM      6  C   UNL     1       1.429   0.825   0.000  0.00  0.00    +0.019 A 
ENDROOT
BRANCH   1   7
ATOM      7  C   UNL     1       0.715   2.062   0.000  0.00  0.00    +0.193 C 
ATOM      8  O   UNL     1       1.429   2.475   0.000  0.00  0.00    -0.217 OA
BRANCH   7  10
ATOM      9  N   UNL     1       0.000   3.300   0.000  0.00  0.00    -0.128 NA
ATOM     10  C   UNL     1       0.000   2.475   0.000  0.00  0.00    +0.147 C 
ENDBRANCH   7  10
ENDBRANCH   1   7
TORSDOF 2
