REMARK  Name = 
REMARK  4 active torsions:
REMARK  status: ('A' for Active; 'I' for Inactive)
REMARK    1  A    between atoms: C_5  and  C_6
REMARK    2  A    between atoms: C_6  and  C_7
REMARK    3  A    between atoms: C_7  and  N_8
REMARK    4  A    between atoms: C_9  and  C_11
REMARK                            x       y       z     vdW  Elec       q    Type
REMARK                         _______ _______ _______ _____ _____    ______ ____
ROOT
ATOM      1  N   UNL     1      -1.429   0.000   0.000  0.00  0.00    -0.205 NA
ATOM      2  C   UNL     1      -0.715  -0.412   0.000  0.00  0.00    +0.241 C 
ATOM      3  O   UNL     1      -0.715  -1.238   0.000  0.00  0.00    -0.273 OA
ENDROOT
BRANCH   2   4
ATOM      4  C   UNL     1       0.000   0.000   0.000  0.00  0.00    +0.078 C 
ATOM      5  C   UNL     1       0.000   0.825   0.000  0.00  0.00    +0.009 C 
ATOM      6  C   UNL     1       0.611   0.234   0.000  0.00  0.00    +0.000 C 
ATOM      7  C   UNL     1       1.429   0.000   0.000  0.00  0.00    +0.000 C 
ATOM      8  C   UNL     1       1.429   0.825   0.000  0.00  0.00    +0.000 C 
ATOM      9  C   UNL     1       0.715   1.238   0.000  0.00  0.00    +0.000 C 
ATOM     10  C   UNL     1       0.715  -0.412   0.000  0.00  0.00    +0.009 C 
ENDBRANCH   2   4
BRANCH   1  11
ATOM     11  C   UNL     1      -2.143  -0.412   0.000  0.00  0.00    +0.125 C 
BRANCH  11  12
ATOM     12  C   UNL     1      -2.858   0.000   0.000  0.00  0.00    +0.111 C 
BRANCH  12  16
ATOM     13  C   UNL     1      -4.801  -2.158   0.000  0.00  0.00    +0.077 C 
ATOM     14  C   UNL     1      -4.466  -1.405   0.000  0.00  0.00    +0.181 A 
ATOM     15  N   UNL     1      -3.659  -1.233   0.000  0.00  0.00    -0.195 NA
ATOM     16  C   UNL     1      -3.572  -0.412   0.000  0.00  0.00    +0.238 A 
ATOM     17  O   UNL     1      -4.326  -0.077   0.000  0.00  0.00    -0.337 OA
ATOM     18  N   UNL     1      -4.878  -0.690   0.000  0.00  0.00    -0.061 NA
ENDBRANCH  12  16
ENDBRANCH  11  12
ENDBRANCH   1  11
TORSDOF 4
