REMARK  Name = 
REMARK  3 active torsions:
REMARK  status: ('A' for Active; 'I' for Inactive)
REMARK    1  A    between atoms: N_10  and  C_11
REMARK    2  A    between atoms: C_11  and  C_12
REMARK    3  A    between atoms: C_12  and  C_14
REMARK                            x       y       z     vdW  Elec       q    Type
REMARK                         _______ _______ _______ _____ _____    ______ ____
ROOT
ATOM      1  C   UNL     1       0.884  -2.150   0.000  0.00  0.00    +0.145 C 
ENDROOT
BRANCH   1   4
ATOM      2  C   UNL     1      -0.171  -0.698   0.000  0.00  0.00    +0.072 C 
ATOM      3  C   UNL     1       0.654  -0.698   0.000  0.00  0.00    +0.121 A 
ATOM      4  N   UNL     1       1.139  -1.365   0.000  0.00  0.00    -0.312 N 
ATOM      5  C   UNL     1       1.923  -1.110   0.000  0.00  0.00    +0.079 A 
ATOM      6  C   UNL     1       1.923  -0.285   0.000  0.00  0.00    +0.098 A 
ATOM      7  C   UNL     1       2.638   0.127   0.000  0.00  0.00    +0.021 A 
ATOM      8  C   UNL     1       3.352  -0.285   0.000  0.00  0.00    +0.002 A 
ATOM      9  C   UNL     1       3.352  -1.110   0.000  0.00  0.00    +0.002 A 
ATOM     10  C   UNL     1       2.638  -1.523   0.000  0.00  0.00    +0.019 A 
ATOM     11  N   UNL     1       1.139  -0.030   0.000  0.00  0.00    -0.231 NA
ENDBRANCH   1   4
BRANCH   1  12
ATOM     12  C   UNL     1       1.436  -2.763   0.000  0.00  0.00    +0.199 C 
ATOM     13  O   UNL     1       2.243  -2.592   0.000  0.00  0.00    -0.216 OA
BRANCH  12  14
ATOM     14  C   UNL     1       1.181  -3.548   0.000  0.00  0.00    +0.037 A 
ATOM     15  C   UNL     1       0.374  -3.719   0.000  0.00  0.00    +0.141 A 
ATOM     16  F   UNL     1      -0.178  -3.106   0.000  0.00  0.00    -0.204 F 
ATOM     17  C   UNL     1       0.119  -4.504   0.000  0.00  0.00    +0.059 A 
ATOM     18  C   UNL     1       0.671  -5.117   0.000  0.00  0.00    +0.142 A 
ATOM     19  F   UNL     1       0.416  -5.902   0.000  0.00  0.00    -0.204 F 
ATOM     20  C   UNL     1       1.478  -4.945   0.000  0.00  0.00    +0.030 A 
ATOM     21  C   UNL     1       1.733  -4.161   0.000  0.00  0.00    +0.003 A 
ENDBRANCH  12  14
ENDBRANCH   1  12
TORSDOF 3
