REMARK  Name = 
REMARK  4 active torsions:
REMARK  status: ('A' for Active; 'I' for Inactive)
REMARK    1  A    between atoms: N_3  and  C_4
REMARK    2  A    between atoms: C_4  and  C_5
REMARK    3  A    between atoms: C_5  and  C_6
REMARK    4  A    between atoms: N_12  and  C_13
REMARK                            x       y       z     vdW  Elec       q    Type
REMARK                         _______ _______ _______ _____ _____    ______ ____
ROOT
ATOM      1  C   UNL     1       1.429  -1.650   0.000  0.00  0.00    +0.123 C 
ENDROOT
BRANCH   1   5
ATOM      2  O   UNL     1       2.858  -2.475   0.000  0.00  0.00    -0.249 OA
ATOM      3  C   UNL     1       2.858  -1.650   0.000  0.00  0.00    +0.339 C 
ATOM      4  N   UNL     1       3.572  -1.238   0.000  0.00  0.00    -0.189 NA
ATOM      5  N   UNL     1       2.143  -1.238   0.000  0.00  0.00    -0.187 NA
BRANCH   4   6
ATOM      6  C   UNL     1       4.287  -1.650   0.000  0.00  0.00    +0.097 C 
ATOM      7  C   UNL     1       4.699  -2.365   0.000  0.00  0.00    +0.023 C 
ATOM      8  C   UNL     1       5.112  -1.650   0.000  0.00  0.00    +0.023 C 
ENDBRANCH   4   6
ENDBRANCH   1   5
BRANCH   1   9
ATOM      9  C   UNL     1       0.715  -1.238   0.000  0.00  0.00    +0.069 C 
BRANCH   9  10
ATOM     10  C   UNL     1       0.000  -1.650   0.000  0.00  0.00    +0.061 A 
ATOM     11  N   UNL     1      -0.715  -1.238   0.000  0.00  0.00    -0.248 NA
ATOM     12  C   UNL     1      -1.429  -1.650   0.000  0.00  0.00    +0.098 A 
ATOM     13  C   UNL     1      -1.429  -2.475   0.000  0.00  0.00    +0.021 A 
ATOM     14  C   UNL     1      -0.715  -2.888   0.000  0.00  0.00    +0.003 A 
ATOM     15  C   UNL     1       0.000  -2.475   0.000  0.00  0.00    +0.015 A 
ENDBRANCH   9  10
ENDBRANCH   1   9
TORSDOF 4
