REMARK  Name = 
REMARK  1 active torsions:
REMARK  status: ('A' for Active; 'I' for Inactive)
REMARK    1  A    between atoms: N_2  and  C_3
REMARK                            x       y       z     vdW  Elec       q    Type
REMARK                         _______ _______ _______ _____ _____    ______ ____
ROOT
ATOM      1  C   UNL     1       0.715  -1.238   0.000  0.00  0.00    +0.085 A 
ATOM      2  C   UNL     1       0.000  -1.650   0.000  0.00  0.00    +0.116 A 
ATOM      3  N   UNL     1       0.000  -2.475   0.000  0.00  0.00    -0.228 NA
ATOM      4  C   UNL     1       0.715  -2.888   0.000  0.00  0.00    +0.132 A 
ATOM      5  N   UNL     1       0.715  -3.712   0.000  0.00  0.00    -0.288 N 
ATOM      6  C   UNL     1       0.000  -4.125   0.000  0.00  0.00    +0.124 C 
ATOM      7  C   UNL     1       0.000  -4.950   0.000  0.00  0.00    +0.164 C 
ATOM      8  O   UNL     1       0.715  -5.362   0.000  0.00  0.00    -0.350 OA
ATOM      9  C   UNL     1       1.429  -4.950   0.000  0.00  0.00    +0.164 C 
ATOM     10  C   UNL     1       1.429  -4.125   0.000  0.00  0.00    +0.124 C 
ATOM     11  C   UNL     1       1.429  -2.475   0.000  0.00  0.00    +0.036 A 
ATOM     12  C   UNL     1       1.429  -1.650   0.000  0.00  0.00    +0.021 A 
ENDROOT
BRANCH   1  14
ATOM     13  C   UNL     1       0.000   0.000   0.000  0.00  0.00    +0.136 C 
ATOM     14  N   UNL     1       0.715  -0.412   0.000  0.00  0.00    -0.234 NA
ENDBRANCH   1  14
TORSDOF 1
