REMARK  Name = 
REMARK  5 active torsions:
REMARK  status: ('A' for Active; 'I' for Inactive)
REMARK    1  A    between atoms: N_6  and  C_7
REMARK    2  A    between atoms: C_7  and  C_8
REMARK    3  A    between atoms: C_8  and  O_9
REMARK    4  A    between atoms: O_9  and  C_10
REMARK    5  A    between atoms: C_10  and  C_11
REMARK                            x       y       z     vdW  Elec       q    Type
REMARK                         _______ _______ _______ _____ _____    ______ ____
ROOT
ATOM      1  C   UNL     1      -2.143   1.238   0.000  0.00  0.00    +0.034 C 
ATOM      2  C   UNL     1      -1.429   1.650   0.000  0.00  0.00    +0.011 A 
ATOM      3  C   UNL     1      -0.715   1.238   0.000  0.00  0.00    +0.060 A 
ATOM      4  C   UNL     1      -0.715   0.412   0.000  0.00  0.00    +0.052 C 
ATOM      5  N   UNL     1       0.000   1.650   0.000  0.00  0.00    -0.217 NA
ATOM      6  C   UNL     1       0.000   2.475   0.000  0.00  0.00    +0.236 A 
ATOM      7  N   UNL     1       0.715   2.888   0.000  0.00  0.00    -0.201 NA
ATOM      8  N   UNL     1      -0.715   2.888   0.000  0.00  0.00    -0.211 NA
ATOM      9  C   UNL     1      -1.429   2.475   0.000  0.00  0.00    +0.099 A 
ENDROOT
BRANCH   7  10
ATOM     10  C   UNL     1       1.429   2.475   0.000  0.00  0.00    +0.147 C 
BRANCH  10  11
ATOM     11  C   UNL     1       2.143   2.888   0.000  0.00  0.00    +0.166 C 
BRANCH  11  12
ATOM     12  O   UNL     1       2.858   2.475   0.000  0.00  0.00    -0.349 OA
BRANCH  12  13
ATOM     13  C   UNL     1       3.572   2.888   0.000  0.00  0.00    +0.178 C 
BRANCH  13  14
ATOM     14  C   UNL     1       4.287   2.475   0.000  0.00  0.00    +0.214 C 
ATOM     15  O   UNL     1       5.001   2.888   0.000  0.00  0.00    -0.218 OA
ENDBRANCH  13  14
ENDBRANCH  12  13
ENDBRANCH  11  12
ENDBRANCH  10  11
ENDBRANCH   7  10
TORSDOF 5
