REMARK  Name = 
REMARK  6 active torsions:
REMARK  status: ('A' for Active; 'I' for Inactive)
REMARK    1  A    between atoms: O_2  and  C_3
REMARK    2  A    between atoms: N_8  and  C_9
REMARK    3  A    between atoms: C_9  and  C_10
REMARK    4  A    between atoms: C_10  and  C_12
REMARK    5  A    between atoms: C_12  and  C_13
REMARK    6  A    between atoms: C_13  and  C_14
REMARK                            x       y       z     vdW  Elec       q    Type
REMARK                         _______ _______ _______ _____ _____    ______ ____
ROOT
ATOM      1  C   UNL     1       0.715  -2.888   0.000  0.00  0.00    +0.164 C 
ENDROOT
BRANCH   1   4
ATOM      2  C   UNL     1      -1.429  -2.475   0.000  0.00  0.00    +0.242 A 
ATOM      3  N   UNL     1      -0.715  -2.888   0.000  0.00  0.00    -0.129 NA
ATOM      4  N   UNL     1       0.000  -2.475   0.000  0.00  0.00    -0.211 N 
ATOM      5  C   UNL     1       0.000  -1.650   0.000  0.00  0.00    +0.277 A 
ATOM      6  O   UNL     1       0.715  -1.238   0.000  0.00  0.00    -0.266 OA
ATOM      7  C   UNL     1      -0.715  -1.238   0.000  0.00  0.00    +0.067 A 
ATOM      8  C   UNL     1      -1.429  -1.650   0.000  0.00  0.00    +0.064 A 
BRANCH   2  10
ATOM      9  C   UNL     1      -2.858  -2.475   0.000  0.00  0.00    +0.254 C 
ATOM     10  O   UNL     1      -2.143  -2.888   0.000  0.00  0.00    -0.455 OA
ENDBRANCH   2  10
ENDBRANCH   1   4
BRANCH   1  11
ATOM     11  C   UNL     1       1.429  -2.475   0.000  0.00  0.00    +0.177 C 
ATOM     12  O   UNL     1       1.429  -1.650   0.000  0.00  0.00    -0.221 OA
BRANCH  11  13
ATOM     13  C   UNL     1       2.143  -2.888   0.000  0.00  0.00    +0.040 C 
BRANCH  13  14
ATOM     14  C   UNL     1       2.858  -2.475   0.000  0.00  0.00    +0.029 C 
BRANCH  14  15
ATOM     15  C   UNL     1       3.572  -2.888   0.000  0.00  0.00    -0.022 A 
ATOM     16  C   UNL     1       3.572  -3.712   0.000  0.00  0.00    -0.004 A 
ATOM     17  C   UNL     1       4.287  -4.125   0.000  0.00  0.00    -0.000 A 
ATOM     18  C   UNL     1       5.001  -3.712   0.000  0.00  0.00    -0.000 A 
ATOM     19  C   UNL     1       5.001  -2.888   0.000  0.00  0.00    -0.000 A 
ATOM     20  C   UNL     1       4.287  -2.475   0.000  0.00  0.00    -0.004 A 
ENDBRANCH  14  15
ENDBRANCH  13  14
ENDBRANCH  11  13
ENDBRANCH   1  11
TORSDOF 6
