REMARK  Name = 
REMARK  3 active torsions:
REMARK  status: ('A' for Active; 'I' for Inactive)
REMARK    1  A    between atoms: C_3  and  C_5
REMARK    2  A    between atoms: C_9  and  N_10
REMARK    3  A    between atoms: N_13  and  C_14
REMARK                            x       y       z     vdW  Elec       q    Type
REMARK                         _______ _______ _______ _____ _____    ______ ____
ROOT
ATOM      1  C   UNL     1      -2.143  -1.238   0.000  0.00  0.00    +0.138 A 
ATOM      2  N   UNL     1      -2.858  -1.650   0.000  0.00  0.00    -0.224 NA
ATOM      3  C   UNL     1      -2.858  -2.475   0.000  0.00  0.00    +0.156 A 
ATOM      4  C   UNL     1      -2.143  -2.888   0.000  0.00  0.00    +0.036 A 
ATOM      5  C   UNL     1      -1.429  -2.475   0.000  0.00  0.00    +0.005 A 
ATOM      6  C   UNL     1      -1.429  -1.650   0.000  0.00  0.00    +0.024 A 
ENDROOT
BRANCH   1   9
ATOM      7  C   UNL     1      -1.429   0.825   0.000  0.00  0.00    +0.139 C 
ATOM      8  N   UNL     1      -1.429   0.000   0.000  0.00  0.00    -0.198 NA
ATOM      9  C   UNL     1      -2.143  -0.412   0.000  0.00  0.00    +0.283 C 
ATOM     10  O   UNL     1      -2.858   0.000   0.000  0.00  0.00    -0.267 OA
ENDBRANCH   1   9
BRANCH   3  11
ATOM     11  N   UNL     1      -3.572  -2.888   0.000  0.00  0.00    -0.142 NA
ATOM     12  C   UNL     1      -4.287  -2.475   0.000  0.00  0.00    +0.345 C 
ATOM     13  N   UNL     1      -5.001  -2.888   0.000  0.00  0.00    -0.184 NA
ATOM     14  O   UNL     1      -4.287  -1.650   0.000  0.00  0.00    -0.249 OA
BRANCH  13  15
ATOM     15  C   UNL     1      -5.001  -3.712   0.000  0.00  0.00    +0.119 C 
ATOM     16  C   UNL     1      -5.716  -4.125   0.000  0.00  0.00    -0.009 C 
ATOM     17  C   UNL     1      -5.716  -4.950   0.000  0.00  0.00    -0.029 C 
ATOM     18  C   UNL     1      -5.001  -5.362   0.000  0.00  0.00    +0.026 C 
ATOM     19  C   UNL     1      -4.287  -4.950   0.000  0.00  0.00    +0.007 C 
ATOM     20  C   UNL     1      -4.287  -4.125   0.000  0.00  0.00    +0.027 C 
ENDBRANCH  13  15
ENDBRANCH   3  11
TORSDOF 3
