REMARK  Name = 
REMARK  4 active torsions:
REMARK  status: ('A' for Active; 'I' for Inactive)
REMARK    1  A    between atoms: C_2  and  N_4
REMARK    2  A    between atoms: N_3  and  C_12
REMARK    3  A    between atoms: C_8  and  C_9
REMARK    4  A    between atoms: C_12  and  C_13
REMARK                            x       y       z     vdW  Elec       q    Type
REMARK                         _______ _______ _______ _____ _____    ______ ____
ROOT
ATOM      1  C   UNL     1       2.561   0.825   0.000  0.00  0.00    +0.149 A 
ATOM      2  N   UNL     1       1.778   1.083   0.000  0.00  0.00    -0.219 NA
ATOM      3  C   UNL     1       1.291   0.412   0.000  0.00  0.00    +0.180 A 
ATOM      4  N   UNL     1       1.778  -0.254   0.000  0.00  0.00    -0.292 N 
ATOM      5  C   UNL     1       2.561   0.000   0.000  0.00  0.00    +0.167 A 
ATOM      6  N   UNL     1       3.273  -0.412   0.000  0.00  0.00    -0.205 NA
ATOM      7  C   UNL     1       3.990   0.000   0.000  0.00  0.00    +0.201 A 
ATOM      8  N   UNL     1       3.990   0.825   0.000  0.00  0.00    -0.207 NA
ATOM      9  C   UNL     1       3.273   1.237   0.000  0.00  0.00    +0.154 A 
ENDROOT
BRANCH   9  10
ATOM     10  N   UNL     1       3.273   2.061   0.000  0.00  0.00    -0.288 N 
ATOM     11  C   UNL     1       2.561   2.474   0.000  0.00  0.00    +0.124 C 
ATOM     12  C   UNL     1       2.561   3.298   0.000  0.00  0.00    +0.164 C 
ATOM     13  O   UNL     1       3.273   3.710   0.000  0.00  0.00    -0.350 OA
ATOM     14  C   UNL     1       3.990   3.298   0.000  0.00  0.00    +0.162 C 
ATOM     15  C   UNL     1       3.990   2.474   0.000  0.00  0.00    +0.106 C 
BRANCH  15  16
ATOM     16  C   UNL     1       4.702   2.061   0.000  0.00  0.00    +0.051 C 
ATOM     17  C   UNL     1       4.789   1.245   0.000  0.00  0.00    +0.004 C 
ATOM     18  C   UNL     1       5.597   1.070   0.000  0.00  0.00    +0.003 C 
ATOM     19  C   UNL     1       6.009   1.786   0.000  0.00  0.00    +0.033 C 
ATOM     20  C   UNL     1       5.455   2.399   0.000  0.00  0.00    +0.154 C 
ATOM     21  O   UNL     1       5.626   3.207   0.000  0.00  0.00    -0.223 OA
ENDBRANCH  15  16
ENDBRANCH   9  10
BRANCH   4  22
ATOM     22  C   UNL     1       1.520  -1.037   0.000  0.00  0.00    +0.142 C 
BRANCH  22  23
ATOM     23  C   UNL     1       2.074  -1.649   0.000  0.00  0.00    +0.177 C 
ATOM     24  C   UNL     1       2.486  -2.365   0.000  0.00  0.00    +0.174 C 
ATOM     25  O   UNL     1       3.294  -2.191   0.000  0.00  0.00    -0.351 OA
ATOM     26  C   UNL     1       3.377  -1.374   0.000  0.00  0.00    +0.145 C 
ATOM     27  O   UNL     1       1.407  -2.136   0.000  0.00  0.00    -0.221 OA
ATOM     28  C   UNL     1       2.623  -1.037   0.000  0.00  0.00    +0.067 C 
ENDBRANCH  22  23
ENDBRANCH   4  22
TORSDOF 4
