REMARK  Name = 
REMARK  4 active torsions:
REMARK  status: ('A' for Active; 'I' for Inactive)
REMARK    1  A    between atoms: C_2  and  C_5
REMARK    2  A    between atoms: C_10  and  N_11
REMARK    3  A    between atoms: C_12  and  C_14
REMARK    4  A    between atoms: C_14  and  N_15
REMARK                            x       y       z     vdW  Elec       q    Type
REMARK                         _______ _______ _______ _____ _____    ______ ____
ROOT
ATOM      1  C   UNL     1       0.715  -0.412   0.000  0.00  0.00    +0.115 C 
ATOM      2  C   UNL     1       1.429   0.000   0.000  0.00  0.00    +0.104 C 
ATOM      3  C   UNL     1       1.429   0.825   0.000  0.00  0.00    +0.022 C 
ATOM      4  C   UNL     1       0.715   1.238   0.000  0.00  0.00    +0.002 C 
ATOM      5  C   UNL     1       0.000   0.825   0.000  0.00  0.00    +0.000 C 
ATOM      6  C   UNL     1       0.000   0.000   0.000  0.00  0.00    +0.010 C 
ENDROOT
BRANCH   1   8
ATOM      7  F   UNL     1       0.715  -2.062   0.000  0.00  0.00    -0.170 F 
ATOM      8  C   UNL     1       0.715  -1.238   0.000  0.00  0.00    +0.399 C 
ATOM      9  F   UNL     1      -0.111  -1.238   0.000  0.00  0.00    -0.170 F 
ATOM     10  F   UNL     1       1.540  -1.238   0.000  0.00  0.00    -0.170 F 
ENDBRANCH   1   8
BRANCH   2  11
ATOM     11  N   UNL     1       2.143  -0.412   0.000  0.00  0.00    -0.205 NA
ATOM     12  C   UNL     1       2.858   0.000   0.000  0.00  0.00    +0.266 C 
ATOM     13  O   UNL     1       2.858   0.825   0.000  0.00  0.00    -0.271 OA
BRANCH  12  14
ATOM     14  C   UNL     1       3.572  -0.412   0.000  0.00  0.00    +0.215 C 
BRANCH  14  15
ATOM     15  N   UNL     1       3.572  -1.238   0.000  0.00  0.00    -0.221 N 
ATOM     16  N   UNL     1       2.905  -1.722   0.000  0.00  0.00    -0.145 NA
ATOM     17  C   UNL     1       3.160  -2.507   0.000  0.00  0.00    +0.221 A 
ATOM     18  N   UNL     1       3.985  -2.507   0.000  0.00  0.00    -0.201 NA
ATOM     19  C   UNL     1       4.240  -1.722   0.000  0.00  0.00    +0.198 A 
ENDBRANCH  14  15
ENDBRANCH  12  14
ENDBRANCH   2  11
TORSDOF 4
