REMARK  Name = 
REMARK  2 active torsions:
REMARK  status: ('A' for Active; 'I' for Inactive)
REMARK    1  A    between atoms: C_9  and  N_11
REMARK    2  A    between atoms: N_14  and  C_15
REMARK                            x       y       z     vdW  Elec       q    Type
REMARK                         _______ _______ _______ _____ _____    ______ ____
ROOT
ATOM      1  N   UNL     1       3.561  -0.030   0.000  0.00  0.00    -0.189 NA
ATOM      2  C   UNL     1       3.973   0.685   0.000  0.00  0.00    +0.343 C 
ATOM      3  N   UNL     1       3.561   1.399   0.000  0.00  0.00    -0.161 NA
ATOM      4  O   UNL     1       4.798   0.685   0.000  0.00  0.00    -0.249 OA
ENDROOT
BRANCH   1   9
ATOM      5  C   UNL     1       0.721  -0.515   0.000  0.00  0.00    +0.090 C 
ATOM      6  N   UNL     1       1.388  -0.030   0.000  0.00  0.00    -0.274 NA
ATOM      7  C   UNL     1       1.658  -1.108   0.000  0.00  0.00    +0.059 C 
ATOM      8  C   UNL     1       2.420  -0.792   0.000  0.00  0.00    +0.038 C 
ATOM      9  C   UNL     1       2.736  -0.030   0.000  0.00  0.00    +0.100 C 
ATOM     10  C   UNL     1       2.420   0.733   0.000  0.00  0.00    +0.038 C 
ATOM     11  C   UNL     1       0.895  -0.792   0.000  0.00  0.00    +0.016 C 
ATOM     12  C   UNL     1       0.580  -0.030   0.000  0.00  0.00    +0.003 C 
ATOM     13  C   UNL     1       0.895   0.733   0.000  0.00  0.00    +0.016 C 
ATOM     14  C   UNL     1       1.658   1.048   0.000  0.00  0.00    +0.059 C 
ENDBRANCH   1   9
BRANCH   3  15
ATOM     15  C   UNL     1       3.973   2.114   0.000  0.00  0.00    +0.078 A 
ATOM     16  C   UNL     1       4.798   2.114   0.000  0.00  0.00    +0.031 A 
ATOM     17  C   UNL     1       5.211   2.828   0.000  0.00  0.00    +0.061 A 
ATOM     18  C   UNL     1       6.036   2.828   0.000  0.00  0.00    +0.052 C 
ATOM     19  N   UNL     1       4.798   3.543   0.000  0.00  0.00    -0.248 NA
ATOM     20  C   UNL     1       3.973   3.543   0.000  0.00  0.00    +0.100 A 
ATOM     21  C   UNL     1       3.561   2.828   0.000  0.00  0.00    +0.037 A 
ENDBRANCH   3  15
TORSDOF 2
