REMARK  Name = 
REMARK  2 active torsions:
REMARK  status: ('A' for Active; 'I' for Inactive)
REMARK    1  A    between atoms: N_9  and  C_10
REMARK    2  A    between atoms: C_10  and  C_11
REMARK                            x       y       z     vdW  Elec       q    Type
REMARK                         _______ _______ _______ _____ _____    ______ ____
ROOT
ATOM      1  C   UNL     1      -2.143  -1.238   0.000  0.00  0.00    +0.033 C 
ATOM      2  C   UNL     1      -1.429  -1.650   0.000  0.00  0.00    -0.003 A 
ATOM      3  C   UNL     1      -1.429  -2.475   0.000  0.00  0.00    +0.096 A 
ATOM      4  N   UNL     1      -0.715  -2.888   0.000  0.00  0.00    -0.228 NA
ATOM      5  C   UNL     1       0.000  -2.475   0.000  0.00  0.00    +0.156 A 
ATOM      6  N   UNL     1       0.715  -2.888   0.000  0.00  0.00    -0.142 NA
ATOM      7  C   UNL     1       1.429  -2.475   0.000  0.00  0.00    +0.345 C 
ATOM      8  N   UNL     1       2.143  -2.888   0.000  0.00  0.00    -0.187 NA
ATOM      9  O   UNL     1       1.429  -1.650   0.000  0.00  0.00    -0.249 OA
ATOM     10  C   UNL     1       0.000  -1.650   0.000  0.00  0.00    +0.036 A 
ATOM     11  C   UNL     1      -0.715  -1.238   0.000  0.00  0.00    +0.000 A 
ENDROOT
BRANCH   8  12
ATOM     12  C   UNL     1       2.858  -2.475   0.000  0.00  0.00    +0.119 C 
BRANCH  12  13
ATOM     13  C   UNL     1       3.572  -2.888   0.000  0.00  0.00    +0.052 C 
ATOM     14  C   UNL     1       3.572  -3.712   0.000  0.00  0.00    +0.154 C 
ATOM     15  O   UNL     1       2.858  -4.125   0.000  0.00  0.00    -0.223 OA
ATOM     16  C   UNL     1       4.287  -4.125   0.000  0.00  0.00    +0.033 C 
ATOM     17  C   UNL     1       5.001  -3.712   0.000  0.00  0.00    +0.003 C 
ATOM     18  C   UNL     1       5.001  -2.888   0.000  0.00  0.00    +0.000 C 
ATOM     19  C   UNL     1       4.287  -2.475   0.000  0.00  0.00    +0.004 C 
ENDBRANCH  12  13
ENDBRANCH   8  12
TORSDOF 2
