REMARK  Name = 
REMARK  5 active torsions:
REMARK  status: ('A' for Active; 'I' for Inactive)
REMARK    1  A    between atoms: C_2  and  N_3
REMARK    2  A    between atoms: C_2  and  C_17
REMARK    3  A    between atoms: C_4  and  C_6
REMARK    4  A    between atoms: C_6  and  N_7
REMARK    5  A    between atoms: C_11  and  N_12
REMARK                            x       y       z     vdW  Elec       q    Type
REMARK                         _______ _______ _______ _____ _____    ______ ____
ROOT
ATOM      1  N   UNL     1      -1.429   0.000   0.000  0.00  0.00    -0.206 NA
ATOM      2  C   UNL     1      -0.715   0.412   0.000  0.00  0.00    +0.264 C 
ATOM      3  O   UNL     1      -0.715   1.238   0.000  0.00  0.00    -0.271 OA
ENDROOT
BRANCH   1   5
ATOM      4  C   UNL     1      -2.143   1.238   0.000  0.00  0.00    +0.023 C 
ATOM      5  C   UNL     1      -2.143   0.412   0.000  0.00  0.00    +0.095 C 
BRANCH   5   6
ATOM      6  C   UNL     1      -2.858   0.000   0.000  0.00  0.00    +0.020 C 
ATOM      7  C   UNL     1      -2.858  -0.825   0.000  0.00  0.00    +0.002 C 
ATOM      8  C   UNL     1      -3.469  -0.234   0.000  0.00  0.00    +0.000 C 
ATOM      9  C   UNL     1      -4.287   0.000   0.000  0.00  0.00    +0.000 C 
ATOM     10  C   UNL     1      -4.287  -0.825   0.000  0.00  0.00    +0.000 C 
ATOM     11  C   UNL     1      -3.572  -1.238   0.000  0.00  0.00    +0.000 C 
ATOM     12  C   UNL     1      -3.572   0.412   0.000  0.00  0.00    +0.002 C 
ENDBRANCH   5   6
ENDBRANCH   1   5
BRANCH   2  13
ATOM     13  C   UNL     1       0.000   0.000   0.000  0.00  0.00    +0.196 C 
BRANCH  13  14
ATOM     14  N   UNL     1       0.715   0.412   0.000  0.00  0.00    -0.280 N 
ATOM     15  C   UNL     1       1.429   0.000   0.000  0.00  0.00    +0.331 A 
ATOM     16  O   UNL     1       1.429  -0.825   0.000  0.00  0.00    -0.260 OA
ATOM     17  C   UNL     1       2.143   0.412   0.000  0.00  0.00    +0.345 A 
ATOM     18  C   UNL     1       2.143   1.238   0.000  0.00  0.00    +0.082 A 
ATOM     19  C   UNL     1       1.429   1.650   0.000  0.00  0.00    +0.025 A 
ATOM     20  C   UNL     1       0.715   1.238   0.000  0.00  0.00    +0.079 A 
BRANCH  17  21
ATOM     21  N   UNL     1       2.858   0.000   0.000  0.00  0.00    +0.086 N 
ATOM     22  O   UNL     1       2.858  -0.825   0.000  0.00  0.00    -0.576 OA
ATOM     23  O   UNL     1       3.572   0.412   0.000  0.00  0.00    +0.042 OA
ENDBRANCH  17  21
ENDBRANCH  13  14
ENDBRANCH   2  13
TORSDOF 5
