REMARK  Name = 
REMARK  1 active torsions:
REMARK  status: ('A' for Active; 'I' for Inactive)
REMARK    1  A    between atoms: C_7  and  C_9
REMARK                            x       y       z     vdW  Elec       q    Type
REMARK                         _______ _______ _______ _____ _____    ______ ____
ROOT
ATOM      1  O   UNL     1       1.429  -1.650   0.000  0.00  0.00    -0.264 OA
ATOM      2  C   UNL     1       1.429  -2.475   0.000  0.00  0.00    +0.297 A 
ATOM      3  N   UNL     1       0.715  -2.888   0.000  0.00  0.00    -0.104 NA
ATOM      4  N   UNL     1       0.715  -3.712   0.000  0.00  0.00    -0.128 NA
ATOM      5  C   UNL     1       1.429  -4.125   0.000  0.00  0.00    +0.176 A 
ATOM      6  N   UNL     1       1.429  -4.950   0.000  0.00  0.00    -0.156 NA
ATOM      7  C   UNL     1       2.143  -5.362   0.000  0.00  0.00    +0.277 C 
ATOM      8  O   UNL     1       2.858  -4.950   0.000  0.00  0.00    -0.270 OA
ATOM      9  C   UNL     1       2.143  -3.712   0.000  0.00  0.00    +0.043 A 
ATOM     10  C   UNL     1       2.143  -2.888   0.000  0.00  0.00    +0.067 A 
ENDROOT
BRANCH   7  11
ATOM     11  C   UNL     1       2.143  -6.188   0.000  0.00  0.00    +0.223 C 
ATOM     12  O   UNL     1       1.429  -6.600   0.000  0.00  0.00    -0.342 OA
ATOM     13  C   UNL     1       1.429  -7.425   0.000  0.00  0.00    +0.175 C 
ATOM     14  C   UNL     1       2.143  -7.838   0.000  0.00  0.00    +0.174 C 
ATOM     15  O   UNL     1       2.858  -7.425   0.000  0.00  0.00    -0.348 OA
ATOM     16  C   UNL     1       2.858  -6.600   0.000  0.00  0.00    +0.181 C 
ENDBRANCH   7  11
TORSDOF 1
