REMARK  Name = 
REMARK  5 active torsions:
REMARK  status: ('A' for Active; 'I' for Inactive)
REMARK    1  A    between atoms: N_4  and  C_5
REMARK    2  A    between atoms: C_5  and  O_6
REMARK    3  A    between atoms: O_6  and  C_7
REMARK    4  A    between atoms: C_7  and  C_8
REMARK    5  A    between atoms: C_9  and  C_10
REMARK                            x       y       z     vdW  Elec       q    Type
REMARK                         _______ _______ _______ _____ _____    ______ ____
ROOT
ATOM      1  C   UNL     1       5.001  -5.362   0.000  0.00  0.00    +0.260 C 
ENDROOT
BRANCH   1   9
ATOM      2  C   UNL     1       3.572  -2.888   0.000  0.00  0.00    +0.038 C 
ATOM      3  C   UNL     1       3.572  -3.712   0.000  0.00  0.00    +0.053 A 
ATOM      4  C   UNL     1       2.858  -4.125   0.000  0.00  0.00    +0.280 A 
ATOM      5  O   UNL     1       2.143  -3.712   0.000  0.00  0.00    -0.265 OA
ATOM      6  N   UNL     1       2.858  -4.950   0.000  0.00  0.00    -0.153 NA
ATOM      7  C   UNL     1       3.572  -5.362   0.000  0.00  0.00    +0.355 A 
ATOM      8  O   UNL     1       3.572  -6.188   0.000  0.00  0.00    -0.244 OA
ATOM      9  N   UNL     1       4.287  -4.950   0.000  0.00  0.00    -0.252 N 
ATOM     10  C   UNL     1       4.287  -4.125   0.000  0.00  0.00    +0.083 A 
ENDBRANCH   1   9
BRANCH   1  11
ATOM     11  O   UNL     1       5.001  -6.188   0.000  0.00  0.00    -0.327 OA
BRANCH  11  12
ATOM     12  C   UNL     1       5.716  -6.600   0.000  0.00  0.00    +0.171 C 
BRANCH  12  13
ATOM     13  C   UNL     1       5.716  -7.425   0.000  0.00  0.00    +0.006 C 
ATOM     14  C   UNL     1       6.430  -7.838   0.000  0.00  0.00    -0.002 C 
BRANCH  14  15
ATOM     15  C   UNL     1       6.430  -8.662   0.000  0.00  0.00    -0.000 A 
ATOM     16  C   UNL     1       5.716  -9.075   0.000  0.00  0.00    -0.000 A 
ATOM     17  C   UNL     1       5.716  -9.900   0.000  0.00  0.00    -0.000 A 
ATOM     18  C   UNL     1       6.430 -10.312   0.000  0.00  0.00    -0.000 A 
ATOM     19  C   UNL     1       7.145  -9.900   0.000  0.00  0.00    -0.000 A 
ATOM     20  C   UNL     1       7.145  -9.075   0.000  0.00  0.00    -0.000 A 
ENDBRANCH  14  15
ENDBRANCH  12  13
ENDBRANCH  11  12
ENDBRANCH   1  11
TORSDOF 5
