REMARK  Name = 
REMARK  6 active torsions:
REMARK  status: ('A' for Active; 'I' for Inactive)
REMARK    1  A    between atoms: O_2  and  C_3
REMARK    2  A    between atoms: C_3  and  C_4
REMARK    3  A    between atoms: C_4  and  N_6
REMARK    4  A    between atoms: C_10  and  C_13
REMARK    5  A    between atoms: N_15  and  C_16
REMARK    6  A    between atoms: C_16  and  C_17
REMARK                            x       y       z     vdW  Elec       q    Type
REMARK                         _______ _______ _______ _____ _____    ______ ____
ROOT
ATOM      1  N   UNL     1      -3.572   3.712   0.000  0.00  0.00    -0.220 NA
ATOM      2  C   UNL     1      -2.858   3.300   0.000  0.00  0.00    +0.148 A 
ATOM      3  N   UNL     1      -2.858   2.475   0.000  0.00  0.00    -0.228 NA
ATOM      4  C   UNL     1      -2.143   2.062   0.000  0.00  0.00    +0.105 A 
ATOM      5  C   UNL     1      -1.429   2.475   0.000  0.00  0.00    +0.074 A 
ATOM      6  C   UNL     1      -1.429   3.300   0.000  0.00  0.00    +0.009 A 
ATOM      7  C   UNL     1      -2.143   3.712   0.000  0.00  0.00    +0.036 A 
ENDROOT
BRANCH   5   8
ATOM      8  C   UNL     1      -0.715   2.062   0.000  0.00  0.00    +0.267 C 
ATOM      9  N   UNL     1       0.000   2.475   0.000  0.00  0.00    -0.187 NA
ATOM     10  O   UNL     1      -0.715   1.238   0.000  0.00  0.00    -0.268 OA
BRANCH   9  11
ATOM     11  C   UNL     1       0.715   2.062   0.000  0.00  0.00    +0.192 C 
BRANCH  11  12
ATOM     12  C   UNL     1       1.429   2.475   0.000  0.00  0.00    -0.054 C 
ATOM     13  C   UNL     1       2.143   2.888   0.000  0.00  0.00    -0.012 C 
ENDBRANCH  11  12
ENDBRANCH   9  11
ENDBRANCH   5   8
BRANCH   1  14
ATOM     14  C   UNL     1      -4.287   3.300   0.000  0.00  0.00    +0.124 C 
ATOM     15  C   UNL     1      -4.287   2.475   0.000  0.00  0.00    +0.026 C 
BRANCH  14  16
ATOM     16  C   UNL     1      -5.001   3.712   0.000  0.00  0.00    +0.164 C 
BRANCH  16  18
ATOM     17  C   UNL     1      -6.430   3.712   0.000  0.00  0.00    +0.174 C 
ATOM     18  O   UNL     1      -5.716   3.300   0.000  0.00  0.00    -0.349 OA
ENDBRANCH  16  18
ENDBRANCH  14  16
ENDBRANCH   1  14
TORSDOF 6
