REMARK  Name = 
REMARK  4 active torsions:
REMARK  status: ('A' for Active; 'I' for Inactive)
REMARK    1  A    between atoms: C_2  and  C_3
REMARK    2  A    between atoms: C_3  and  C_4
REMARK    3  A    between atoms: C_4  and  N_10
REMARK    4  A    between atoms: N_13  and  C_14
REMARK                            x       y       z     vdW  Elec       q    Type
REMARK                         _______ _______ _______ _____ _____    ______ ____
ROOT
ATOM      1  N   UNL     1       3.486  -1.287   0.000  0.00  0.00    -0.190 NA
ATOM      2  C   UNL     1       4.299  -1.431   0.000  0.00  0.00    +0.343 C 
ATOM      3  N   UNL     1       4.829  -0.798   0.000  0.00  0.00    -0.159 NA
ATOM      4  O   UNL     1       4.581  -2.206   0.000  0.00  0.00    -0.249 OA
ENDROOT
BRANCH   1   5
ATOM      5  C   UNL     1       2.956  -1.919   0.000  0.00  0.00    +0.083 C 
ATOM      6  C   UNL     1       2.241  -2.332   0.000  0.00  0.00    +0.020 C 
ATOM      7  C   UNL     1       2.241  -3.157   0.000  0.00  0.00    +0.002 C 
ATOM      8  C   UNL     1       2.956  -3.569   0.000  0.00  0.00    +0.000 C 
ATOM      9  C   UNL     1       3.670  -3.157   0.000  0.00  0.00    +0.002 C 
ATOM     10  C   UNL     1       3.670  -2.332   0.000  0.00  0.00    +0.020 C 
BRANCH   5  11
ATOM     11  C   UNL     1       2.426  -1.287   0.000  0.00  0.00    +0.056 C 
BRANCH  11  13
ATOM     12  O   UNL     1       1.331  -2.206   0.000  0.00  0.00    -0.220 OA
ATOM     13  C   UNL     1       1.613  -1.431   0.000  0.00  0.00    +0.184 C 
ENDBRANCH  11  13
ENDBRANCH   5  11
ENDBRANCH   1   5
BRANCH   3  14
ATOM     14  C   UNL     1       5.641  -0.942   0.000  0.00  0.00    +0.094 A 
ATOM     15  C   UNL     1       5.924  -1.717   0.000  0.00  0.00    +0.115 A 
ATOM     16  N   UNL     1       6.736  -1.860   0.000  0.00  0.00    -0.241 NA
ATOM     17  C   UNL     1       7.266  -1.228   0.000  0.00  0.00    +0.099 A 
ATOM     18  C   UNL     1       6.984  -0.453   0.000  0.00  0.00    +0.022 A 
ATOM     19  C   UNL     1       6.172  -0.310   0.000  0.00  0.00    +0.020 A 
ENDBRANCH   3  14
TORSDOF 4
