REMARK  Name = 
REMARK  7 active torsions:
REMARK  status: ('A' for Active; 'I' for Inactive)
REMARK    1  A    between atoms: C_2  and  C_3
REMARK    2  A    between atoms: C_5  and  C_6
REMARK    3  A    between atoms: C_6  and  C_7
REMARK    4  A    between atoms: N_9  and  CA_10
REMARK    5  A    between atoms: CA_10  and  CB_11
REMARK    6  A    between atoms: CA_10  and  C_15
REMARK    7  A    between atoms: CB_11  and  CG_12
REMARK                            x       y       z     vdW  Elec       q    Type
REMARK                         _______ _______ _______ _____ _____    ______ ____
ROOT
ATOM      1  C   UNK A   0      -0.581   2.130   0.000  0.00  0.00    +0.248 C 
ATOM      2  N   LEU A   1       0.133   2.543   0.000  0.00  0.00    -0.195 NA
ATOM      3  O   UNK A   0      -0.581   1.305   0.000  0.00  0.00    -0.273 OA
ENDROOT
BRANCH   1   4
ATOM      4  C   UNK A   0      -1.296   2.543   0.000  0.00  0.00    +0.133 C 
BRANCH   4   8
ATOM      5  C   UNK A   0      -3.316   1.853   0.000  0.00  0.00    +0.088 A 
ATOM      6  S   UNK A   0      -2.903   1.138   0.000  0.00  0.00    -0.071 S 
ATOM      7  C   UNK A   0      -2.096   1.310   0.000  0.00  0.00    +0.052 A 
ATOM      8  C   UNK A   0      -2.010   2.130   0.000  0.00  0.00    +0.075 A 
ATOM      9  N   UNK A   0      -2.764   2.466   0.000  0.00  0.00    -0.247 NA
BRANCH   5  11
ATOM     10  C   UNK A   0      -4.621   1.272   0.000  0.00  0.00    +0.007 C 
ATOM     11  C   UNK A   0      -4.136   1.939   0.000  0.00  0.00    +0.053 C 
ENDBRANCH   5  11
ENDBRANCH   4   8
ENDBRANCH   1   4
BRANCH   2  12
ATOM     12  CA  LEU A   1       0.848   2.130   0.000  0.00  0.00    +0.198 C 
BRANCH  12  13
ATOM     13  C   LEU A   1       0.848   1.305   0.000  0.00  0.00    +0.384 C 
ATOM     14  OXT LEU A   1       0.133   0.893   0.000  0.00  0.00    -0.244 OA
ATOM     15  O   LEU A   1       1.562   0.893   0.000  0.00  0.00    -0.244 OA
ENDBRANCH  12  13
BRANCH  12  16
ATOM     16  CB  LEU A   1       1.562   2.543   0.000  0.00  0.00    +0.033 C 
BRANCH  16  17
ATOM     17  CG  LEU A   1       2.277   2.130   0.000  0.00  0.00    +0.002 C 
ATOM     18  CD2 LEU A   1       2.277   1.305   0.000  0.00  0.00    +0.000 C 
ATOM     19  CD1 LEU A   1       2.991   2.543   0.000  0.00  0.00    +0.000 C 
ENDBRANCH  16  17
ENDBRANCH  12  16
ENDBRANCH   2  12
TORSDOF 7
