REMARK  Name = 
REMARK  6 active torsions:
REMARK  status: ('A' for Active; 'I' for Inactive)
REMARK    1  A    between atoms: N_2  and  C_12
REMARK    2  A    between atoms: C_5  and  N_6
REMARK    3  A    between atoms: N_8  and  C_16
REMARK    4  A    between atoms: C_11  and  C_12
REMARK    5  A    between atoms: C_11  and  C_23
REMARK    6  A    between atoms: C_16  and  C_20
REMARK                            x       y       z     vdW  Elec       q    Type
REMARK                         _______ _______ _______ _____ _____    ______ ____
ROOT
ATOM      1  C   UNL     1       2.562   0.825   0.000  0.00  0.00    +0.149 A 
ATOM      2  C   UNL     1       3.275   1.238   0.000  0.00  0.00    +0.154 A 
ATOM      3  N   UNL     1       3.992   0.825   0.000  0.00  0.00    -0.207 NA
ATOM      4  C   UNL     1       3.992   0.000   0.000  0.00  0.00    +0.201 A 
ATOM      5  N   UNL     1       3.275  -0.412   0.000  0.00  0.00    -0.205 NA
ATOM      6  N   UNL     1       1.779   1.083   0.000  0.00  0.00    -0.219 NA
ATOM      7  C   UNL     1       1.292   0.412   0.000  0.00  0.00    +0.180 A 
ATOM      8  N   UNL     1       1.779  -0.254   0.000  0.00  0.00    -0.294 N 
ATOM      9  C   UNL     1       2.562   0.000   0.000  0.00  0.00    +0.167 A 
ENDROOT
BRANCH   2  10
ATOM     10  N   UNL     1       3.275   2.062   0.000  0.00  0.00    -0.289 N 
ATOM     11  C   UNL     1       2.562   2.475   0.000  0.00  0.00    +0.110 C 
ATOM     12  C   UNL     1       2.562   3.300   0.000  0.00  0.00    +0.094 C 
ATOM     13  N   UNL     1       3.275   3.712   0.000  0.00  0.00    -0.269 NA
ATOM     14  C   UNL     1       3.992   3.300   0.000  0.00  0.00    +0.077 C 
ATOM     15  C   UNL     1       4.704   3.712   0.000  0.00  0.00    +0.019 C 
ATOM     16  C   UNL     1       3.992   2.475   0.000  0.00  0.00    +0.108 C 
BRANCH  13  17
ATOM     17  C   UNL     1       3.275   4.533   0.000  0.00  0.00    +0.103 C 
BRANCH  17  18
ATOM     18  C   UNL     1       3.992   4.950   0.000  0.00  0.00    +0.141 C 
ATOM     19  C   UNL     1       4.704   5.358   0.000  0.00  0.00    +0.034 C 
ATOM     20  C   UNL     1       3.579   5.662   0.000  0.00  0.00    +0.034 C 
ATOM     21  O   UNL     1       4.404   4.233   0.000  0.00  0.00    -0.224 OA
ENDBRANCH  17  18
ENDBRANCH  13  17
ENDBRANCH   2  10
BRANCH   8  22
ATOM     22  C   UNL     1       1.521  -1.038   0.000  0.00  0.00    +0.116 C 
BRANCH  22  23
ATOM     23  C   UNL     1       0.717  -1.208   0.000  0.00  0.00    +0.106 C 
ATOM     24  C   UNL     1       0.887  -2.017   0.000  0.00  0.00    +0.149 C 
ATOM     25  O   UNL     1       0.079  -2.188   0.000  0.00  0.00    -0.353 OA
ATOM     26  C   UNL     1      -0.092  -1.379   0.000  0.00  0.00    +0.149 C 
BRANCH  23  27
ATOM     27  C   UNL     1       0.546  -0.400   0.000  0.00  0.00    +0.189 C 
ATOM     28  O   UNL     1      -0.242  -0.146   0.000  0.00  0.00    -0.220 OA
ENDBRANCH  23  27
ENDBRANCH  22  23
ENDBRANCH   8  22
TORSDOF 6
