REMARK  Name = 
REMARK  2 active torsions:
REMARK  status: ('A' for Active; 'I' for Inactive)
REMARK    1  A    between atoms: C_4  and  N_5
REMARK    2  A    between atoms: N_8  and  C_9
REMARK                            x       y       z     vdW  Elec       q    Type
REMARK                         _______ _______ _______ _____ _____    ______ ____
ROOT
ATOM      1  N   UNL     1       2.899  -4.958   0.000  0.00  0.00    -0.142 NA
ATOM      2  C   UNL     1       2.564  -5.712   0.000  0.00  0.00    +0.345 C 
ATOM      3  N   UNL     1       3.049  -6.379   0.000  0.00  0.00    -0.179 NA
ATOM      4  O   UNL     1       1.743  -5.798   0.000  0.00  0.00    -0.249 OA
ENDROOT
BRANCH   3   5
ATOM      5  C   UNL     1       2.713  -7.133   0.000  0.00  0.00    +0.174 C 
ATOM      6  C   UNL     1       1.888  -7.157   0.000  0.00  0.00    +0.261 C 
ATOM      7  O   UNL     1       1.508  -6.425   0.000  0.00  0.00    -0.271 OA
ATOM      8  N   UNL     1       1.394  -7.817   0.000  0.00  0.00    -0.204 NA
ATOM      9  C   UNL     1       1.601  -8.616   0.000  0.00  0.00    +0.115 C 
ATOM     10  C   UNL     1       2.355  -8.951   0.000  0.00  0.00    +0.024 C 
ATOM     11  C   UNL     1       3.087  -8.571   0.000  0.00  0.00    +0.004 C 
ATOM     12  C   UNL     1       3.247  -7.762   0.000  0.00  0.00    +0.031 C 
ENDBRANCH   3   5
BRANCH   1  18
ATOM     13  C   UNL     1       2.002  -2.196   0.000  0.00  0.00    +0.054 C 
ATOM     14  C   UNL     1       2.002  -3.021   0.000  0.00  0.00    +0.082 A 
ATOM     15  N   UNL     1       1.334  -3.506   0.000  0.00  0.00    -0.172 NA
ATOM     16  N   UNL     1       1.589  -4.290   0.000  0.00  0.00    -0.234 N 
ATOM     17  C   UNL     1       1.104  -4.958   0.000  0.00  0.00    +0.155 C 
ATOM     18  C   UNL     1       2.414  -4.290   0.000  0.00  0.00    +0.154 A 
ATOM     19  C   UNL     1       2.669  -3.506   0.000  0.00  0.00    +0.052 A 
ENDBRANCH   1  18
TORSDOF 2
