REMARK  Name = 
REMARK  5 active torsions:
REMARK  status: ('A' for Active; 'I' for Inactive)
REMARK    1  A    between atoms: C_2  and  N_3
REMARK    2  A    between atoms: C_2  and  C_11
REMARK    3  A    between atoms: N_3  and  C_4
REMARK    4  A    between atoms: C_4  and  C_5
REMARK    5  A    between atoms: C_5  and  N_6
REMARK                            x       y       z     vdW  Elec       q    Type
REMARK                         _______ _______ _______ _____ _____    ______ ____
ROOT
ATOM      1  C   UNL     1       0.715  -2.888   0.000  0.00  0.00    +0.019 C 
ATOM      2  C   UNL     1       0.715  -2.062   0.000  0.00  0.00    +0.073 C 
ENDROOT
BRANCH   2   3
ATOM      3  C   UNL     1       0.000  -1.650   0.000  0.00  0.00    +0.021 C 
ATOM      4  C   UNL     1       0.000  -0.825   0.000  0.00  0.00    +0.034 C 
ATOM      5  C   UNL     1      -0.715  -0.412   0.000  0.00  0.00    +0.142 C 
ATOM      6  O   UNL     1      -1.429  -0.825   0.000  0.00  0.00    -0.354 OA
ATOM      7  C   UNL     1      -1.429  -1.650   0.000  0.00  0.00    +0.142 C 
ATOM      8  C   UNL     1      -0.715  -2.062   0.000  0.00  0.00    +0.034 C 
ENDBRANCH   2   3
BRANCH   2   9
ATOM      9  N   UNL     1       1.429  -1.650   0.000  0.00  0.00    -0.217 NA
BRANCH   9  10
ATOM     10  C   UNL     1       2.143  -2.062   0.000  0.00  0.00    +0.115 C 
BRANCH  10  11
ATOM     11  C   UNL     1       2.858  -1.650   0.000  0.00  0.00    +0.146 C 
BRANCH  11  12
ATOM     12  N   UNL     1       3.572  -2.062   0.000  0.00  0.00    -0.248 N 
ATOM     13  N   UNL     1       3.659  -2.883   0.000  0.00  0.00    -0.168 NA
ATOM     14  C   UNL     1       4.466  -3.054   0.000  0.00  0.00    +0.122 A 
ATOM     15  C   UNL     1       4.878  -2.340   0.000  0.00  0.00    +0.043 A 
ATOM     16  C   UNL     1       4.326  -1.727   0.000  0.00  0.00    +0.097 A 
ENDBRANCH  11  12
ENDBRANCH  10  11
ENDBRANCH   9  10
ENDBRANCH   2   9
TORSDOF 5
