REMARK  Name = 
REMARK  5 active torsions:
REMARK  status: ('A' for Active; 'I' for Inactive)
REMARK    1  A    between atoms: N_5  and  C_6
REMARK    2  A    between atoms: C_6  and  C_7
REMARK    3  A    between atoms: C_7  and  C_9
REMARK    4  A    between atoms: C_9  and  O_10
REMARK    5  A    between atoms: O_10  and  C_11
REMARK                            x       y       z     vdW  Elec       q    Type
REMARK                         _______ _______ _______ _____ _____    ______ ____
ROOT
ATOM      1  C   UNL     1       4.287   0.000   0.000  0.00  0.00    +0.204 C 
ATOM      2  O   UNL     1       4.287  -0.825   0.000  0.00  0.00    -0.218 OA
ENDROOT
BRANCH   1   3
ATOM      3  C   UNL     1       3.572   0.412   0.000  0.00  0.00    +0.146 C 
BRANCH   3  10
ATOM      4  C   UNL     1       0.715  -1.238   0.000  0.00  0.00    +0.052 C 
ATOM      5  C   UNL     1       1.429  -0.825   0.000  0.00  0.00    +0.062 A 
ATOM      6  C   UNL     1       2.143  -1.238   0.000  0.00  0.00    +0.048 A 
ATOM      7  C   UNL     1       2.143  -2.062   0.000  0.00  0.00    +0.037 C 
ATOM      8  C   UNL     1       2.858  -0.825   0.000  0.00  0.00    +0.259 A 
ATOM      9  O   UNL     1       3.572  -1.238   0.000  0.00  0.00    -0.267 OA
ATOM     10  N   UNL     1       2.858   0.000   0.000  0.00  0.00    -0.276 N 
ATOM     11  C   UNL     1       2.143   0.412   0.000  0.00  0.00    +0.181 A 
ATOM     12  N   UNL     1       1.429   0.000   0.000  0.00  0.00    -0.230 NA
ENDBRANCH   3  10
ENDBRANCH   1   3
BRANCH   1  13
ATOM     13  C   UNL     1       5.001   0.412   0.000  0.00  0.00    +0.177 C 
BRANCH  13  14
ATOM     14  O   UNL     1       5.716   0.000   0.000  0.00  0.00    -0.349 OA
BRANCH  14  15
ATOM     15  C   UNL     1       6.430   0.412   0.000  0.00  0.00    +0.137 C 
ATOM     16  C   UNL     1       7.145   0.000   0.000  0.00  0.00    +0.001 A 
ATOM     17  C   UNL     1       7.859   0.412   0.000  0.00  0.00    -0.024 A 
ATOM     18  C   UNL     1       8.574   0.000   0.000  0.00  0.00    -0.005 A 
ATOM     19  C   UNL     1       8.574  -0.825   0.000  0.00  0.00    -0.000 A 
ATOM     20  C   UNL     1       7.859  -1.238   0.000  0.00  0.00    -0.000 A 
ATOM     21  C   UNL     1       7.859   1.238   0.000  0.00  0.00    +0.026 C 
ATOM     22  C   UNL     1       7.145   1.650   0.000  0.00  0.00    +0.008 C 
ATOM     23  C   UNL     1       7.145  -0.825   0.000  0.00  0.00    -0.002 A 
ATOM     24  C   UNL     1       6.430   1.238   0.000  0.00  0.00    +0.034 C 
ENDBRANCH  14  15
ENDBRANCH  13  14
ENDBRANCH   1  13
TORSDOF 5
