REMARK  Name = 
REMARK  3 active torsions:
REMARK  status: ('A' for Active; 'I' for Inactive)
REMARK    1  A    between atoms: C_2  and  N_4
REMARK    2  A    between atoms: C_5  and  C_7
REMARK    3  A    between atoms: C_7  and  N_8
REMARK                            x       y       z     vdW  Elec       q    Type
REMARK                         _______ _______ _______ _____ _____    ______ ____
ROOT
ATOM      1  N   UNL     1       3.572  -2.888   0.000  0.00  0.00    -0.269 N 
ATOM      2  C   UNL     1       3.572  -3.712   0.000  0.00  0.00    +0.353 A 
ATOM      3  O   UNL     1       2.858  -4.125   0.000  0.00  0.00    -0.244 OA
ATOM      4  N   UNL     1       4.287  -4.125   0.000  0.00  0.00    -0.153 NA
ATOM      5  C   UNL     1       5.001  -3.712   0.000  0.00  0.00    +0.285 A 
ATOM      6  O   UNL     1       5.716  -4.125   0.000  0.00  0.00    -0.265 OA
ATOM      7  C   UNL     1       5.001  -2.888   0.000  0.00  0.00    +0.081 A 
ATOM      8  C   UNL     1       4.287  -2.475   0.000  0.00  0.00    +0.085 A 
ENDROOT
BRANCH   1   9
ATOM      9  C   UNL     1       2.858  -2.475   0.000  0.00  0.00    +0.197 C 
BRANCH   9  11
ATOM     10  N   UNL     1       1.429  -2.475   0.000  0.00  0.00    -0.206 NA
ATOM     11  C   UNL     1       2.143  -2.888   0.000  0.00  0.00    +0.265 C 
ATOM     12  O   UNL     1       2.143  -3.712   0.000  0.00  0.00    -0.271 OA
BRANCH  10  14
ATOM     13  C   UNL     1       0.000  -2.475   0.000  0.00  0.00    +0.023 C 
ATOM     14  C   UNL     1       0.715  -2.888   0.000  0.00  0.00    +0.095 C 
ATOM     15  C   UNL     1       0.715  -3.712   0.000  0.00  0.00    +0.023 C 
ENDBRANCH  10  14
ENDBRANCH   9  11
ENDBRANCH   1   9
TORSDOF 3
