REMARK  Name = 
REMARK  7 active torsions:
REMARK  status: ('A' for Active; 'I' for Inactive)
REMARK    1  A    between atoms: C_2  and  N_3
REMARK    2  A    between atoms: C_2  and  C_15
REMARK    3  A    between atoms: N_3  and  C_4
REMARK    4  A    between atoms: C_4  and  C_5
REMARK    5  A    between atoms: N_7  and  C_8
REMARK    6  A    between atoms: C_8  and  C_13
REMARK    7  A    between atoms: C_15  and  N_17
REMARK                            x       y       z     vdW  Elec       q    Type
REMARK                         _______ _______ _______ _____ _____    ______ ____
ROOT
ATOM      1  C   UNL     1       3.878  -3.364   0.000  0.00  0.00    +0.175 C 
ENDROOT
BRANCH   1   2
ATOM      2  C   UNL     1       3.163  -2.952   0.000  0.00  0.00    +0.260 C 
ATOM      3  N   UNL     1       2.449  -3.364   0.000  0.00  0.00    -0.193 NA
ATOM      4  O   UNL     1       3.163  -2.127   0.000  0.00  0.00    -0.272 OA
BRANCH   3   5
ATOM      5  C   UNL     1       1.734  -2.952   0.000  0.00  0.00    +0.157 C 
ATOM      6  C   UNL     1       2.219  -2.284   0.000  0.00  0.00    +0.034 C 
ATOM      7  C   UNL     1       1.734  -1.617   0.000  0.00  0.00    +0.003 C 
ATOM      8  C   UNL     1       0.950  -1.872   0.000  0.00  0.00    +0.003 C 
ATOM      9  C   UNL     1       0.950  -2.697   0.000  0.00  0.00    +0.034 C 
BRANCH   5  10
ATOM     10  C   UNL     1       1.399  -3.705   0.000  0.00  0.00    +0.091 C 
ATOM     11  N   UNL     1       1.063  -4.459   0.000  0.00  0.00    -0.194 NA
ENDBRANCH   5  10
ENDBRANCH   3   5
ENDBRANCH   1   2
BRANCH   1  12
ATOM     12  N   UNL     1       4.592  -2.952   0.000  0.00  0.00    -0.208 NA
BRANCH  12  14
ATOM     13  C   UNL     1       5.307  -4.189   0.000  0.00  0.00    +0.021 C 
ATOM     14  C   UNL     1       5.307  -3.364   0.000  0.00  0.00    +0.096 C 
BRANCH  14  15
ATOM     15  C   UNL     1       6.021  -2.952   0.000  0.00  0.00    +0.121 C 
ATOM     16  C   UNL     1       6.021  -2.127   0.000  0.00  0.00    +0.028 C 
BRANCH  15  17
ATOM     17  N   UNL     1       6.736  -3.364   0.000  0.00  0.00    -0.250 N 
ATOM     18  N   UNL     1       6.822  -4.185   0.000  0.00  0.00    -0.168 NA
ATOM     19  C   UNL     1       7.629  -4.356   0.000  0.00  0.00    +0.122 A 
ATOM     20  C   UNL     1       8.041  -3.642   0.000  0.00  0.00    +0.043 A 
ATOM     21  C   UNL     1       7.489  -3.029   0.000  0.00  0.00    +0.097 A 
ENDBRANCH  15  17
ENDBRANCH  14  15
ENDBRANCH  12  14
ENDBRANCH   1  12
TORSDOF 7
