REMARK  Name = 
REMARK  4 active torsions:
REMARK  status: ('A' for Active; 'I' for Inactive)
REMARK    1  A    between atoms: N_3  and  C_4
REMARK    2  A    between atoms: C_4  and  C_5
REMARK    3  A    between atoms: C_4  and  C_8
REMARK    4  A    between atoms: N_11  and  C_12
REMARK                            x       y       z     vdW  Elec       q    Type
REMARK                         _______ _______ _______ _____ _____    ______ ____
ROOT
ATOM      1  O   UNL     1       2.143  -3.712   0.000  0.00  0.00    -0.249 OA
ATOM      2  C   UNL     1       2.143  -2.888   0.000  0.00  0.00    +0.343 C 
ATOM      3  N   UNL     1       2.858  -2.475   0.000  0.00  0.00    -0.159 NA
ATOM      4  N   UNL     1       1.429  -2.475   0.000  0.00  0.00    -0.189 NA
ENDROOT
BRANCH   3   5
ATOM      5  C   UNL     1       3.572  -2.888   0.000  0.00  0.00    +0.094 A 
ATOM      6  C   UNL     1       3.572  -3.712   0.000  0.00  0.00    +0.115 A 
ATOM      7  N   UNL     1       4.287  -4.125   0.000  0.00  0.00    -0.241 NA
ATOM      8  C   UNL     1       5.001  -3.712   0.000  0.00  0.00    +0.099 A 
ATOM      9  C   UNL     1       5.001  -2.888   0.000  0.00  0.00    +0.022 A 
ATOM     10  C   UNL     1       4.287  -2.475   0.000  0.00  0.00    +0.020 A 
ENDBRANCH   3   5
BRANCH   4  11
ATOM     11  C   UNL     1       0.715  -2.888   0.000  0.00  0.00    +0.097 C 
BRANCH  11  12
ATOM     12  C   UNL     1       0.715  -3.712   0.000  0.00  0.00    +0.020 C 
ATOM     13  C   UNL     1       0.302  -4.427   0.000  0.00  0.00    +0.002 C 
ATOM     14  C   UNL     1       1.127  -4.427   0.000  0.00  0.00    +0.002 C 
ENDBRANCH  11  12
BRANCH  11  15
ATOM     15  C   UNL     1       0.000  -2.475   0.000  0.00  0.00    +0.020 C 
ATOM     16  C   UNL     1      -0.412  -1.760   0.000  0.00  0.00    +0.002 C 
ATOM     17  C   UNL     1      -0.825  -2.475   0.000  0.00  0.00    +0.002 C 
ENDBRANCH  11  15
ENDBRANCH   4  11
TORSDOF 4
