REMARK  Name = 
REMARK  4 active torsions:
REMARK  status: ('A' for Active; 'I' for Inactive)
REMARK    1  A    between atoms: C_8  and  C_10
REMARK    2  A    between atoms: N_12  and  C_13
REMARK    3  A    between atoms: N_16  and  C_17
REMARK    4  A    between atoms: C_17  and  C_18
REMARK                            x       y       z     vdW  Elec       q    Type
REMARK                         _______ _______ _______ _____ _____    ______ ____
ROOT
ATOM      1  C   UNL     1       4.895   3.528   0.000  0.00  0.00    +0.247 C 
ATOM      2  N   UNL     1       4.180   3.115   0.000  0.00  0.00    -0.176 NA
ATOM      3  O   UNL     1       5.609   3.115   0.000  0.00  0.00    -0.273 OA
ENDROOT
BRANCH   1   8
ATOM      4  C   UNL     1       3.466   6.828   0.000  0.00  0.00    +0.095 C 
ATOM      5  C   UNL     1       3.466   6.003   0.000  0.00  0.00    +0.226 C 
ATOM      6  N   UNL     1       4.180   5.590   0.000  0.00  0.00    -0.279 N 
ATOM      7  C   UNL     1       4.180   4.765   0.000  0.00  0.00    +0.102 C 
ATOM      8  C   UNL     1       4.895   4.353   0.000  0.00  0.00    +0.098 C 
ATOM      9  C   UNL     1       5.609   4.765   0.000  0.00  0.00    +0.013 C 
ATOM     10  C   UNL     1       5.609   5.590   0.000  0.00  0.00    +0.022 C 
ATOM     11  C   UNL     1       4.895   6.003   0.000  0.00  0.00    +0.093 C 
ATOM     12  O   UNL     1       2.751   5.590   0.000  0.00  0.00    -0.275 OA
ENDBRANCH   1   8
BRANCH   2  13
ATOM     13  C   UNL     1       4.180   2.290   0.000  0.00  0.00    +0.113 A 
ATOM     14  C   UNL     1       3.513   1.805   0.000  0.00  0.00    +0.114 A 
ATOM     15  N   UNL     1       3.768   1.021   0.000  0.00  0.00    -0.239 N 
ATOM     16  N   UNL     1       4.593   1.021   0.000  0.00  0.00    -0.166 NA
ATOM     17  C   UNL     1       4.848   1.805   0.000  0.00  0.00    +0.138 A 
BRANCH  15  18
ATOM     18  C   UNL     1       3.283   0.353   0.000  0.00  0.00    +0.215 C 
BRANCH  18  19
ATOM     19  C   UNL     1       2.462   0.439   0.000  0.00  0.00    +0.286 C 
ATOM     20  N   UNL     1       2.127   1.193   0.000  0.00  0.00    -0.086 NA
ATOM     21  O   UNL     1       1.977  -0.228   0.000  0.00  0.00    -0.269 OA
ENDBRANCH  18  19
ENDBRANCH  15  18
ENDBRANCH   2  13
TORSDOF 4
