REMARK  Name = 
REMARK  4 active torsions:
REMARK  status: ('A' for Active; 'I' for Inactive)
REMARK    1  A    between atoms: C_2  and  C_5
REMARK    2  A    between atoms: N_10  and  C_11
REMARK    3  A    between atoms: C_11  and  C_12
REMARK    4  A    between atoms: N_14  and  C_15
REMARK                            x       y       z     vdW  Elec       q    Type
REMARK                         _______ _______ _______ _____ _____    ______ ____
ROOT
ATOM      1  C   UNL     1      -0.178  -3.106   0.000  0.00  0.00    +0.196 C 
ENDROOT
BRANCH   1   4
ATOM      2  C   UNL     1      -2.047  -4.234   0.000  0.00  0.00    +0.089 A 
ATOM      3  C   UNL     1      -1.240  -4.062   0.000  0.00  0.00    +0.083 A 
ATOM      4  N   UNL     1      -0.985  -3.278   0.000  0.00  0.00    -0.285 N 
ATOM      5  C   UNL     1      -1.537  -2.665   0.000  0.00  0.00    +0.261 A 
ATOM      6  O   UNL     1      -1.282  -1.880   0.000  0.00  0.00    -0.267 OA
ATOM      7  C   UNL     1      -2.344  -2.836   0.000  0.00  0.00    +0.061 A 
ATOM      8  C   UNL     1      -2.599  -3.621   0.000  0.00  0.00    +0.010 A 
BRANCH   2  10
ATOM      9  F   UNL     1      -2.557  -5.803   0.000  0.00  0.00    -0.166 F 
ATOM     10  C   UNL     1      -2.302  -5.018   0.000  0.00  0.00    +0.420 C 
ATOM     11  F   UNL     1      -3.087  -4.763   0.000  0.00  0.00    -0.166 F 
ATOM     12  F   UNL     1      -1.517  -5.273   0.000  0.00  0.00    -0.166 F 
ENDBRANCH   2  10
ENDBRANCH   1   4
BRANCH   1  13
ATOM     13  C   UNL     1       0.077  -2.321   0.000  0.00  0.00    +0.265 C 
ATOM     14  N   UNL     1       0.884  -2.150   0.000  0.00  0.00    -0.204 NA
ATOM     15  O   UNL     1      -0.475  -1.708   0.000  0.00  0.00    -0.271 OA
BRANCH  14  16
ATOM     16  C   UNL     1       1.139  -1.365   0.000  0.00  0.00    +0.111 C 
ATOM     17  C   UNL     1       1.923  -1.110   0.000  0.00  0.00    +0.078 C 
ATOM     18  N   UNL     1       1.923  -0.285   0.000  0.00  0.00    -0.272 NA
ATOM     19  C   UNL     1       2.638   0.127   0.000  0.00  0.00    +0.072 C 
ATOM     20  C   UNL     1       3.352  -0.285   0.000  0.00  0.00    +0.017 C 
ATOM     21  C   UNL     1       3.352  -1.110   0.000  0.00  0.00    +0.003 C 
ATOM     22  C   UNL     1       1.139  -0.030   0.000  0.00  0.00    +0.074 C 
ATOM     23  C   UNL     1       2.638  -1.523   0.000  0.00  0.00    +0.018 C 
ATOM     24  C   UNL     1       0.654  -0.698   0.000  0.00  0.00    +0.040 C 
ENDBRANCH  14  16
ENDBRANCH   1  13
TORSDOF 4
