REMARK  Name = 
REMARK  2 active torsions:
REMARK  status: ('A' for Active; 'I' for Inactive)
REMARK    1  A    between atoms: C_5  and  N_7
REMARK    2  A    between atoms: N_10  and  C_11
REMARK                            x       y       z     vdW  Elec       q    Type
REMARK                         _______ _______ _______ _____ _____    ______ ____
ROOT
ATOM      1  C   UNL     1      -0.272  -7.444   0.000  0.00  0.00    +0.094 A 
ATOM      2  C   UNL     1      -0.608  -6.690   0.000  0.00  0.00    +0.117 A 
ATOM      3  N   UNL     1      -1.428  -6.604   0.000  0.00  0.00    -0.228 NA
ATOM      4  C   UNL     1      -1.913  -7.271   0.000  0.00  0.00    +0.132 A 
ATOM      5  N   UNL     1      -2.734  -7.185   0.000  0.00  0.00    -0.288 N 
ATOM      6  C   UNL     1      -3.069  -6.431   0.000  0.00  0.00    +0.124 C 
ATOM      7  C   UNL     1      -3.890  -6.345   0.000  0.00  0.00    +0.164 C 
ATOM      8  O   UNL     1      -4.375  -7.012   0.000  0.00  0.00    -0.350 OA
ATOM      9  C   UNL     1      -4.039  -7.766   0.000  0.00  0.00    +0.164 C 
ATOM     10  C   UNL     1      -3.219  -7.852   0.000  0.00  0.00    +0.124 C 
ATOM     11  C   UNL     1      -1.577  -8.025   0.000  0.00  0.00    +0.036 A 
ATOM     12  C   UNL     1      -0.757  -8.111   0.000  0.00  0.00    +0.021 A 
ENDROOT
BRANCH   1  15
ATOM     13  N   UNL     1       1.854  -6.949   0.000  0.00  0.00    -0.187 NA
ATOM     14  C   UNL     1       1.033  -6.862   0.000  0.00  0.00    +0.344 C 
ATOM     15  N   UNL     1       0.548  -7.530   0.000  0.00  0.00    -0.159 NA
ATOM     16  O   UNL     1       0.698  -6.109   0.000  0.00  0.00    -0.249 OA
BRANCH  13  20
ATOM     17  C   UNL     1       2.751  -4.187   0.000  0.00  0.00    +0.090 C 
ATOM     18  N   UNL     1       2.751  -5.012   0.000  0.00  0.00    -0.270 NA
ATOM     19  C   UNL     1       2.084  -5.497   0.000  0.00  0.00    +0.094 C 
ATOM     20  C   UNL     1       2.339  -6.281   0.000  0.00  0.00    +0.114 C 
ATOM     21  C   UNL     1       3.164  -6.281   0.000  0.00  0.00    +0.040 C 
ATOM     22  C   UNL     1       3.419  -5.497   0.000  0.00  0.00    +0.074 C 
ENDBRANCH  13  20
ENDBRANCH   1  15
TORSDOF 2
