REMARK  Name = 
REMARK  3 active torsions:
REMARK  status: ('A' for Active; 'I' for Inactive)
REMARK    1  A    between atoms: N_3  and  C_4
REMARK    2  A    between atoms: C_4  and  C_5
REMARK    3  A    between atoms: N_10  and  C_11
REMARK                            x       y       z     vdW  Elec       q    Type
REMARK                         _______ _______ _______ _____ _____    ______ ____
ROOT
ATOM      1  O   UNL     1       2.816  -3.233   0.000  0.00  0.00    -0.249 OA
ATOM      2  C   UNL     1       2.816  -2.408   0.000  0.00  0.00    +0.344 C 
ATOM      3  N   UNL     1       3.530  -1.996   0.000  0.00  0.00    -0.158 NA
ATOM      4  N   UNL     1       2.102  -1.996   0.000  0.00  0.00    -0.184 NA
ENDROOT
BRANCH   3   5
ATOM      5  C   UNL     1       4.245  -2.408   0.000  0.00  0.00    +0.117 A 
ATOM      6  C   UNL     1       4.331  -3.229   0.000  0.00  0.00    +0.140 A 
ATOM      7  N   UNL     1       5.138  -3.400   0.000  0.00  0.00    -0.145 NA
ATOM      8  N   UNL     1       5.551  -2.686   0.000  0.00  0.00    -0.145 NA
ATOM      9  C   UNL     1       4.999  -2.073   0.000  0.00  0.00    +0.140 A 
ENDBRANCH   3   5
BRANCH   4  10
ATOM     10  C   UNL     1       1.387  -2.408   0.000  0.00  0.00    +0.146 C 
BRANCH  10  11
ATOM     11  C   UNL     1       0.672  -1.996   0.000  0.00  0.00    +0.137 C 
ATOM     12  O   UNL     1       0.586  -1.175   0.000  0.00  0.00    -0.354 OA
ATOM     13  C   UNL     1      -0.221  -1.004   0.000  0.00  0.00    +0.142 C 
ATOM     14  C   UNL     1      -0.633  -1.718   0.000  0.00  0.00    +0.035 C 
ATOM     15  C   UNL     1      -0.081  -2.331   0.000  0.00  0.00    +0.034 C 
ENDBRANCH  10  11
ENDBRANCH   4  10
TORSDOF 3
