REMARK  Name = 
REMARK  4 active torsions:
REMARK  status: ('A' for Active; 'I' for Inactive)
REMARK    1  A    between atoms: C_2  and  S_3
REMARK    2  A    between atoms: S_3  and  C_4
REMARK    3  A    between atoms: C_7  and  N_8
REMARK    4  A    between atoms: C_9  and  C_11
REMARK                            x       y       z     vdW  Elec       q    Type
REMARK                         _______ _______ _______ _____ _____    ______ ____
ROOT
ATOM      1  C   UNL     1       1.429  -2.475   0.000  0.00  0.00    +0.107 A 
ATOM      2  N   UNL     1       0.715  -2.888   0.000  0.00  0.00    -0.236 NA
ATOM      3  C   UNL     1       0.715  -3.712   0.000  0.00  0.00    +0.116 A 
ATOM      4  C   UNL     1       1.429  -4.125   0.000  0.00  0.00    +0.093 A 
ATOM      5  C   UNL     1       2.143  -3.712   0.000  0.00  0.00    +0.020 A 
ATOM      6  C   UNL     1       2.143  -2.888   0.000  0.00  0.00    +0.027 A 
ENDROOT
BRANCH   4   7
ATOM      7  N   UNL     1       1.429  -4.950   0.000  0.00  0.00    -0.171 NA
ATOM      8  C   UNL     1       2.143  -5.362   0.000  0.00  0.00    +0.306 C 
ATOM      9  O   UNL     1       2.858  -4.950   0.000  0.00  0.00    -0.265 OA
BRANCH   8  10
ATOM     10  C   UNL     1       2.143  -6.188   0.000  0.00  0.00    +0.231 C 
ATOM     11  O   UNL     1       1.429  -6.600   0.000  0.00  0.00    -0.464 OA
ATOM     12  C   UNL     1       1.429  -7.425   0.000  0.00  0.00    +0.253 C 
ATOM     13  C   UNL     1       2.143  -7.838   0.000  0.00  0.00    +0.253 C 
ATOM     14  O   UNL     1       2.858  -7.425   0.000  0.00  0.00    -0.465 OA
ATOM     15  C   UNL     1       2.858  -6.600   0.000  0.00  0.00    +0.214 C 
ENDBRANCH   8  10
ENDBRANCH   4   7
BRANCH   1  16
ATOM     16  S   UNL     1       1.429  -1.650   0.000  0.00  0.00    -0.095 S 
BRANCH  16  18
ATOM     17  C   UNL     1       0.715  -0.412   0.000  0.00  0.00    +0.013 C 
ATOM     18  C   UNL     1       0.715  -1.238   0.000  0.00  0.00    +0.064 C 
ENDBRANCH  16  18
ENDBRANCH   1  16
TORSDOF 4
