REMARK  Name = 
REMARK  4 active torsions:
REMARK  status: ('A' for Active; 'I' for Inactive)
REMARK    1  A    between atoms: C_12  and  C_15
REMARK    2  A    between atoms: N_17  and  C_18
REMARK    3  A    between atoms: C_18  and  C_19
REMARK    4  A    between atoms: C_19  and  N_20
REMARK                            x       y       z     vdW  Elec       q    Type
REMARK                         _______ _______ _______ _____ _____    ______ ____
ROOT
ATOM      1  C   UNL     1      -4.287   1.650   0.000  0.00  0.00    +0.034 C 
ATOM      2  C   UNL     1      -3.572   1.238   0.000  0.00  0.00    +0.135 C 
ATOM      3  O   UNL     1      -3.572   0.412   0.000  0.00  0.00    -0.355 OA
ATOM      4  C   UNL     1      -2.858   0.000   0.000  0.00  0.00    +0.135 C 
ATOM      5  C   UNL     1      -2.858  -0.825   0.000  0.00  0.00    +0.034 C 
ATOM      6  C   UNL     1      -2.143   0.412   0.000  0.00  0.00    +0.122 C 
ATOM      7  N   UNL     1      -2.143   1.238   0.000  0.00  0.00    -0.288 N 
ATOM      8  C   UNL     1      -1.429   1.650   0.000  0.00  0.00    +0.132 A 
ATOM      9  N   UNL     1      -0.715   1.238   0.000  0.00  0.00    -0.229 NA
ATOM     10  C   UNL     1       0.000   1.650   0.000  0.00  0.00    +0.105 A 
ATOM     11  C   UNL     1       0.000   2.475   0.000  0.00  0.00    +0.074 A 
ATOM     12  C   UNL     1      -0.715   2.888   0.000  0.00  0.00    +0.009 A 
ATOM     13  C   UNL     1      -1.429   2.475   0.000  0.00  0.00    +0.034 A 
ATOM     14  C   UNL     1      -2.858   1.650   0.000  0.00  0.00    +0.122 C 
ENDROOT
BRANCH  11  15
ATOM     15  C   UNL     1       0.715   2.888   0.000  0.00  0.00    +0.266 C 
ATOM     16  N   UNL     1       1.429   2.475   0.000  0.00  0.00    -0.200 NA
ATOM     17  O   UNL     1       0.715   3.712   0.000  0.00  0.00    -0.268 OA
BRANCH  16  18
ATOM     18  C   UNL     1       2.143   2.888   0.000  0.00  0.00    +0.139 C 
BRANCH  18  19
ATOM     19  C   UNL     1       2.858   2.475   0.000  0.00  0.00    +0.139 C 
BRANCH  19  20
ATOM     20  N   UNL     1       3.572   2.888   0.000  0.00  0.00    -0.204 NA
ATOM     21  C   UNL     1       4.287   2.475   0.000  0.00  0.00    +0.242 C 
ATOM     22  C   UNL     1       4.287   1.650   0.000  0.00  0.00    +0.096 C 
ATOM     23  O   UNL     1       5.001   2.888   0.000  0.00  0.00    -0.273 OA
ENDBRANCH  19  20
ENDBRANCH  18  19
ENDBRANCH  16  18
ENDBRANCH  11  15
TORSDOF 4
