REMARK  Name = 
REMARK  5 active torsions:
REMARK  status: ('A' for Active; 'I' for Inactive)
REMARK    1  A    between atoms: N_5  and  C_6
REMARK    2  A    between atoms: C_6  and  C_7
REMARK    3  A    between atoms: C_7  and  C_9
REMARK    4  A    between atoms: C_9  and  N_10
REMARK    5  A    between atoms: C_16  and  C_17
REMARK                            x       y       z     vdW  Elec       q    Type
REMARK                         _______ _______ _______ _____ _____    ______ ____
ROOT
ATOM      1  C   UNL     1       2.143  -6.188   0.000  0.00  0.00    +0.165 C 
ENDROOT
BRANCH   1   2
ATOM      2  N   UNL     1       1.429  -6.600   0.000  0.00  0.00    -0.214 N 
ATOM      3  C   UNL     1       0.715  -6.188   0.000  0.00  0.00    +0.286 A 
ATOM      4  O   UNL     1       0.715  -5.362   0.000  0.00  0.00    -0.265 OA
ATOM      5  C   UNL     1       0.000  -6.600   0.000  0.00  0.00    +0.123 A 
ATOM      6  C   UNL     1       0.000  -7.425   0.000  0.00  0.00    +0.008 A 
ATOM      7  C   UNL     1      -0.715  -7.838   0.000  0.00  0.00    +0.033 C 
ATOM      8  C   UNL     1       0.715  -7.838   0.000  0.00  0.00    +0.076 A 
ATOM      9  C   UNL     1       0.715  -8.662   0.000  0.00  0.00    +0.054 C 
ATOM     10  N   UNL     1       1.429  -7.425   0.000  0.00  0.00    -0.171 NA
BRANCH   5  11
ATOM     11  C   UNL     1      -0.715  -6.188   0.000  0.00  0.00    +0.105 C 
ATOM     12  N   UNL     1      -1.429  -5.775   0.000  0.00  0.00    -0.191 NA
ENDBRANCH   5  11
ENDBRANCH   1   2
BRANCH   1  13
ATOM     13  C   UNL     1       2.143  -5.362   0.000  0.00  0.00    +0.192 C 
ATOM     14  O   UNL     1       1.429  -4.950   0.000  0.00  0.00    -0.219 OA
BRANCH  13  15
ATOM     15  C   UNL     1       2.858  -4.950   0.000  0.00  0.00    +0.107 C 
BRANCH  15  20
ATOM     16  C   UNL     1       2.858  -1.650   0.000  0.00  0.00    +0.000 C 
ATOM     17  C   UNL     1       2.858  -2.475   0.000  0.00  0.00    +0.003 C 
ATOM     18  C   UNL     1       2.143  -2.888   0.000  0.00  0.00    +0.017 C 
ATOM     19  C   UNL     1       2.143  -3.712   0.000  0.00  0.00    +0.072 C 
ATOM     20  N   UNL     1       2.858  -4.125   0.000  0.00  0.00    -0.271 NA
ATOM     21  C   UNL     1       3.572  -3.712   0.000  0.00  0.00    +0.072 C 
ATOM     22  C   UNL     1       3.572  -2.888   0.000  0.00  0.00    +0.017 C 
ENDBRANCH  15  20
ENDBRANCH  13  15
ENDBRANCH   1  13
TORSDOF 5
