REMARK  Name = 
REMARK  6 active torsions:
REMARK  status: ('A' for Active; 'I' for Inactive)
REMARK    1  A    between atoms: C_4  and  S_5
REMARK    2  A    between atoms: S_5  and  C_6
REMARK    3  A    between atoms: C_6  and  C_7
REMARK    4  A    between atoms: C_7  and  O_8
REMARK    5  A    between atoms: O_8  and  C_9
REMARK    6  A    between atoms: C_18  and  C_19
REMARK                            x       y       z     vdW  Elec       q    Type
REMARK                         _______ _______ _______ _____ _____    ______ ____
ROOT
ATOM      1  S   UNL     1      -1.225  -1.954   0.000  0.00  0.00    -0.073 S 
ENDROOT
BRANCH   1   7
ATOM      2  N   UNL     1      -4.083  -1.954   0.000  0.00  0.00    -0.106 NA
ATOM      3  C   UNL     1      -3.368  -2.366   0.000  0.00  0.00    +0.183 A 
ATOM      4  C   UNL     1      -3.368  -3.191   0.000  0.00  0.00    +0.122 A 
ATOM      5  C   UNL     1      -2.654  -3.604   0.000  0.00  0.00    +0.114 A 
ATOM      6  N   UNL     1      -1.939  -3.191   0.000  0.00  0.00    -0.219 NA
ATOM      7  C   UNL     1      -1.939  -2.366   0.000  0.00  0.00    +0.191 A 
ATOM      8  N   UNL     1      -2.654  -1.954   0.000  0.00  0.00    -0.202 NA
BRANCH   4   9
ATOM      9  C   UNL     1      -4.083  -3.604   0.000  0.00  0.00    +0.105 C 
ATOM     10  N   UNL     1      -4.797  -4.016   0.000  0.00  0.00    -0.191 NA
ENDBRANCH   4   9
ENDBRANCH   1   7
BRANCH   1  11
ATOM     11  C   UNL     1      -0.510  -2.366   0.000  0.00  0.00    +0.097 C 
BRANCH  11  12
ATOM     12  C   UNL     1       0.204  -1.954   0.000  0.00  0.00    +0.154 C 
BRANCH  12  13
ATOM     13  O   UNL     1       0.918  -2.366   0.000  0.00  0.00    -0.355 OA
BRANCH  13  14
ATOM     14  C   UNL     1       1.633  -1.954   0.000  0.00  0.00    +0.115 C 
ATOM     15  C   UNL     1       2.315  -2.418   0.000  0.00  0.00    +0.030 C 
ATOM     16  C   UNL     1       3.103  -2.175   0.000  0.00  0.00    +0.002 C 
ATOM     17  C   UNL     1       3.404  -1.407   0.000  0.00  0.00    +0.000 C 
ATOM     18  C   UNL     1       2.992  -0.693   0.000  0.00  0.00    +0.000 C 
ATOM     19  C   UNL     1       2.176  -0.570   0.000  0.00  0.00    +0.002 C 
ATOM     20  C   UNL     1       1.571  -1.131   0.000  0.00  0.00    +0.030 C 
ENDBRANCH  13  14
ENDBRANCH  12  13
ENDBRANCH  11  12
ENDBRANCH   1  11
TORSDOF 6
