REMARK  Name = 
REMARK  1 active torsions:
REMARK  status: ('A' for Active; 'I' for Inactive)
REMARK    1  A    between atoms: C_6  and  C_7
REMARK                            x       y       z     vdW  Elec       q    Type
REMARK                         _______ _______ _______ _____ _____    ______ ____
ROOT
ATOM      1  C   UNL     1       1.256  -0.180   0.000  0.00  0.00    +0.132 C 
ATOM      2  N   UNL     1       1.256  -1.005   0.000  0.00  0.00    -0.312 N 
ATOM      3  C   UNL     1       0.589  -1.490   0.000  0.00  0.00    +0.121 A 
ATOM      4  N   UNL     1       0.844  -2.275   0.000  0.00  0.00    -0.229 NA
ATOM      5  C   UNL     1       1.669  -2.275   0.000  0.00  0.00    +0.119 A 
ATOM      6  C   UNL     1       1.924  -1.490   0.000  0.00  0.00    +0.098 A 
ENDROOT
BRANCH   3   7
ATOM      7  C   UNL     1      -0.196  -1.235   0.000  0.00  0.00    +0.076 C 
ATOM      8  C   UNL     1      -0.451  -0.451   0.000  0.00  0.00    +0.096 C 
ATOM      9  N   UNL     1      -1.276  -0.451   0.000  0.00  0.00    -0.218 NA
ATOM     10  C   UNL     1      -1.530  -1.235   0.000  0.00  0.00    +0.089 C 
ATOM     11  C   UNL     1      -0.863  -1.720   0.000  0.00  0.00    +0.028 C 
ENDBRANCH   3   7
TORSDOF 1
