REMARK  Name = 
REMARK  1 active torsions:
REMARK  status: ('A' for Active; 'I' for Inactive)
REMARK    1  A    between atoms: N_3  and  C_4
REMARK                            x       y       z     vdW  Elec       q    Type
REMARK                         _______ _______ _______ _____ _____    ______ ____
ROOT
ATOM      1  O   UNL     1       5.024  -0.786   0.000  0.00  0.00    -0.249 OA
ATOM      2  C   UNL     1       4.309  -0.374   0.000  0.00  0.00    +0.345 C 
ATOM      3  N   UNL     1       4.309   0.451   0.000  0.00  0.00    -0.134 NA
ATOM      4  C   UNL     1       5.024   0.864   0.000  0.00  0.00    +0.209 A 
ATOM      5  S   UNL     1       5.777   0.528   0.000  0.00  0.00    -0.027 S 
ATOM      6  C   UNL     1       6.330   1.141   0.000  0.00  0.00    +0.161 A 
ATOM      7  N   UNL     1       5.917   1.856   0.000  0.00  0.00    -0.137 NA
ATOM      8  N   UNL     1       5.110   1.684   0.000  0.00  0.00    -0.123 NA
ATOM      9  N   UNL     1       3.595  -0.786   0.000  0.00  0.00    -0.189 NA
ENDROOT
BRANCH   9  10
ATOM     10  C   UNL     1       3.595  -1.611   0.000  0.00  0.00    +0.097 C 
ATOM     11  C   UNL     1       2.928  -2.096   0.000  0.00  0.00    +0.022 C 
ATOM     12  C   UNL     1       3.182  -2.881   0.000  0.00  0.00    +0.002 C 
ATOM     13  C   UNL     1       4.007  -2.881   0.000  0.00  0.00    +0.002 C 
ATOM     14  C   UNL     1       4.262  -2.096   0.000  0.00  0.00    +0.022 C 
ENDBRANCH   9  10
TORSDOF 1
