REMARK  Name = 
REMARK  5 active torsions:
REMARK  status: ('A' for Active; 'I' for Inactive)
REMARK    1  A    between atoms: N_5  and  C_6
REMARK    2  A    between atoms: C_6  and  C_7
REMARK    3  A    between atoms: C_7  and  N_8
REMARK    4  A    between atoms: N_8  and  C_9
REMARK    5  A    between atoms: C_9  and  C_10
REMARK                            x       y       z     vdW  Elec       q    Type
REMARK                         _______ _______ _______ _____ _____    ______ ____
ROOT
ATOM      1  C   UNL     1       1.429  -2.475   0.000  0.00  0.00    +0.115 C 
ENDROOT
BRANCH   1   2
ATOM      2  C   UNL     1       0.715  -2.888   0.000  0.00  0.00    +0.146 C 
BRANCH   2   6
ATOM      3  C   UNL     1      -2.126  -2.284   0.000  0.00  0.00    +0.034 C 
ATOM      4  C   UNL     1      -1.306  -2.197   0.000  0.00  0.00    +0.018 A 
ATOM      5  C   UNL     1      -0.754  -2.811   0.000  0.00  0.00    +0.092 A 
ATOM      6  N   UNL     1       0.000  -2.475   0.000  0.00  0.00    -0.248 N 
ATOM      7  N   UNL     1      -0.086  -1.655   0.000  0.00  0.00    -0.168 NA
ATOM      8  C   UNL     1      -0.893  -1.483   0.000  0.00  0.00    +0.117 A 
ENDBRANCH   2   6
ENDBRANCH   1   2
BRANCH   1   9
ATOM      9  N   UNL     1       2.143  -2.888   0.000  0.00  0.00    -0.216 NA
BRANCH   9  10
ATOM     10  C   UNL     1       2.858  -2.475   0.000  0.00  0.00    +0.089 C 
BRANCH  10  11
ATOM     11  C   UNL     1       3.572  -2.888   0.000  0.00  0.00    +0.017 C 
ATOM     12  C   UNL     1       3.572  -3.712   0.000  0.00  0.00    +0.001 C 
ATOM     13  C   UNL     1       4.287  -4.125   0.000  0.00  0.00    +0.000 C 
ATOM     14  C   UNL     1       5.001  -3.712   0.000  0.00  0.00    +0.000 C 
ATOM     15  C   UNL     1       5.001  -2.888   0.000  0.00  0.00    +0.000 C 
ATOM     16  C   UNL     1       4.287  -2.475   0.000  0.00  0.00    +0.001 C 
ENDBRANCH  10  11
ENDBRANCH   9  10
ENDBRANCH   1   9
TORSDOF 5
