REMARK  Name = 
REMARK  2 active torsions:
REMARK  status: ('A' for Active; 'I' for Inactive)
REMARK    1  A    between atoms: C_6  and  C_18
REMARK    2  A    between atoms: N_9  and  C_10
REMARK                            x       y       z     vdW  Elec       q    Type
REMARK                         _______ _______ _______ _____ _____    ______ ____
ROOT
ATOM      1  C   UNL     1      -1.980   4.254   0.000  0.00  0.00    +0.114 C 
ATOM      2  N   UNL     1      -1.980   3.429   0.000  0.00  0.00    -0.290 N 
ATOM      3  C   UNL     1      -1.265   3.017   0.000  0.00  0.00    +0.136 A 
ATOM      4  N   UNL     1      -1.265   2.192   0.000  0.00  0.00    -0.197 NA
ATOM      5  C   UNL     1      -0.551   1.779   0.000  0.00  0.00    +0.238 A 
ATOM      6  N   UNL     1      -0.551   0.954   0.000  0.00  0.00    -0.203 NA
ATOM      7  N   UNL     1       0.164   2.192   0.000  0.00  0.00    -0.208 NA
ATOM      8  C   UNL     1       0.164   3.017   0.000  0.00  0.00    +0.158 A 
ATOM      9  C   UNL     1      -0.551   3.429   0.000  0.00  0.00    +0.058 A 
ATOM     10  C   UNL     1      -2.694   3.017   0.000  0.00  0.00    +0.114 C 
ENDROOT
BRANCH   6  11
ATOM     11  C   UNL     1       0.164   0.542   0.000  0.00  0.00    +0.125 C 
ATOM     12  C   UNL     1       0.878   0.954   0.000  0.00  0.00    +0.135 C 
ATOM     13  O   UNL     1       0.672   0.129   0.000  0.00  0.00    -0.357 OA
ATOM     14  C   UNL     1       0.878  -0.696   0.000  0.00  0.00    +0.117 C 
ATOM     15  C   UNL     1       1.593  -0.283   0.000  0.00  0.00    +0.032 C 
ATOM     16  C   UNL     1       1.593   0.542   0.000  0.00  0.00    +0.034 C 
ATOM     17  C   UNL     1       0.164  -0.283   0.000  0.00  0.00    +0.054 C 
ENDBRANCH   6  11
BRANCH   8  18
ATOM     18  C   UNL     1       0.878   3.429   0.000  0.00  0.00    +0.435 C 
ATOM     19  F   UNL     1       0.466   4.144   0.000  0.00  0.00    -0.164 F 
ATOM     20  F   UNL     1       1.290   2.715   0.000  0.00  0.00    -0.164 F 
ATOM     21  F   UNL     1       1.593   3.842   0.000  0.00  0.00    -0.164 F 
ENDBRANCH   8  18
TORSDOF 2
