REMARK  Name = 
REMARK  7 active torsions:
REMARK  status: ('A' for Active; 'I' for Inactive)
REMARK    1  A    between atoms: C_2  and  C_4
REMARK    2  A    between atoms: N_9  and  C_10
REMARK    3  A    between atoms: C_10  and  C_11
REMARK    4  A    between atoms: N_13  and  C_14
REMARK    5  A    between atoms: C_14  and  C_15
REMARK    6  A    between atoms: C_15  and  C_16
REMARK    7  A    between atoms: C_16  and  C_17
REMARK                            x       y       z     vdW  Elec       q    Type
REMARK                         _______ _______ _______ _____ _____    ______ ____
ROOT
ATOM      1  C   UNL     1       2.143  -3.712   0.000  0.00  0.00    +0.266 C 
ATOM      2  N   UNL     1       2.858  -4.125   0.000  0.00  0.00    -0.204 NA
ATOM      3  O   UNL     1       2.143  -2.888   0.000  0.00  0.00    -0.271 OA
ENDROOT
BRANCH   1   4
ATOM      4  C   UNL     1       1.429  -4.125   0.000  0.00  0.00    +0.217 C 
BRANCH   4   7
ATOM      5  C   UNL     1      -0.715  -3.712   0.000  0.00  0.00    +0.158 A 
ATOM      6  N   UNL     1       0.000  -4.125   0.000  0.00  0.00    -0.162 NA
ATOM      7  N   UNL     1       0.715  -3.712   0.000  0.00  0.00    -0.207 N 
ATOM      8  C   UNL     1       0.715  -2.888   0.000  0.00  0.00    +0.277 A 
ATOM      9  O   UNL     1       1.429  -2.475   0.000  0.00  0.00    -0.265 OA
ATOM     10  C   UNL     1       0.000  -2.475   0.000  0.00  0.00    +0.064 A 
ATOM     11  C   UNL     1      -0.715  -2.888   0.000  0.00  0.00    +0.031 A 
BRANCH   5  13
ATOM     12  N   UNL     1      -2.143  -3.712   0.000  0.00  0.00    -0.082 NA
ATOM     13  C   UNL     1      -1.429  -4.125   0.000  0.00  0.00    +0.304 C 
ATOM     14  O   UNL     1      -1.429  -4.950   0.000  0.00  0.00    -0.265 OA
ENDBRANCH   5  13
ENDBRANCH   4   7
ENDBRANCH   1   4
BRANCH   2  15
ATOM     15  C   UNL     1       3.572  -3.712   0.000  0.00  0.00    +0.115 C 
BRANCH  15  16
ATOM     16  C   UNL     1       4.287  -4.125   0.000  0.00  0.00    +0.023 C 
BRANCH  16  17
ATOM     17  C   UNL     1       5.001  -3.712   0.000  0.00  0.00    +0.002 C 
BRANCH  17  18
ATOM     18  C   UNL     1       5.716  -4.125   0.000  0.00  0.00    +0.000 C 
ATOM     19  C   UNL     1       5.716  -4.950   0.000  0.00  0.00    +0.000 C 
ATOM     20  C   UNL     1       6.430  -5.362   0.000  0.00  0.00    +0.000 C 
ATOM     21  C   UNL     1       7.145  -4.950   0.000  0.00  0.00    +0.000 C 
ATOM     22  C   UNL     1       7.145  -4.125   0.000  0.00  0.00    +0.000 C 
ATOM     23  C   UNL     1       6.430  -3.712   0.000  0.00  0.00    +0.000 C 
ENDBRANCH  17  18
ENDBRANCH  16  17
ENDBRANCH  15  16
ENDBRANCH   2  15
TORSDOF 7
