REMARK  Name = 
REMARK  4 active torsions:
REMARK  status: ('A' for Active; 'I' for Inactive)
REMARK    1  A    between atoms: C_7  and  O_8
REMARK    2  A    between atoms: O_8  and  C_9
REMARK    3  A    between atoms: C_9  and  C_10
REMARK    4  A    between atoms: C_10  and  N_11
REMARK                            x       y       z     vdW  Elec       q    Type
REMARK                         _______ _______ _______ _____ _____    ______ ____
ROOT
ATOM      1  C   UNL     1       3.572  -0.412   0.000  0.00  0.00    +0.149 C 
ENDROOT
BRANCH   1   2
ATOM      2  N   UNL     1       4.287   0.000   0.000  0.00  0.00    -0.184 NA
ATOM      3  C   UNL     1       5.001  -0.412   0.000  0.00  0.00    +0.345 C 
ATOM      4  N   UNL     1       5.716   0.000   0.000  0.00  0.00    -0.139 NA
ATOM      5  C   UNL     1       6.430  -0.412   0.000  0.00  0.00    +0.197 A 
ATOM      6  N   UNL     1       6.516  -1.233   0.000  0.00  0.00    -0.060 NA
ATOM      7  O   UNL     1       7.323  -1.405   0.000  0.00  0.00    -0.356 OA
ATOM      8  C   UNL     1       7.736  -0.690   0.000  0.00  0.00    +0.156 A 
ATOM      9  C   UNL     1       8.556  -0.604   0.000  0.00  0.00    +0.075 C 
ATOM     10  C   UNL     1       7.184  -0.077   0.000  0.00  0.00    +0.075 A 
ATOM     11  O   UNL     1       5.001  -1.238   0.000  0.00  0.00    -0.249 OA
ENDBRANCH   1   2
BRANCH   1  12
ATOM     12  C   UNL     1       2.858   0.000   0.000  0.00  0.00    +0.165 C 
BRANCH  12  13
ATOM     13  O   UNL     1       2.143  -0.412   0.000  0.00  0.00    -0.354 OA
BRANCH  13  16
ATOM     14  C   UNL     1       0.715  -1.238   0.000  0.00  0.00    +0.002 C 
ATOM     15  C   UNL     1       0.715  -0.412   0.000  0.00  0.00    +0.027 C 
ATOM     16  C   UNL     1       1.429   0.000   0.000  0.00  0.00    +0.115 C 
ATOM     17  C   UNL     1       1.429   0.825   0.000  0.00  0.00    +0.030 C 
ATOM     18  C   UNL     1       0.715   1.238   0.000  0.00  0.00    +0.002 C 
ATOM     19  C   UNL     1       0.000   0.825   0.000  0.00  0.00    +0.000 C 
ATOM     20  C   UNL     1       0.000   0.000   0.000  0.00  0.00    +0.002 C 
ENDBRANCH  13  16
ENDBRANCH  12  13
ENDBRANCH   1  12
TORSDOF 4
