REMARK  Name = 
REMARK  7 active torsions:
REMARK  status: ('A' for Active; 'I' for Inactive)
REMARK    1  A    between atoms: C_2  and  N_3
REMARK    2  A    between atoms: N_3  and  C_4
REMARK    3  A    between atoms: C_7  and  C_9
REMARK    4  A    between atoms: C_9  and  N_10
REMARK    5  A    between atoms: N_10  and  C_11
REMARK    6  A    between atoms: C_11  and  C_13
REMARK    7  A    between atoms: C_13  and  N_15
REMARK                            x       y       z     vdW  Elec       q    Type
REMARK                         _______ _______ _______ _____ _____    ______ ____
ROOT
ATOM      1  N   UNL     1       7.083  -3.908   0.000  0.00  0.00    -0.208 NA
ENDROOT
BRANCH   1   2
ATOM      2  C   UNL     1       7.798  -4.321   0.000  0.00  0.00    +0.096 C 
ATOM      3  C   UNL     1       7.798  -5.146   0.000  0.00  0.00    +0.021 C 
BRANCH   2   4
ATOM      4  C   UNL     1       8.512  -3.908   0.000  0.00  0.00    +0.121 C 
ATOM      5  C   UNL     1       8.512  -3.083   0.000  0.00  0.00    +0.028 C 
BRANCH   4   6
ATOM      6  N   UNL     1       9.227  -4.321   0.000  0.00  0.00    -0.250 N 
ATOM      7  N   UNL     1       9.313  -5.141   0.000  0.00  0.00    -0.168 NA
ATOM      8  C   UNL     1      10.120  -5.312   0.000  0.00  0.00    +0.122 A 
ATOM      9  C   UNL     1      10.532  -4.598   0.000  0.00  0.00    +0.043 A 
ATOM     10  C   UNL     1       9.980  -3.985   0.000  0.00  0.00    +0.097 A 
ENDBRANCH   4   6
ENDBRANCH   2   4
ENDBRANCH   1   2
BRANCH   1  11
ATOM     11  C   UNL     1       6.369  -4.321   0.000  0.00  0.00    +0.174 C 
BRANCH  11  13
ATOM     12  N   UNL     1       4.940  -4.321   0.000  0.00  0.00    -0.280 N 
ATOM     13  C   UNL     1       5.654  -3.908   0.000  0.00  0.00    +0.243 C 
ATOM     14  O   UNL     1       5.654  -3.083   0.000  0.00  0.00    -0.273 OA
BRANCH  12  15
ATOM     15  C   UNL     1       4.940  -5.146   0.000  0.00  0.00    +0.075 C 
ATOM     16  C   UNL     1       4.527  -5.860   0.000  0.00  0.00    +0.022 C 
ATOM     17  C   UNL     1       5.352  -5.860   0.000  0.00  0.00    +0.022 C 
ENDBRANCH  12  15
BRANCH  12  19
ATOM     18  C   UNL     1       3.511  -4.321   0.000  0.00  0.00    +0.023 C 
ATOM     19  C   UNL     1       4.225  -3.908   0.000  0.00  0.00    +0.093 C 
ENDBRANCH  12  19
ENDBRANCH  11  13
ENDBRANCH   1  11
TORSDOF 7
