REMARK  Name = 
REMARK  6 active torsions:
REMARK  status: ('A' for Active; 'I' for Inactive)
REMARK    1  A    between atoms: C_2  and  N_3
REMARK    2  A    between atoms: C_2  and  C_6
REMARK    3  A    between atoms: N_14  and  C_15
REMARK    4  A    between atoms: C_15  and  C_16
REMARK    5  A    between atoms: C_16  and  O_17
REMARK    6  A    between atoms: O_17  and  C_18
REMARK                            x       y       z     vdW  Elec       q    Type
REMARK                         _______ _______ _______ _____ _____    ______ ____
ROOT
ATOM      1  C   UNL     1       0.654  -0.698   0.000  0.00  0.00    +0.140 A 
ATOM      2  N   UNL     1       1.139  -1.365   0.000  0.00  0.00    -0.310 N 
ATOM      3  C   UNL     1       1.923  -1.110   0.000  0.00  0.00    +0.079 A 
ATOM      4  C   UNL     1       1.923  -0.285   0.000  0.00  0.00    +0.098 A 
ATOM      5  C   UNL     1       2.638   0.127   0.000  0.00  0.00    +0.021 A 
ATOM      6  C   UNL     1       3.352  -0.285   0.000  0.00  0.00    +0.002 A 
ATOM      7  C   UNL     1       3.352  -1.110   0.000  0.00  0.00    +0.002 A 
ATOM      8  C   UNL     1       2.638  -1.523   0.000  0.00  0.00    +0.019 A 
ATOM      9  N   UNL     1       1.139  -0.030   0.000  0.00  0.00    -0.229 NA
ENDROOT
BRANCH   1  11
ATOM     10  C   UNL     1      -0.584  -1.412   0.000  0.00  0.00    +0.032 C 
ATOM     11  C   UNL     1      -0.171  -0.698   0.000  0.00  0.00    +0.152 C 
BRANCH  11  12
ATOM     12  N   UNL     1      -0.584   0.017   0.000  0.00  0.00    -0.192 NA
ATOM     13  C   UNL     1      -1.409   0.017   0.000  0.00  0.00    +0.320 C 
ATOM     14  O   UNL     1      -1.821   0.731   0.000  0.00  0.00    -0.263 OA
ENDBRANCH  11  12
ENDBRANCH   1  11
BRANCH   2  15
ATOM     15  C   UNL     1       0.884  -2.150   0.000  0.00  0.00    +0.154 C 
BRANCH  15  16
ATOM     16  C   UNL     1       0.077  -2.321   0.000  0.00  0.00    +0.230 C 
BRANCH  16  17
ATOM     17  O   UNL     1      -0.178  -3.106   0.000  0.00  0.00    -0.473 OA
BRANCH  17  18
ATOM     18  C   UNL     1       0.374  -3.719   0.000  0.00  0.00    +0.138 A 
ATOM     19  C   UNL     1       0.119  -4.504   0.000  0.00  0.00    +0.033 A 
ATOM     20  C   UNL     1       0.671  -5.117   0.000  0.00  0.00    -0.019 A 
ATOM     21  C   UNL     1       0.416  -5.902   0.000  0.00  0.00    +0.031 C 
ATOM     22  C   UNL     1       1.478  -4.945   0.000  0.00  0.00    -0.004 A 
ATOM     23  C   UNL     1       1.733  -4.161   0.000  0.00  0.00    +0.003 A 
ATOM     24  C   UNL     1       1.181  -3.548   0.000  0.00  0.00    +0.037 A 
ENDBRANCH  17  18
ENDBRANCH  16  17
ENDBRANCH  15  16
ENDBRANCH   2  15
TORSDOF 6
