REMARK  Name = 
REMARK  7 active torsions:
REMARK  status: ('A' for Active; 'I' for Inactive)
REMARK    1  A    between atoms: C_2  and  C_3
REMARK    2  A    between atoms: C_2  and  N_9
REMARK    3  A    between atoms: C_3  and  N_4
REMARK    4  A    between atoms: N_9  and  C_10
REMARK    5  A    between atoms: C_10  and  C_11
REMARK    6  A    between atoms: C_11  and  C_13
REMARK    7  A    between atoms: C_13  and  N_14
REMARK                            x       y       z     vdW  Elec       q    Type
REMARK                         _______ _______ _______ _____ _____    ______ ____
ROOT
ATOM      1  C   UNL     1       7.710  -0.851   0.000  0.00  0.00    +0.192 C 
ATOM      2  O   UNL     1       7.710  -0.026   0.000  0.00  0.00    -0.220 OA
ENDROOT
BRANCH   1   3
ATOM      3  C   UNL     1       6.996  -1.264   0.000  0.00  0.00    +0.124 C 
BRANCH   3   4
ATOM      4  N   UNL     1       6.282  -0.851   0.000  0.00  0.00    -0.215 NA
BRANCH   4   6
ATOM      5  C   UNL     1       5.567  -2.089   0.000  0.00  0.00    +0.021 C 
ATOM      6  C   UNL     1       5.567  -1.264   0.000  0.00  0.00    +0.097 C 
BRANCH   6   7
ATOM      7  C   UNL     1       4.853  -0.851   0.000  0.00  0.00    +0.145 C 
BRANCH   7   8
ATOM      8  N   UNL     1       4.138  -1.264   0.000  0.00  0.00    -0.248 N 
ATOM      9  N   UNL     1       3.384  -0.928   0.000  0.00  0.00    -0.168 NA
ATOM     10  C   UNL     1       2.832  -1.541   0.000  0.00  0.00    +0.122 A 
ATOM     11  C   UNL     1       3.245  -2.256   0.000  0.00  0.00    +0.043 A 
ATOM     12  C   UNL     1       4.052  -2.084   0.000  0.00  0.00    +0.097 A 
ENDBRANCH   7   8
ENDBRANCH   6   7
ENDBRANCH   4   6
ENDBRANCH   3   4
ENDBRANCH   1   3
BRANCH   1  13
ATOM     13  C   UNL     1       8.425  -1.264   0.000  0.00  0.00    +0.142 C 
BRANCH  13  14
ATOM     14  N   UNL     1       9.139  -0.851   0.000  0.00  0.00    -0.306 N 
ATOM     15  C   UNL     1       9.893  -1.187   0.000  0.00  0.00    +0.079 A 
ATOM     16  C   UNL     1      10.445  -0.574   0.000  0.00  0.00    +0.098 A 
ATOM     17  C   UNL     1      11.252  -0.745   0.000  0.00  0.00    +0.016 A 
ATOM     18  C   UNL     1      11.507  -1.530   0.000  0.00  0.00    -0.024 A 
ATOM     19  C   UNL     1      10.955  -2.143   0.000  0.00  0.00    -0.024 A 
ATOM     20  C   UNL     1      11.210  -2.928   0.000  0.00  0.00    +0.031 C 
ATOM     21  C   UNL     1      12.314  -1.701   0.000  0.00  0.00    +0.031 C 
ATOM     22  N   UNL     1      10.033   0.141   0.000  0.00  0.00    -0.224 NA
ATOM     23  C   UNL     1      10.148  -1.971   0.000  0.00  0.00    +0.014 A 
ATOM     24  C   UNL     1       9.226  -0.031   0.000  0.00  0.00    +0.179 A 
ENDBRANCH  13  14
ENDBRANCH   1  13
TORSDOF 7
