REMARK  Name = 
REMARK  4 active torsions:
REMARK  status: ('A' for Active; 'I' for Inactive)
REMARK    1  A    between atoms: N_1  and  C_12
REMARK    2  A    between atoms: N_2  and  C_11
REMARK    3  A    between atoms: C_12  and  C_15
REMARK    4  A    between atoms: C_13  and  N_16
REMARK                            x       y       z     vdW  Elec       q    Type
REMARK                         _______ _______ _______ _____ _____    ______ ____
ROOT
ATOM      1  N   UNL     1       1.850   3.712   0.000  0.00  0.00    -0.238 N 
ATOM      2  C   UNL     1       1.133   3.300   0.000  0.00  0.00    +0.294 A 
ATOM      3  O   UNL     1       1.133   2.475   0.000  0.00  0.00    -0.264 OA
ATOM      4  C   UNL     1       0.421   3.712   0.000  0.00  0.00    +0.213 A 
ATOM      5  F   UNL     1      -0.296   3.300   0.000  0.00  0.00    -0.198 F 
ATOM      6  C   UNL     1       0.421   4.533   0.000  0.00  0.00    +0.116 A 
ATOM      7  N   UNL     1       1.133   4.950   0.000  0.00  0.00    -0.255 N 
ATOM      8  C   UNL     1       1.850   4.533   0.000  0.00  0.00    +0.336 A 
ATOM      9  O   UNL     1       2.562   4.950   0.000  0.00  0.00    -0.246 OA
ENDROOT
BRANCH   7  10
ATOM     10  C   UNL     1       1.133   5.775   0.000  0.00  0.00    +0.208 C 
ATOM     11  C   UNL     1       0.467   6.258   0.000  0.00  0.00    +0.057 C 
ATOM     12  C   UNL     1       0.721   7.042   0.000  0.00  0.00    +0.037 C 
ATOM     13  C   UNL     1       1.546   7.042   0.000  0.00  0.00    +0.144 C 
ATOM     14  O   UNL     1       1.800   6.258   0.000  0.00  0.00    -0.335 OA
ENDBRANCH   7  10
BRANCH   1  15
ATOM     15  C   UNL     1       2.562   3.300   0.000  0.00  0.00    +0.201 C 
BRANCH  15  16
ATOM     16  C   UNL     1       2.562   2.475   0.000  0.00  0.00    +0.269 C 
ATOM     17  O   UNL     1       1.850   2.062   0.000  0.00  0.00    -0.271 OA
ATOM     18  N   UNL     1       3.275   2.062   0.000  0.00  0.00    -0.176 NA
BRANCH  18  19
ATOM     19  C   UNL     1       3.275   1.238   0.000  0.00  0.00    +0.093 A 
ATOM     20  C   UNL     1       3.992   0.825   0.000  0.00  0.00    +0.018 A 
ATOM     21  C   UNL     1       3.992   0.000   0.000  0.00  0.00    +0.003 A 
ATOM     22  C   UNL     1       3.275  -0.412   0.000  0.00  0.00    +0.021 A 
ATOM     23  C   UNL     1       2.562   0.000   0.000  0.00  0.00    +0.110 A 
ATOM     24  N   UNL     1       1.779  -0.254   0.000  0.00  0.00    -0.190 NA
ATOM     25  S   UNL     1       1.292   0.412   0.000  0.00  0.00    +0.117 S 
ATOM     26  N   UNL     1       1.779   1.083   0.000  0.00  0.00    -0.189 NA
ATOM     27  C   UNL     1       2.562   0.825   0.000  0.00  0.00    +0.124 A 
ENDBRANCH  18  19
ENDBRANCH  15  16
ENDBRANCH   1  15
TORSDOF 4
