REMARK  Name = 
REMARK  6 active torsions:
REMARK  status: ('A' for Active; 'I' for Inactive)
REMARK    1  A    between atoms: C_2  and  C_3
REMARK    2  A    between atoms: C_3  and  N_4
REMARK    3  A    between atoms: C_7  and  C_8
REMARK    4  A    between atoms: N_11  and  C_12
REMARK    5  A    between atoms: N_17  and  C_18
REMARK    6  A    between atoms: C_18  and  C_19
REMARK                            x       y       z     vdW  Elec       q    Type
REMARK                         _______ _______ _______ _____ _____    ______ ____
ROOT
ATOM      1  N   UNL     1       0.000  -1.650   0.000  0.00  0.00    -0.239 N 
ATOM      2  C   UNL     1      -0.715  -1.238   0.000  0.00  0.00    +0.334 A 
ATOM      3  O   UNL     1      -0.715  -0.412   0.000  0.00  0.00    -0.246 OA
ATOM      4  N   UNL     1      -1.429  -1.650   0.000  0.00  0.00    -0.281 N 
ATOM      5  C   UNL     1      -1.429  -2.475   0.000  0.00  0.00    +0.095 A 
ATOM      6  C   UNL     1      -0.715  -2.888   0.000  0.00  0.00    +0.142 A 
ATOM      7  C   UNL     1       0.000  -2.475   0.000  0.00  0.00    +0.276 A 
ATOM      8  O   UNL     1       0.715  -2.888   0.000  0.00  0.00    -0.266 OA
ENDROOT
BRANCH   4   9
ATOM      9  C   UNL     1      -2.143  -1.238   0.000  0.00  0.00    +0.090 C 
ATOM     10  C   UNL     1      -2.556  -0.523   0.000  0.00  0.00    +0.025 C 
ATOM     11  C   UNL     1      -2.968  -1.238   0.000  0.00  0.00    +0.025 C 
ENDBRANCH   4   9
BRANCH   6  12
ATOM     12  C   UNL     1      -0.715  -3.712   0.000  0.00  0.00    +0.107 C 
ATOM     13  N   UNL     1      -0.715  -4.537   0.000  0.00  0.00    -0.191 NA
ENDBRANCH   6  12
BRANCH   1  14
ATOM     14  C   UNL     1       0.715  -1.238   0.000  0.00  0.00    +0.200 C 
BRANCH  14  16
ATOM     15  O   UNL     1       1.429  -2.475   0.000  0.00  0.00    -0.271 OA
ATOM     16  C   UNL     1       1.429  -1.650   0.000  0.00  0.00    +0.266 C 
ATOM     17  N   UNL     1       2.143  -1.238   0.000  0.00  0.00    -0.189 NA
BRANCH  17  18
ATOM     18  C   UNL     1       2.858  -1.650   0.000  0.00  0.00    +0.191 C 
BRANCH  18  19
ATOM     19  C   UNL     1       3.572  -1.238   0.000  0.00  0.00    -0.054 C 
ATOM     20  C   UNL     1       4.287  -0.825   0.000  0.00  0.00    -0.012 C 
ENDBRANCH  18  19
ENDBRANCH  17  18
ENDBRANCH  14  16
ENDBRANCH   1  14
TORSDOF 6
