REMARK  Name = 
REMARK  7 active torsions:
REMARK  status: ('A' for Active; 'I' for Inactive)
REMARK    1  A    between atoms: S_2  and  N_5
REMARK    2  A    between atoms: N_5  and  C_6
REMARK    3  A    between atoms: C_6  and  C_7
REMARK    4  A    between atoms: C_7  and  C_8
REMARK    5  A    between atoms: C_8  and  N_9
REMARK    6  A    between atoms: C_10  and  C_12
REMARK    7  A    between atoms: C_17  and  N_18
REMARK                            x       y       z     vdW  Elec       q    Type
REMARK                         _______ _______ _______ _____ _____    ______ ____
ROOT
ATOM      1  C   UNL     1       5.716  -0.825   0.000  0.00  0.00    +0.087 A 
ATOM      2  C   UNL     1       6.430  -1.238   0.000  0.00  0.00    +0.136 A 
ATOM      3  N   UNL     1       7.145  -0.825   0.000  0.00  0.00    -0.229 NA
ATOM      4  C   UNL     1       7.145   0.000   0.000  0.00  0.00    +0.100 A 
ATOM      5  C   UNL     1       6.430   0.412   0.000  0.00  0.00    +0.021 A 
ATOM      6  C   UNL     1       5.716   0.000   0.000  0.00  0.00    +0.009 A 
ENDROOT
BRANCH   2   7
ATOM      7  N   UNL     1       6.430  -2.062   0.000  0.00  0.00    -0.288 N 
ATOM      8  C   UNL     1       5.716  -2.475   0.000  0.00  0.00    +0.124 C 
ATOM      9  C   UNL     1       5.716  -3.300   0.000  0.00  0.00    +0.164 C 
ATOM     10  O   UNL     1       6.430  -3.712   0.000  0.00  0.00    -0.350 OA
ATOM     11  C   UNL     1       7.145  -3.300   0.000  0.00  0.00    +0.164 C 
ATOM     12  C   UNL     1       7.145  -2.475   0.000  0.00  0.00    +0.124 C 
ENDBRANCH   2   7
BRANCH   1  14
ATOM     13  N   UNL     1       4.287  -0.825   0.000  0.00  0.00    -0.202 NA
ATOM     14  C   UNL     1       5.001  -1.238   0.000  0.00  0.00    +0.268 C 
ATOM     15  O   UNL     1       5.001  -2.062   0.000  0.00  0.00    -0.268 OA
BRANCH  13  16
ATOM     16  C   UNL     1       3.572  -1.238   0.000  0.00  0.00    +0.117 C 
BRANCH  16  17
ATOM     17  C   UNL     1       2.858  -0.825   0.000  0.00  0.00    +0.044 C 
BRANCH  17  18
ATOM     18  C   UNL     1       2.143  -1.238   0.000  0.00  0.00    +0.117 C 
BRANCH  18  19
ATOM     19  N   UNL     1       1.429  -0.825   0.000  0.00  0.00    -0.082 NA
BRANCH  19  21
ATOM     20  C   UNL     1       0.000  -1.650   0.000  0.00  0.00    +0.197 C 
ATOM     21  S   UNL     1       0.715  -1.238   0.000  0.00  0.00    +0.059 S 
ATOM     22  O   UNL     1       0.302  -0.523   0.000  0.00  0.00    -0.156 OA
ATOM     23  O   UNL     1       1.127  -1.952   0.000  0.00  0.00    -0.156 OA
ENDBRANCH  19  21
ENDBRANCH  18  19
ENDBRANCH  17  18
ENDBRANCH  16  17
ENDBRANCH  13  16
ENDBRANCH   1  14
TORSDOF 7
