REMARK  Name = 
REMARK  5 active torsions:
REMARK  status: ('A' for Active; 'I' for Inactive)
REMARK    1  A    between atoms: C_2  and  N_3
REMARK    2  A    between atoms: C_5  and  C_9
REMARK    3  A    between atoms: N_11  and  C_12
REMARK    4  A    between atoms: C_12  and  C_14
REMARK    5  A    between atoms: C_14  and  N_15
REMARK                            x       y       z     vdW  Elec       q    Type
REMARK                         _______ _______ _______ _____ _____    ______ ____
ROOT
ATOM      1  C   UNL     1       1.387  -2.408   0.000  0.00  0.00    +0.243 C 
ATOM      2  N   UNL     1       2.102  -1.996   0.000  0.00  0.00    -0.205 NA
ATOM      3  O   UNL     1       1.387  -3.233   0.000  0.00  0.00    -0.273 OA
ENDROOT
BRANCH   1   8
ATOM      4  N   UNL     1      -0.221  -1.004   0.000  0.00  0.00    -0.279 N 
ATOM      5  C   UNL     1      -0.633  -1.718   0.000  0.00  0.00    +0.226 C 
ATOM      6  O   UNL     1      -1.454  -1.804   0.000  0.00  0.00    -0.275 OA
ATOM      7  C   UNL     1      -0.081  -2.331   0.000  0.00  0.00    +0.096 C 
ATOM      8  C   UNL     1       0.672  -1.996   0.000  0.00  0.00    +0.107 C 
ATOM      9  C   UNL     1       0.586  -1.175   0.000  0.00  0.00    +0.103 C 
BRANCH   4  11
ATOM     10  C   UNL     1      -1.377  -0.164   0.000  0.00  0.00    +0.023 C 
ATOM     11  C   UNL     1      -0.556  -0.250   0.000  0.00  0.00    +0.093 C 
ENDBRANCH   4  11
ENDBRANCH   1   8
BRANCH   2  12
ATOM     12  C   UNL     1       2.816  -2.408   0.000  0.00  0.00    +0.118 C 
ATOM     13  C   UNL     1       2.816  -3.233   0.000  0.00  0.00    +0.025 C 
BRANCH  12  14
ATOM     14  C   UNL     1       3.530  -1.996   0.000  0.00  0.00    +0.129 C 
BRANCH  14  15
ATOM     15  N   UNL     1       4.245  -2.408   0.000  0.00  0.00    -0.306 N 
ATOM     16  C   UNL     1       4.331  -3.229   0.000  0.00  0.00    +0.179 A 
ATOM     17  N   UNL     1       5.138  -3.400   0.000  0.00  0.00    -0.222 NA
ATOM     18  C   UNL     1       5.551  -2.686   0.000  0.00  0.00    +0.119 A 
ATOM     19  C   UNL     1       4.999  -2.073   0.000  0.00  0.00    +0.098 A 
ENDBRANCH  14  15
ENDBRANCH  12  14
ENDBRANCH   2  12
TORSDOF 5
