REMARK  Name = 
REMARK  1 active torsions:
REMARK  status: ('A' for Active; 'I' for Inactive)
REMARK    1  A    between atoms: N_9  and  C_10
REMARK                            x       y       z     vdW  Elec       q    Type
REMARK                         _______ _______ _______ _____ _____    ______ ____
ROOT
ATOM      1 CL   UNL     1       2.858  -1.650   0.000  0.00  0.00    -0.081 Cl
ATOM      2  C   UNL     1       2.858  -2.475   0.000  0.00  0.00    +0.077 A 
ATOM      3  C   UNL     1       2.143  -2.888   0.000  0.00  0.00    +0.112 A 
ATOM      4  N   UNL     1       2.143  -3.712   0.000  0.00  0.00    -0.226 NA
ATOM      5  C   UNL     1       2.858  -4.125   0.000  0.00  0.00    +0.156 A 
ATOM      6  N   UNL     1       2.858  -4.950   0.000  0.00  0.00    -0.142 NA
ATOM      7  C   UNL     1       2.143  -5.362   0.000  0.00  0.00    +0.345 C 
ATOM      8  N   UNL     1       2.143  -6.188   0.000  0.00  0.00    -0.189 NA
ATOM      9  O   UNL     1       1.429  -4.950   0.000  0.00  0.00    -0.249 OA
ATOM     10  C   UNL     1       3.572  -3.712   0.000  0.00  0.00    +0.037 A 
ATOM     11  C   UNL     1       3.572  -2.888   0.000  0.00  0.00    +0.016 A 
ENDROOT
BRANCH   8  12
ATOM     12  C   UNL     1       1.429  -6.600   0.000  0.00  0.00    +0.097 C 
ATOM     13  C   UNL     1       0.715  -6.188   0.000  0.00  0.00    +0.022 C 
ATOM     14  C   UNL     1       0.000  -6.600   0.000  0.00  0.00    +0.002 C 
ATOM     15  C   UNL     1       0.000  -7.425   0.000  0.00  0.00    +0.000 C 
ATOM     16  C   UNL     1       0.715  -7.838   0.000  0.00  0.00    +0.002 C 
ATOM     17  C   UNL     1       1.429  -7.425   0.000  0.00  0.00    +0.022 C 
ENDBRANCH   8  12
TORSDOF 1
