REMARK  Name = 
REMARK  2 active torsions:
REMARK  status: ('A' for Active; 'I' for Inactive)
REMARK    1  A    between atoms: C_3  and  C_5
REMARK    2  A    between atoms: C_10  and  N_11
REMARK                            x       y       z     vdW  Elec       q    Type
REMARK                         _______ _______ _______ _____ _____    ______ ____
ROOT
ATOM      1 CL   UNL     1       0.000   0.000   0.000  0.00  0.00    +0.000 Cl
ENDROOT
TORSDOF 0
REMARK  Name = 
REMARK  2 active torsions:
REMARK  status: ('A' for Active; 'I' for Inactive)
REMARK    1  A    between atoms: C_3  and  C_5
REMARK    2  A    between atoms: C_10  and  N_11
REMARK                            x       y       z     vdW  Elec       q    Type
REMARK                         _______ _______ _______ _____ _____    ______ ____
ROOT
ATOM      1  C   UNL     1       5.215  -0.055   0.000  0.00  0.00    +0.111 A 
ATOM      2  C   UNL     1       4.501  -0.468   0.000  0.00  0.00    +0.138 A 
ATOM      3  N   UNL     1       4.501  -1.292   0.000  0.00  0.00    -0.229 NA
ATOM      4  C   UNL     1       5.215  -1.705   0.000  0.00  0.00    +0.100 A 
ATOM      5  C   UNL     1       5.929  -1.292   0.000  0.00  0.00    +0.021 A 
ATOM      6  C   UNL     1       5.929  -0.468   0.000  0.00  0.00    +0.011 A 
ENDROOT
BRANCH   2   7
ATOM      7  N   UNL     1       3.786  -0.055   0.000  0.00  0.00    -0.288 N 
ATOM      8  C   UNL     1       3.786   0.770   0.000  0.00  0.00    +0.124 C 
ATOM      9  C   UNL     1       3.072   1.183   0.000  0.00  0.00    +0.164 C 
ATOM     10  O   UNL     1       2.357   0.770   0.000  0.00  0.00    -0.350 OA
ATOM     11  C   UNL     1       2.357  -0.055   0.000  0.00  0.00    +0.164 C 
ATOM     12  C   UNL     1       3.072  -0.468   0.000  0.00  0.00    +0.124 C 
ENDBRANCH   2   7
BRANCH   1  14
ATOM     13  O   UNL     1       5.929   1.183   0.000  0.00  0.00    -0.240 OA
ATOM     14  C   UNL     1       5.215   0.770   0.000  0.00  0.00    +0.390 C 
ATOM     15  O   UNL     1       4.501   1.183   0.000  0.00  0.00    -0.240 OA
ENDBRANCH   1  14
TORSDOF 2
