REMARK  Name = 
REMARK  6 active torsions:
REMARK  status: ('A' for Active; 'I' for Inactive)
REMARK    1  A    between atoms: O_2  and  C_3
REMARK    2  A    between atoms: N_8  and  C_9
REMARK    3  A    between atoms: C_9  and  C_10
REMARK    4  A    between atoms: C_10  and  O_11
REMARK    5  A    between atoms: O_11  and  C_12
REMARK    6  A    between atoms: C_12  and  C_13
REMARK                            x       y       z     vdW  Elec       q    Type
REMARK                         _______ _______ _______ _____ _____    ______ ____
ROOT
ATOM      1  C   UNL     1       0.715  -0.412   0.000  0.00  0.00    +0.229 A 
ATOM      2  N   UNL     1       1.429   0.000   0.000  0.00  0.00    -0.177 NA
ATOM      3  C   UNL     1       1.429   0.825   0.000  0.00  0.00    +0.239 A 
ATOM      4  N   UNL     1       2.143   1.238   0.000  0.00  0.00    -0.201 NA
ATOM      5  N   UNL     1       0.715   1.238   0.000  0.00  0.00    -0.211 NA
ATOM      6  C   UNL     1       0.000   0.825   0.000  0.00  0.00    +0.107 A 
ATOM      7  C   UNL     1       0.000   0.000   0.000  0.00  0.00    +0.078 A 
ENDROOT
BRANCH   1   9
ATOM      8  C   UNL     1       0.000  -1.650   0.000  0.00  0.00    +0.254 C 
ATOM      9  O   UNL     1       0.715  -1.238   0.000  0.00  0.00    -0.456 OA
ENDBRANCH   1   9
BRANCH   4  10
ATOM     10  C   UNL     1       2.858   0.825   0.000  0.00  0.00    +0.147 C 
BRANCH  10  11
ATOM     11  C   UNL     1       3.572   1.238   0.000  0.00  0.00    +0.166 C 
BRANCH  11  12
ATOM     12  O   UNL     1       4.287   0.825   0.000  0.00  0.00    -0.349 OA
BRANCH  12  13
ATOM     13  C   UNL     1       5.001   1.238   0.000  0.00  0.00    +0.178 C 
BRANCH  13  14
ATOM     14  C   UNL     1       5.716   0.825   0.000  0.00  0.00    +0.214 C 
ATOM     15  O   UNL     1       6.430   1.238   0.000  0.00  0.00    -0.218 OA
ENDBRANCH  13  14
ENDBRANCH  12  13
ENDBRANCH  11  12
ENDBRANCH  10  11
ENDBRANCH   4  10
TORSDOF 6
