REMARK  Name = 
REMARK  4 active torsions:
REMARK  status: ('A' for Active; 'I' for Inactive)
REMARK    1  A    between atoms: C_6  and  C_7
REMARK    2  A    between atoms: C_6  and  N_19
REMARK    3  A    between atoms: C_7  and  N_8
REMARK    4  A    between atoms: N_11  and  C_12
REMARK                            x       y       z     vdW  Elec       q    Type
REMARK                         _______ _______ _______ _____ _____    ______ ____
ROOT
ATOM      1  C   UNL     1       0.715  -2.888   0.000  0.00  0.00    +0.131 C 
ENDROOT
BRANCH   1   5
ATOM      2  C   UNL     1      -1.907  -1.413   0.000  0.00  0.00    +0.000 C 
ATOM      3  C   UNL     1      -1.095  -1.556   0.000  0.00  0.00    +0.001 C 
ATOM      4  C   UNL     1      -0.812  -2.332   0.000  0.00  0.00    +0.016 C 
ATOM      5  C   UNL     1       0.000  -2.475   0.000  0.00  0.00    +0.066 C 
ATOM      6  C   UNL     1       0.530  -1.843   0.000  0.00  0.00    +0.016 C 
ATOM      7  C   UNL     1       0.248  -1.068   0.000  0.00  0.00    +0.001 C 
ATOM      8  C   UNL     1      -0.564  -0.924   0.000  0.00  0.00    +0.000 C 
BRANCH   5   9
ATOM      9  N   UNL     1      -0.282  -3.250   0.000  0.00  0.00    -0.271 NA
ATOM     10  C   UNL     1       0.248  -3.882   0.000  0.00  0.00    +0.090 C 
ATOM     11  C   UNL     1      -1.095  -3.393   0.000  0.00  0.00    +0.090 C 
ENDBRANCH   5   9
ENDBRANCH   1   5
BRANCH   1  12
ATOM     12  N   UNL     1       1.429  -2.475   0.000  0.00  0.00    -0.186 NA
ATOM     13  C   UNL     1       2.143  -2.888   0.000  0.00  0.00    +0.344 C 
ATOM     14  N   UNL     1       2.858  -2.475   0.000  0.00  0.00    -0.159 NA
ATOM     15  O   UNL     1       2.143  -3.712   0.000  0.00  0.00    -0.249 OA
BRANCH  14  16
ATOM     16  C   UNL     1       3.572  -2.888   0.000  0.00  0.00    +0.094 A 
ATOM     17  C   UNL     1       3.572  -3.712   0.000  0.00  0.00    +0.115 A 
ATOM     18  N   UNL     1       4.287  -4.125   0.000  0.00  0.00    -0.241 NA
ATOM     19  C   UNL     1       5.001  -3.712   0.000  0.00  0.00    +0.099 A 
ATOM     20  C   UNL     1       5.001  -2.888   0.000  0.00  0.00    +0.022 A 
ATOM     21  C   UNL     1       4.287  -2.475   0.000  0.00  0.00    +0.020 A 
ENDBRANCH  14  16
ENDBRANCH   1  12
TORSDOF 4
