REMARK  Name = 
REMARK  4 active torsions:
REMARK  status: ('A' for Active; 'I' for Inactive)
REMARK    1  A    between atoms: C_5  and  N_6
REMARK    2  A    between atoms: N_14  and  C_15
REMARK    3  A    between atoms: C_15  and  C_16
REMARK    4  A    between atoms: N_18  and  C_19
REMARK                            x       y       z     vdW  Elec       q    Type
REMARK                         _______ _______ _______ _____ _____    ______ ____
ROOT
ATOM      1  C   UNL     1      -0.715  -2.888   0.000  0.00  0.00    +0.136 C 
ATOM      2  N   UNL     1       0.000  -2.475   0.000  0.00  0.00    -0.264 N 
ATOM      3  C   UNL     1       0.715  -2.888   0.000  0.00  0.00    +0.335 A 
ATOM      4  O   UNL     1       0.715  -3.712   0.000  0.00  0.00    -0.246 OA
ATOM      5  N   UNL     1       1.429  -2.475   0.000  0.00  0.00    -0.238 N 
ATOM      6  C   UNL     1       1.429  -1.650   0.000  0.00  0.00    +0.281 A 
ATOM      7  O   UNL     1       2.143  -1.238   0.000  0.00  0.00    -0.265 OA
ATOM      8  C   UNL     1       0.715  -1.238   0.000  0.00  0.00    +0.139 A 
ATOM      9  C   UNL     1       0.000  -1.650   0.000  0.00  0.00    +0.173 A 
ATOM     10  N   UNL     1      -0.715  -1.238   0.000  0.00  0.00    -0.107 NA
ENDROOT
BRANCH   8  11
ATOM     11  N   UNL     1       0.715  -0.412   0.000  0.00  0.00    -0.302 N 
ATOM     12  C   UNL     1       1.429   0.000   0.000  0.00  0.00    +0.091 C 
ATOM     13  C   UNL     1       1.429   0.825   0.000  0.00  0.00    +0.021 C 
ATOM     14  C   UNL     1       0.715   1.238   0.000  0.00  0.00    +0.004 C 
ATOM     15  C   UNL     1       0.000   0.825   0.000  0.00  0.00    +0.021 C 
ATOM     16  C   UNL     1       0.000   0.000   0.000  0.00  0.00    +0.091 C 
ENDBRANCH   8  11
BRANCH   5  17
ATOM     17  C   UNL     1       2.143  -2.888   0.000  0.00  0.00    +0.200 C 
BRANCH  17  18
ATOM     18  C   UNL     1       2.143  -3.712   0.000  0.00  0.00    +0.265 C 
ATOM     19  N   UNL     1       2.858  -4.125   0.000  0.00  0.00    -0.206 NA
ATOM     20  O   UNL     1       1.429  -4.125   0.000  0.00  0.00    -0.271 OA
BRANCH  19  21
ATOM     21  C   UNL     1       2.858  -4.950   0.000  0.00  0.00    +0.095 C 
ATOM     22  C   UNL     1       2.445  -5.665   0.000  0.00  0.00    +0.023 C 
ATOM     23  C   UNL     1       3.270  -5.665   0.000  0.00  0.00    +0.023 C 
ENDBRANCH  19  21
ENDBRANCH  17  18
ENDBRANCH   5  17
TORSDOF 4
