REMARK  Name = 
REMARK  6 active torsions:
REMARK  status: ('A' for Active; 'I' for Inactive)
REMARK    1  A    between atoms: C_2  and  C_3
REMARK    2  A    between atoms: C_3  and  N_4
REMARK    3  A    between atoms: C_3  and  C_14
REMARK    4  A    between atoms: C_3  and  C_17
REMARK    5  A    between atoms: C_5  and  C_7
REMARK    6  A    between atoms: C_7  and  C_8
REMARK                            x       y       z     vdW  Elec       q    Type
REMARK                         _______ _______ _______ _____ _____    ______ ____
ROOT
ATOM      1  N   UNL     1       0.000   3.300   0.000  0.00  0.00    -0.200 NA
ATOM      2  C   UNL     1       0.000   2.475   0.000  0.00  0.00    +0.246 C 
ATOM      3  O   UNL     1      -0.715   2.062   0.000  0.00  0.00    -0.273 OA
ENDROOT
BRANCH   1   4
ATOM      4  C   UNL     1      -0.715   3.712   0.000  0.00  0.00    +0.150 C 
BRANCH   4   5
ATOM      5  C   UNL     1      -0.302   4.427   0.000  0.00  0.00    +0.027 C 
ATOM      6  C   UNL     1       0.523   4.427   0.000  0.00  0.00    +0.002 C 
ATOM      7  C   UNL     1      -0.715   5.141   0.000  0.00  0.00    +0.002 C 
ENDBRANCH   4   5
BRANCH   4   8
ATOM      8  C   UNL     1      -1.429   4.125   0.000  0.00  0.00    +0.278 C 
ATOM      9  N   UNL     1      -2.143   3.712   0.000  0.00  0.00    -0.086 NA
ATOM     10  O   UNL     1      -1.429   4.950   0.000  0.00  0.00    -0.270 OA
ENDBRANCH   4   8
BRANCH   4  12
ATOM     11  C   UNL     1      -1.952   2.998   0.000  0.00  0.00    +0.002 C 
ATOM     12  C   UNL     1      -1.127   2.998   0.000  0.00  0.00    +0.029 C 
ENDBRANCH   4  12
ENDBRANCH   1   4
BRANCH   2  13
ATOM     13  C   UNL     1       0.715   2.062   0.000  0.00  0.00    +0.115 C 
BRANCH  13  14
ATOM     14  C   UNL     1       0.715   1.238   0.000  0.00  0.00    +0.006 A 
ATOM     15  C   UNL     1       0.000   0.825   0.000  0.00  0.00    +0.095 A 
ATOM     16  N   UNL     1       0.000   0.000   0.000  0.00  0.00    -0.243 NA
ATOM     17  C   UNL     1       0.715  -0.412   0.000  0.00  0.00    +0.099 A 
ATOM     18  C   UNL     1       1.429   0.000   0.000  0.00  0.00    +0.020 A 
ATOM     19  C   UNL     1       1.429   0.825   0.000  0.00  0.00    -0.001 A 
ENDBRANCH  13  14
ENDBRANCH   2  13
TORSDOF 6
