REMARK  Name = 
REMARK  5 active torsions:
REMARK  status: ('A' for Active; 'I' for Inactive)
REMARK    1  A    between atoms: N_6  and  S_8
REMARK    2  A    between atoms: S_8  and  N_11
REMARK    3  A    between atoms: N_11  and  C_12
REMARK    4  A    between atoms: C_12  and  C_13
REMARK    5  A    between atoms: C_13  and  C_14
REMARK                            x       y       z     vdW  Elec       q    Type
REMARK                         _______ _______ _______ _____ _____    ______ ____
ROOT
ATOM      1  S   UNL     1       2.143  -4.537   0.000  0.00  0.00    +0.116 S 
ATOM      2  O   UNL     1       2.556  -5.252   0.000  0.00  0.00    -0.140 OA
ATOM      3  O   UNL     1       1.731  -3.823   0.000  0.00  0.00    -0.140 OA
ENDROOT
BRANCH   1   7
ATOM      4  C   UNL     1       3.572  -2.062   0.000  0.00  0.00    +0.001 C 
ATOM      5  C   UNL     1       3.572  -2.888   0.000  0.00  0.00    +0.018 C 
ATOM      6  C   UNL     1       2.858  -3.300   0.000  0.00  0.00    +0.097 C 
ATOM      7  N   UNL     1       2.858  -4.125   0.000  0.00  0.00    -0.144 NA
ATOM      8  C   UNL     1       3.572  -4.537   0.000  0.00  0.00    +0.097 C 
ATOM      9  C   UNL     1       4.287  -4.125   0.000  0.00  0.00    +0.019 C 
ATOM     10  C   UNL     1       4.287  -3.300   0.000  0.00  0.00    +0.003 C 
ENDBRANCH   1   7
BRANCH   1  11
ATOM     11  N   UNL     1       1.429  -4.950   0.000  0.00  0.00    -0.066 NA
BRANCH  11  12
ATOM     12  C   UNL     1       0.715  -4.537   0.000  0.00  0.00    +0.123 C 
BRANCH  12  13
ATOM     13  C   UNL     1       0.000  -4.950   0.000  0.00  0.00    +0.067 C 
BRANCH  13  14
ATOM     14  C   UNL     1      -0.715  -4.537   0.000  0.00  0.00    +0.061 A 
ATOM     15  N   UNL     1      -0.715  -3.712   0.000  0.00  0.00    -0.248 NA
ATOM     16  C   UNL     1      -1.429  -3.300   0.000  0.00  0.00    +0.098 A 
ATOM     17  C   UNL     1      -2.143  -3.712   0.000  0.00  0.00    +0.021 A 
ATOM     18  C   UNL     1      -2.143  -4.537   0.000  0.00  0.00    +0.003 A 
ATOM     19  C   UNL     1      -1.429  -4.950   0.000  0.00  0.00    +0.015 A 
ENDBRANCH  13  14
ENDBRANCH  12  13
ENDBRANCH  11  12
ENDBRANCH   1  11
TORSDOF 5
