REMARK  Name = 
REMARK  5 active torsions:
REMARK  status: ('A' for Active; 'I' for Inactive)
REMARK    1  A    between atoms: C_2  and  N_3
REMARK    2  A    between atoms: C_2  and  C_10
REMARK    3  A    between atoms: N_12  and  C_13
REMARK    4  A    between atoms: C_13  and  C_14
REMARK    5  A    between atoms: C_14  and  C_16
REMARK                            x       y       z     vdW  Elec       q    Type
REMARK                         _______ _______ _______ _____ _____    ______ ____
ROOT
ATOM      1  C   UNL     1       2.858  -4.125   0.000  0.00  0.00    +0.256 C 
ATOM      2  N   UNL     1       3.572  -3.712   0.000  0.00  0.00    -0.201 NA
ATOM      3  O   UNL     1       2.858  -4.950   0.000  0.00  0.00    -0.272 OA
ENDROOT
BRANCH   1   5
ATOM      4  C   UNL     1       2.143  -2.888   0.000  0.00  0.00    +0.027 C 
ATOM      5  C   UNL     1       2.143  -3.712   0.000  0.00  0.00    +0.136 C 
BRANCH   5   6
ATOM      6  N   UNL     1       1.429  -4.125   0.000  0.00  0.00    -0.269 NA
ATOM      7  C   UNL     1       0.675  -3.789   0.000  0.00  0.00    +0.058 C 
ATOM      8  C   UNL     1       0.504  -2.982   0.000  0.00  0.00    +0.017 C 
ATOM      9  C   UNL     1       0.123  -4.402   0.000  0.00  0.00    +0.017 C 
ATOM     10  C   UNL     1       0.536  -5.117   0.000  0.00  0.00    +0.017 C 
ATOM     11  C   UNL     1       1.343  -4.946   0.000  0.00  0.00    +0.058 C 
ATOM     12  C   UNL     1       1.956  -5.497   0.000  0.00  0.00    +0.017 C 
ENDBRANCH   5   6
ENDBRANCH   1   5
BRANCH   2  13
ATOM     13  C   UNL     1       4.287  -4.125   0.000  0.00  0.00    +0.152 C 
BRANCH  13  14
ATOM     14  C   UNL     1       5.001  -3.712   0.000  0.00  0.00    +0.196 C 
ATOM     15  O   UNL     1       5.001  -2.888   0.000  0.00  0.00    -0.216 OA
BRANCH  14  16
ATOM     16  C   UNL     1       5.716  -4.125   0.000  0.00  0.00    +0.013 A 
ATOM     17  C   UNL     1       5.716  -4.950   0.000  0.00  0.00    +0.019 A 
ATOM     18  C   UNL     1       6.430  -5.362   0.000  0.00  0.00    +0.099 A 
ATOM     19  N   UNL     1       7.145  -4.950   0.000  0.00  0.00    -0.242 NA
ATOM     20  C   UNL     1       7.145  -4.125   0.000  0.00  0.00    +0.099 A 
ATOM     21  C   UNL     1       6.430  -3.712   0.000  0.00  0.00    +0.019 A 
ENDBRANCH  14  16
ENDBRANCH  13  14
ENDBRANCH   2  13
TORSDOF 5
