REMARK  Name = 
REMARK  6 active torsions:
REMARK  status: ('A' for Active; 'I' for Inactive)
REMARK    1  A    between atoms: C_2  and  N_3
REMARK    2  A    between atoms: C_2  and  C_11
REMARK    3  A    between atoms: N_3  and  C_4
REMARK    4  A    between atoms: C_4  and  C_5
REMARK    5  A    between atoms: C_5  and  N_6
REMARK    6  A    between atoms: N_13  and  C_14
REMARK                            x       y       z     vdW  Elec       q    Type
REMARK                         _______ _______ _______ _____ _____    ______ ____
ROOT
ATOM      1  C   UNL     1       0.028  -1.200   0.000  0.00  0.00    +0.029 C 
ATOM      2  C   UNL     1       0.028  -2.025   0.000  0.00  0.00    +0.150 C 
ENDROOT
BRANCH   2   3
ATOM      3  C   UNL     1      -0.686  -2.437   0.000  0.00  0.00    +0.257 C 
ATOM      4  N   UNL     1      -1.401  -2.025   0.000  0.00  0.00    -0.208 NA
ATOM      5  O   UNL     1      -0.686  -3.262   0.000  0.00  0.00    -0.272 OA
BRANCH   4   6
ATOM      6  C   UNL     1      -2.115  -2.437   0.000  0.00  0.00    +0.079 C 
ATOM      7  C   UNL     1      -1.703  -3.152   0.000  0.00  0.00    +0.022 C 
ATOM      8  C   UNL     1      -2.528  -1.723   0.000  0.00  0.00    +0.022 C 
ATOM      9  C   UNL     1      -2.830  -2.850   0.000  0.00  0.00    +0.022 C 
ENDBRANCH   4   6
ENDBRANCH   2   3
BRANCH   2  10
ATOM     10  N   UNL     1       0.743  -2.437   0.000  0.00  0.00    -0.208 NA
BRANCH  10  11
ATOM     11  C   UNL     1       1.457  -2.025   0.000  0.00  0.00    +0.115 C 
BRANCH  11  12
ATOM     12  C   UNL     1       2.171  -2.437   0.000  0.00  0.00    +0.146 C 
BRANCH  12  13
ATOM     13  N   UNL     1       2.886  -2.025   0.000  0.00  0.00    -0.248 N 
ATOM     14  N   UNL     1       3.640  -2.360   0.000  0.00  0.00    -0.168 NA
ATOM     15  C   UNL     1       4.192  -1.747   0.000  0.00  0.00    +0.122 A 
ATOM     16  C   UNL     1       3.779  -1.033   0.000  0.00  0.00    +0.043 A 
ATOM     17  C   UNL     1       2.972  -1.204   0.000  0.00  0.00    +0.097 A 
ENDBRANCH  12  13
ENDBRANCH  11  12
ENDBRANCH  10  11
ENDBRANCH   2  10
TORSDOF 6
