REMARK  Name = 
REMARK  4 active torsions:
REMARK  status: ('A' for Active; 'I' for Inactive)
REMARK    1  A    between atoms: C_2  and  C_3
REMARK    2  A    between atoms: C_2  and  N_9
REMARK    3  A    between atoms: C_3  and  N_4
REMARK    4  A    between atoms: C_16  and  N_18
REMARK                            x       y       z     vdW  Elec       q    Type
REMARK                         _______ _______ _______ _____ _____    ______ ____
ROOT
ATOM      1  N   UNL     1       0.715  -2.062   0.000  0.00  0.00    -0.188 NA
ATOM      2  C   UNL     1       1.429  -2.475   0.000  0.00  0.00    +0.323 C 
ATOM      3  N   UNL     1       2.143  -2.062   0.000  0.00  0.00    -0.261 N 
ATOM      4  C   UNL     1       2.858  -2.475   0.000  0.00  0.00    +0.117 C 
ATOM      5  C   UNL     1       3.572  -2.062   0.000  0.00  0.00    +0.115 C 
ATOM      6  C   UNL     1       3.572  -1.238   0.000  0.00  0.00    +0.025 C 
ATOM      7  C   UNL     1       2.858  -0.825   0.000  0.00  0.00    +0.023 C 
ATOM      8  C   UNL     1       2.143  -1.238   0.000  0.00  0.00    +0.095 C 
ATOM      9  O   UNL     1       1.429  -3.300   0.000  0.00  0.00    -0.251 OA
ENDROOT
BRANCH   5  10
ATOM     10  N   UNL     1       4.287  -2.475   0.000  0.00  0.00    -0.205 NA
ATOM     11  C   UNL     1       4.287  -3.300   0.000  0.00  0.00    +0.242 C 
ATOM     12  C   UNL     1       3.572  -3.712   0.000  0.00  0.00    +0.096 C 
ATOM     13  O   UNL     1       5.001  -3.712   0.000  0.00  0.00    -0.273 OA
ENDBRANCH   5  10
BRANCH   1  15
ATOM     14  C   UNL     1       0.000  -3.300   0.000  0.00  0.00    +0.026 C 
ATOM     15  C   UNL     1       0.000  -2.475   0.000  0.00  0.00    +0.119 C 
BRANCH  15  16
ATOM     16  C   UNL     1      -0.715  -2.062   0.000  0.00  0.00    +0.129 C 
BRANCH  16  17
ATOM     17  N   UNL     1      -1.429  -2.475   0.000  0.00  0.00    -0.306 N 
ATOM     18  C   UNL     1      -2.183  -2.139   0.000  0.00  0.00    +0.179 A 
ATOM     19  N   UNL     1      -2.735  -2.752   0.000  0.00  0.00    -0.222 NA
ATOM     20  C   UNL     1      -2.322  -3.467   0.000  0.00  0.00    +0.119 A 
ATOM     21  C   UNL     1      -1.515  -3.296   0.000  0.00  0.00    +0.098 A 
ENDBRANCH  16  17
ENDBRANCH  15  16
ENDBRANCH   1  15
TORSDOF 4
