REMARK  Name = 
REMARK  4 active torsions:
REMARK  status: ('A' for Active; 'I' for Inactive)
REMARK    1  A    between atoms: C_2  and  C_3
REMARK    2  A    between atoms: C_3  and  N_4
REMARK    3  A    between atoms: N_7  and  C_8
REMARK    4  A    between atoms: C_11  and  C_14
REMARK                            x       y       z     vdW  Elec       q    Type
REMARK                         _______ _______ _______ _____ _____    ______ ____
ROOT
ATOM      1  N   UNL     1       0.538  -1.939   0.000  0.00  0.00    -0.184 NA
ATOM      2  C   UNL     1       1.253  -1.527   0.000  0.00  0.00    +0.344 C 
ATOM      3  N   UNL     1       1.967  -1.939   0.000  0.00  0.00    -0.158 NA
ATOM      4  O   UNL     1       1.253  -0.702   0.000  0.00  0.00    -0.249 OA
ENDROOT
BRANCH   3   5
ATOM      5  C   UNL     1       2.682  -1.527   0.000  0.00  0.00    +0.113 A 
ATOM      6  C   UNL     1       3.396  -1.939   0.000  0.00  0.00    +0.118 A 
ATOM      7  N   UNL     1       4.111  -1.527   0.000  0.00  0.00    -0.228 NA
ATOM      8  C   UNL     1       4.111  -0.702   0.000  0.00  0.00    +0.139 A 
ATOM      9  N   UNL     1       3.396  -0.289   0.000  0.00  0.00    -0.228 NA
ATOM     10  C   UNL     1       2.682  -0.702   0.000  0.00  0.00    +0.118 A 
BRANCH   8  11
ATOM     11  C   UNL     1       4.825  -0.289   0.000  0.00  0.00    +0.059 C 
ATOM     12  C   UNL     1       5.650  -0.289   0.000  0.00  0.00    +0.008 C 
ATOM     13  C   UNL     1       5.238   0.425   0.000  0.00  0.00    +0.008 C 
ENDBRANCH   8  11
ENDBRANCH   3   5
BRANCH   1  14
ATOM     14  C   UNL     1      -0.176  -1.527   0.000  0.00  0.00    +0.147 C 
BRANCH  14  16
ATOM     15  O   UNL     1      -0.330  -2.544   0.000  0.00  0.00    -0.224 OA
ATOM     16  C   UNL     1      -0.891  -1.939   0.000  0.00  0.00    +0.147 C 
ATOM     17  C   UNL     1      -1.134  -1.151   0.000  0.00  0.00    +0.032 C 
ATOM     18  C   UNL     1      -1.902  -0.850   0.000  0.00  0.00    +0.003 C 
ATOM     19  C   UNL     1      -2.616  -1.262   0.000  0.00  0.00    +0.000 C 
ATOM     20  C   UNL     1      -2.739  -2.078   0.000  0.00  0.00    +0.000 C 
ATOM     21  C   UNL     1      -2.178  -2.683   0.000  0.00  0.00    +0.003 C 
ATOM     22  C   UNL     1      -1.355  -2.621   0.000  0.00  0.00    +0.032 C 
ENDBRANCH  14  16
ENDBRANCH   1  14
TORSDOF 4
