REMARK  Name = 
REMARK  4 active torsions:
REMARK  status: ('A' for Active; 'I' for Inactive)
REMARK    1  A    between atoms: O_2  and  C_3
REMARK    2  A    between atoms: C_6  and  N_7
REMARK    3  A    between atoms: C_8  and  C_10
REMARK    4  A    between atoms: C_10  and  N_11
REMARK                            x       y       z     vdW  Elec       q    Type
REMARK                         _______ _______ _______ _____ _____    ______ ____
ROOT
ATOM      1  C   UNL     1       3.479  -1.705   0.000  0.00  0.00    +0.096 C 
ATOM      2  C   UNL     1       2.896  -2.288   0.000  0.00  0.00    +0.041 C 
ATOM      3  C   UNL     1       2.192  -1.857   0.000  0.00  0.00    +0.004 C 
ATOM      4  C   UNL     1       2.192  -2.720   0.000  0.00  0.00    +0.004 C 
ATOM      5  C   UNL     1       3.479  -2.872   0.000  0.00  0.00    +0.100 C 
ATOM      6  C   UNL     1       4.062  -2.288   0.000  0.00  0.00    +0.049 C 
ATOM      7  C   UNL     1       2.896  -1.122   0.000  0.00  0.00    +0.030 C 
ENDROOT
BRANCH   5   8
ATOM      8  N   UNL     1       3.479  -3.697   0.000  0.00  0.00    -0.205 NA
ATOM      9  C   UNL     1       2.765  -4.109   0.000  0.00  0.00    +0.266 C 
ATOM     10  O   UNL     1       2.050  -3.697   0.000  0.00  0.00    -0.271 OA
BRANCH   9  11
ATOM     11  C   UNL     1       2.765  -4.934   0.000  0.00  0.00    +0.214 C 
BRANCH  11  12
ATOM     12  N   UNL     1       2.050  -5.347   0.000  0.00  0.00    -0.240 N 
ATOM     13  N   UNL     1       1.296  -5.011   0.000  0.00  0.00    -0.167 NA
ATOM     14  C   UNL     1       0.744  -5.624   0.000  0.00  0.00    +0.122 A 
ATOM     15  C   UNL     1       1.157  -6.339   0.000  0.00  0.00    +0.043 A 
ATOM     16  C   UNL     1       1.964  -6.167   0.000  0.00  0.00    +0.097 A 
ENDBRANCH  11  12
ENDBRANCH   9  11
ENDBRANCH   5   8
BRANCH   1  18
ATOM     17  C   UNL     1       4.859  -1.335   0.000  0.00  0.00    +0.174 C 
ATOM     18  O   UNL     1       4.062  -1.122   0.000  0.00  0.00    -0.356 OA
ENDBRANCH   1  18
TORSDOF 4
