REMARK  Name = 
REMARK  2 active torsions:
REMARK  status: ('A' for Active; 'I' for Inactive)
REMARK    1  A    between atoms: C_2  and  C_6
REMARK    2  A    between atoms: C_4  and  C_9
REMARK                            x       y       z     vdW  Elec       q    Type
REMARK                         _______ _______ _______ _____ _____    ______ ____
ROOT
ATOM      1  N   UNL     1      -0.088  -4.413   0.000  0.00  0.00    -0.207 NA
ATOM      2  C   UNL     1      -0.342  -5.201   0.000  0.00  0.00    +0.185 A 
ATOM      3  N   UNL     1       0.325  -5.685   0.000  0.00  0.00    -0.127 NA
ATOM      4  N   UNL     1       0.993  -5.201   0.000  0.00  0.00    -0.130 NA
ATOM      5  C   UNL     1       0.738  -4.413   0.000  0.00  0.00    +0.178 A 
ENDROOT
BRANCH   2   6
ATOM      6  C   UNL     1      -1.126  -5.455   0.000  0.00  0.00    +0.038 A 
ATOM      7  C   UNL     1      -1.743  -4.901   0.000  0.00  0.00    +0.003 A 
ATOM      8  C   UNL     1      -2.527  -5.159   0.000  0.00  0.00    +0.000 A 
ATOM      9  C   UNL     1      -2.698  -5.964   0.000  0.00  0.00    +0.000 A 
ATOM     10  C   UNL     1      -2.085  -6.519   0.000  0.00  0.00    +0.000 A 
ATOM     11  C   UNL     1      -1.301  -6.264   0.000  0.00  0.00    +0.003 A 
ENDBRANCH   2   6
BRANCH   5  12
ATOM     12  C   UNL     1       1.222  -3.745   0.000  0.00  0.00    +0.135 C 
ATOM     13  C   UNL     1       0.968  -2.961   0.000  0.00  0.00    +0.060 C 
ATOM     14  C   UNL     1       1.635  -2.477   0.000  0.00  0.00    +0.171 C 
ATOM     15  C   UNL     1       2.306  -2.961   0.000  0.00  0.00    +0.122 C 
ATOM     16  O   UNL     1       1.635  -1.652   0.000  0.00  0.00    -0.222 OA
ATOM     17  N   UNL     1       2.048  -3.745   0.000  0.00  0.00    -0.209 NA
ENDBRANCH   5  12
TORSDOF 2
REMARK  Name = 
REMARK  2 active torsions:
REMARK  status: ('A' for Active; 'I' for Inactive)
REMARK    1  A    between atoms: C_2  and  C_6
REMARK    2  A    between atoms: C_4  and  C_9
REMARK                            x       y       z     vdW  Elec       q    Type
REMARK                         _______ _______ _______ _____ _____    ______ ____
ROOT
ATOM      1 CL   UNL     1       2.002   0.000   0.000  0.00  0.00    +0.000 Cl
ENDROOT
TORSDOF 0
REMARK  Name = 
REMARK  2 active torsions:
REMARK  status: ('A' for Active; 'I' for Inactive)
REMARK    1  A    between atoms: C_2  and  C_6
REMARK    2  A    between atoms: C_4  and  C_9
REMARK                            x       y       z     vdW  Elec       q    Type
REMARK                         _______ _______ _______ _____ _____    ______ ____
ROOT
ATOM      1 CL   UNL     1       0.000   0.000   0.000  0.00  0.00    +0.000 Cl
ENDROOT
TORSDOF 0
