REMARK  Name = 
REMARK  3 active torsions:
REMARK  status: ('A' for Active; 'I' for Inactive)
REMARK    1  A    between atoms: C_2  and  C_14
REMARK    2  A    between atoms: N_3  and  C_4
REMARK    3  A    between atoms: C_8  and  N_9
REMARK                            x       y       z     vdW  Elec       q    Type
REMARK                         _______ _______ _______ _____ _____    ______ ____
ROOT
ATOM      1  C   UNL     1       1.429  -2.475   0.000  0.00  0.00    +0.116 C 
ATOM      2  C   UNL     1       2.096  -2.960   0.000  0.00  0.00    +0.107 C 
ATOM      3  C   UNL     1       1.841  -3.744   0.000  0.00  0.00    +0.024 C 
ATOM      4  C   UNL     1       1.016  -3.744   0.000  0.00  0.00    +0.004 C 
ATOM      5  C   UNL     1       0.761  -2.960   0.000  0.00  0.00    +0.024 C 
ENDROOT
BRANCH   2   6
ATOM      6  N   UNL     1       2.881  -2.705   0.000  0.00  0.00    -0.308 N 
ATOM      7  C   UNL     1       3.136  -1.920   0.000  0.00  0.00    +0.179 A 
ATOM      8  N   UNL     1       3.961  -1.920   0.000  0.00  0.00    -0.222 NA
ATOM      9  C   UNL     1       4.216  -2.705   0.000  0.00  0.00    +0.119 A 
ATOM     10  C   UNL     1       3.548  -3.190   0.000  0.00  0.00    +0.098 A 
ENDBRANCH   2   6
BRANCH   1  13
ATOM     11  O   UNL     1       0.000  -1.650   0.000  0.00  0.00    -0.273 OA
ATOM     12  C   UNL     1       0.715  -1.238   0.000  0.00  0.00    +0.241 C 
ATOM     13  N   UNL     1       1.429  -1.650   0.000  0.00  0.00    -0.205 NA
BRANCH  12  14
ATOM     14  C   UNL     1       0.715  -0.412   0.000  0.00  0.00    +0.078 C 
ATOM     15  C   UNL     1       1.429   0.000   0.000  0.00  0.00    +0.009 C 
ATOM     16  C   UNL     1       1.429   0.825   0.000  0.00  0.00    +0.000 C 
ATOM     17  C   UNL     1       0.715   1.238   0.000  0.00  0.00    +0.000 C 
ATOM     18  C   UNL     1       0.000   0.825   0.000  0.00  0.00    +0.000 C 
ATOM     19  C   UNL     1       0.000   0.000   0.000  0.00  0.00    +0.009 C 
ENDBRANCH  12  14
ENDBRANCH   1  13
TORSDOF 3
