REMARK  Name = 
REMARK  2 active torsions:
REMARK  status: ('A' for Active; 'I' for Inactive)
REMARK    1  A    between atoms: C_6  and  N_7
REMARK    2  A    between atoms: C_8  and  C_10
REMARK                            x       y       z     vdW  Elec       q    Type
REMARK                         _______ _______ _______ _____ _____    ______ ____
ROOT
ATOM      1  N   UNL     1       0.000  -4.125   0.000  0.00  0.00    -0.154 NA
ATOM      2  C   UNL     1       0.000  -4.950   0.000  0.00  0.00    +0.308 C 
ATOM      3  O   UNL     1       0.715  -5.362   0.000  0.00  0.00    -0.265 OA
ENDROOT
BRANCH   1   7
ATOM      4  C   UNL     1       1.429  -1.650   0.000  0.00  0.00    +0.052 C 
ATOM      5  C   UNL     1       1.429  -2.475   0.000  0.00  0.00    +0.061 A 
ATOM      6  N   UNL     1       0.715  -2.888   0.000  0.00  0.00    -0.233 NA
ATOM      7  C   UNL     1       0.715  -3.712   0.000  0.00  0.00    +0.154 A 
ATOM      8  C   UNL     1       1.429  -4.125   0.000  0.00  0.00    +0.036 A 
ATOM      9  C   UNL     1       2.143  -3.712   0.000  0.00  0.00    +0.004 A 
ATOM     10  C   UNL     1       2.143  -2.888   0.000  0.00  0.00    +0.015 A 
ENDBRANCH   1   7
BRANCH   2  11
ATOM     11  C   UNL     1      -0.715  -5.362   0.000  0.00  0.00    +0.231 C 
ATOM     12  O   UNL     1      -1.429  -4.950   0.000  0.00  0.00    -0.464 OA
ATOM     13  C   UNL     1      -2.143  -5.362   0.000  0.00  0.00    +0.253 C 
ATOM     14  C   UNL     1      -2.143  -6.188   0.000  0.00  0.00    +0.253 C 
ATOM     15  O   UNL     1      -1.429  -6.600   0.000  0.00  0.00    -0.465 OA
ATOM     16  C   UNL     1      -0.715  -6.188   0.000  0.00  0.00    +0.214 C 
ENDBRANCH   2  11
TORSDOF 2
