REMARK  Name = 
REMARK  4 active torsions:
REMARK  status: ('A' for Active; 'I' for Inactive)
REMARK    1  A    between atoms: C_4  and  C_9
REMARK    2  A    between atoms: N_11  and  C_12
REMARK    3  A    between atoms: C_12  and  C_13
REMARK    4  A    between atoms: C_13  and  C_14
REMARK                            x       y       z     vdW  Elec       q    Type
REMARK                         _______ _______ _______ _____ _____    ______ ____
ROOT
ATOM      1  C   UNL     1      -2.143   0.412   0.000  0.00  0.00    +0.280 C 
ATOM      2  N   UNL     1      -1.429   0.825   0.000  0.00  0.00    -0.200 NA
ATOM      3  O   UNL     1      -2.143  -0.412   0.000  0.00  0.00    -0.267 OA
ENDROOT
BRANCH   1  10
ATOM      4  C   UNL     1      -3.572   2.888   0.000  0.00  0.00    +0.143 C 
ATOM      5  N   UNL     1      -3.572   2.062   0.000  0.00  0.00    -0.179 N 
ATOM      6  C   UNL     1      -4.287   1.650   0.000  0.00  0.00    +0.245 C 
ATOM      7  O   UNL     1      -5.001   2.062   0.000  0.00  0.00    -0.273 OA
ATOM      8  C   UNL     1      -4.287   0.825   0.000  0.00  0.00    +0.094 C 
ATOM      9  C   UNL     1      -3.572   0.412   0.000  0.00  0.00    +0.062 C 
ATOM     10  C   UNL     1      -2.858   0.825   0.000  0.00  0.00    +0.132 C 
ATOM     11  N   UNL     1      -2.858   1.650   0.000  0.00  0.00    -0.175 NA
ENDBRANCH   1  10
BRANCH   2  12
ATOM     12  C   UNL     1      -0.715   0.412   0.000  0.00  0.00    +0.125 C 
BRANCH  12  13
ATOM     13  C   UNL     1       0.000   0.825   0.000  0.00  0.00    +0.111 C 
BRANCH  13  14
ATOM     14  C   UNL     1       0.715   0.412   0.000  0.00  0.00    +0.238 A 
ATOM     15  O   UNL     1       0.801  -0.408   0.000  0.00  0.00    -0.337 OA
ATOM     16  N   UNL     1       1.608  -0.580   0.000  0.00  0.00    -0.061 NA
ATOM     17  C   UNL     1       2.020   0.135   0.000  0.00  0.00    +0.181 A 
ATOM     18  C   UNL     1       2.841   0.221   0.000  0.00  0.00    +0.077 C 
ATOM     19  N   UNL     1       1.468   0.748   0.000  0.00  0.00    -0.195 NA
ENDBRANCH  13  14
ENDBRANCH  12  13
ENDBRANCH   2  12
TORSDOF 4
