REMARK  Name = 
REMARK  5 active torsions:
REMARK  status: ('A' for Active; 'I' for Inactive)
REMARK    1  A    between atoms: C_4  and  C_5
REMARK    2  A    between atoms: C_5  and  C_6
REMARK    3  A    between atoms: C_6  and  N_7
REMARK    4  A    between atoms: C_8  and  C_10
REMARK    5  A    between atoms: N_12  and  C_13
REMARK                            x       y       z     vdW  Elec       q    Type
REMARK                         _______ _______ _______ _____ _____    ______ ____
ROOT
ATOM      1  N   UNL     1       2.816  -2.408   0.000  0.00  0.00    -0.205 NA
ATOM      2  C   UNL     1       3.530  -1.996   0.000  0.00  0.00    +0.243 C 
ATOM      3  O   UNL     1       3.530  -1.171   0.000  0.00  0.00    -0.273 OA
ENDROOT
BRANCH   2   4
ATOM      4  C   UNL     1       4.245  -2.408   0.000  0.00  0.00    +0.107 C 
ATOM      5  C   UNL     1       4.331  -3.229   0.000  0.00  0.00    +0.096 C 
ATOM      6  C   UNL     1       5.138  -3.400   0.000  0.00  0.00    +0.226 C 
ATOM      7  O   UNL     1       5.474  -4.154   0.000  0.00  0.00    -0.275 OA
ATOM      8  N   UNL     1       5.551  -2.686   0.000  0.00  0.00    -0.281 N 
ATOM      9  C   UNL     1       4.999  -2.073   0.000  0.00  0.00    +0.103 C 
BRANCH   8  10
ATOM     10  C   UNL     1       6.371  -2.599   0.000  0.00  0.00    +0.075 C 
ATOM     11  C   UNL     1       7.125  -2.935   0.000  0.00  0.00    +0.022 C 
ATOM     12  C   UNL     1       7.038  -2.115   0.000  0.00  0.00    +0.022 C 
ENDBRANCH   8  10
ENDBRANCH   2   4
BRANCH   1  13
ATOM     13  C   UNL     1       2.102  -1.996   0.000  0.00  0.00    +0.121 C 
BRANCH  13  14
ATOM     14  C   UNL     1       1.387  -2.408   0.000  0.00  0.00    +0.070 C 
BRANCH  14  19
ATOM     15  C   UNL     1      -0.556  -0.250   0.000  0.00  0.00    +0.059 C 
ATOM     16  C   UNL     1      -0.221  -1.004   0.000  0.00  0.00    +0.088 A 
ATOM     17  S   UNL     1      -0.633  -1.718   0.000  0.00  0.00    -0.071 S 
ATOM     18  C   UNL     1      -0.081  -2.331   0.000  0.00  0.00    +0.051 A 
ATOM     19  C   UNL     1       0.672  -1.996   0.000  0.00  0.00    +0.067 A 
ATOM     20  N   UNL     1       0.586  -1.175   0.000  0.00  0.00    -0.247 NA
ENDBRANCH  14  19
ENDBRANCH  13  14
ENDBRANCH   1  13
TORSDOF 5
