REMARK  Name = 
REMARK  7 active torsions:
REMARK  status: ('A' for Active; 'I' for Inactive)
REMARK    1  A    between atoms: C_2  and  C_3
REMARK    2  A    between atoms: C_3  and  C_4
REMARK    3  A    between atoms: C_3  and  C_6
REMARK    4  A    between atoms: C_3  and  C_18
REMARK    5  A    between atoms: C_6  and  N_7
REMARK    6  A    between atoms: C_8  and  C_10
REMARK    7  A    between atoms: C_10  and  N_11
REMARK                            x       y       z     vdW  Elec       q    Type
REMARK                         _______ _______ _______ _____ _____    ______ ____
ROOT
ATOM      1  N   UNL     1      -0.147   3.177   0.000  0.00  0.00    -0.203 NA
ATOM      2  C   UNL     1      -0.147   2.352   0.000  0.00  0.00    +0.266 C 
ATOM      3  O   UNL     1      -0.861   1.939   0.000  0.00  0.00    -0.271 OA
ENDROOT
BRANCH   1   4
ATOM      4  C   UNL     1      -0.861   3.589   0.000  0.00  0.00    +0.126 C 
BRANCH   4   5
ATOM      5  C   UNL     1      -0.861   4.414   0.000  0.00  0.00    +0.114 C 
BRANCH   5   6
ATOM      6  C   UNL     1      -0.036   4.414   0.000  0.00  0.00    +0.365 C 
ATOM      7  O   UNL     1       0.376   5.129   0.000  0.00  0.00    -0.246 OA
ATOM      8  O   UNL     1       0.376   3.700   0.000  0.00  0.00    -0.246 OA
ENDBRANCH   5   6
BRANCH   5  10
ATOM      9  C   UNL     1      -1.576   5.652   0.000  0.00  0.00    +0.001 C 
ATOM     10  C   UNL     1      -0.861   5.239   0.000  0.00  0.00    +0.012 C 
ENDBRANCH   5  10
BRANCH   5  11
ATOM     11  C   UNL     1      -1.686   4.414   0.000  0.00  0.00    +0.012 C 
ATOM     12  C   UNL     1      -2.099   3.700   0.000  0.00  0.00    +0.001 C 
ENDBRANCH   5  11
ENDBRANCH   4   5
ENDBRANCH   1   4
BRANCH   2  13
ATOM     13  C   UNL     1       0.568   1.939   0.000  0.00  0.00    +0.213 C 
BRANCH  13  14
ATOM     14  N   UNL     1       0.568   1.114   0.000  0.00  0.00    -0.246 N 
ATOM     15  C   UNL     1      -0.100   0.629   0.000  0.00  0.00    +0.058 A 
ATOM     16  C   UNL     1      -0.884   0.884   0.000  0.00  0.00    +0.052 C 
ATOM     17  C   UNL     1       0.155  -0.155   0.000  0.00  0.00    +0.031 A 
ATOM     18  C   UNL     1       0.980  -0.155   0.000  0.00  0.00    +0.080 A 
ATOM     19  C   UNL     1       1.465  -0.823   0.000  0.00  0.00    +0.054 C 
ATOM     20  N   UNL     1       1.235   0.629   0.000  0.00  0.00    -0.174 NA
ENDBRANCH  13  14
ENDBRANCH   2  13
TORSDOF 7
