REMARK  Name = 
REMARK  2 active torsions:
REMARK  status: ('A' for Active; 'I' for Inactive)
REMARK    1  A    between atoms: N_6  and  C_7
REMARK    2  A    between atoms: C_7  and  C_8
REMARK                            x       y       z     vdW  Elec       q    Type
REMARK                         _______ _______ _______ _____ _____    ______ ____
ROOT
ATOM      1  C   UNL     1      -1.016   5.665   0.000  0.00  0.00    +0.052 C 
ATOM      2  C   UNL     1      -0.302   5.252   0.000  0.00  0.00    +0.067 A 
ATOM      3  N   UNL     1      -0.302   4.427   0.000  0.00  0.00    -0.217 NA
ATOM      4  C   UNL     1       0.412   4.014   0.000  0.00  0.00    +0.240 A 
ATOM      5  N   UNL     1       0.412   3.189   0.000  0.00  0.00    -0.088 NA
ATOM      6  N   UNL     1       1.127   4.427   0.000  0.00  0.00    -0.264 N 
ATOM      7  C   UNL     1       1.127   5.252   0.000  0.00  0.00    +0.264 A 
ATOM      8  O   UNL     1       1.841   5.665   0.000  0.00  0.00    -0.267 OA
ATOM      9  C   UNL     1       0.412   5.665   0.000  0.00  0.00    +0.076 A 
ENDROOT
BRANCH   6  10
ATOM     10  C   UNL     1       1.841   4.014   0.000  0.00  0.00    +0.144 C 
BRANCH  10  11
ATOM     11  C   UNL     1       1.841   3.189   0.000  0.00  0.00    +0.167 C 
ATOM     12  O   UNL     1       1.429   2.475   0.000  0.00  0.00    -0.349 OA
ATOM     13  C   UNL     1       2.254   2.475   0.000  0.00  0.00    +0.174 C 
ENDBRANCH  10  11
ENDBRANCH   6  10
TORSDOF 2
