REMARK  Name = 
REMARK  5 active torsions:
REMARK  status: ('A' for Active; 'I' for Inactive)
REMARK    1  A    between atoms: C_2  and  C_3
REMARK    2  A    between atoms: C_3  and  N_4
REMARK    3  A    between atoms: N_10  and  C_11
REMARK    4  A    between atoms: C_11  and  C_12
REMARK    5  A    between atoms: C_12  and  C_13
REMARK                            x       y       z     vdW  Elec       q    Type
REMARK                         _______ _______ _______ _____ _____    ______ ____
ROOT
ATOM      1  O   UNL     1       2.858  -4.950   0.000  0.00  0.00    -0.271 OA
ATOM      2  C   UNL     1       2.858  -4.125   0.000  0.00  0.00    +0.262 C 
ATOM      3  N   UNL     1       3.572  -3.712   0.000  0.00  0.00    -0.204 NA
ENDROOT
BRANCH   3   4
ATOM      4  C   UNL     1       4.287  -4.125   0.000  0.00  0.00    +0.120 C 
BRANCH   4   5
ATOM      5  C   UNL     1       5.001  -3.712   0.000  0.00  0.00    +0.051 C 
BRANCH   5   6
ATOM      6  C   UNL     1       5.716  -4.125   0.000  0.00  0.00    -0.001 A 
ATOM      7  C   UNL     1       5.716  -4.950   0.000  0.00  0.00    +0.095 A 
ATOM      8  N   UNL     1       6.430  -5.362   0.000  0.00  0.00    -0.243 NA
ATOM      9  C   UNL     1       7.145  -4.950   0.000  0.00  0.00    +0.099 A 
ATOM     10  C   UNL     1       7.145  -4.125   0.000  0.00  0.00    +0.020 A 
ATOM     11  C   UNL     1       6.430  -3.712   0.000  0.00  0.00    -0.001 A 
ENDBRANCH   5   6
ENDBRANCH   4   5
ENDBRANCH   3   4
BRANCH   2  12
ATOM     12  C   UNL     1       2.143  -3.712   0.000  0.00  0.00    +0.181 C 
BRANCH  12  13
ATOM     13  N   UNL     1       1.429  -4.125   0.000  0.00  0.00    -0.271 N 
ATOM     14  C   UNL     1       0.675  -3.789   0.000  0.00  0.00    +0.226 C 
ATOM     15  O   UNL     1       0.504  -2.982   0.000  0.00  0.00    -0.275 OA
ATOM     16  C   UNL     1       0.123  -4.402   0.000  0.00  0.00    +0.087 C 
ATOM     17  C   UNL     1       0.536  -5.117   0.000  0.00  0.00    +0.031 C 
ATOM     18  C   UNL     1       1.343  -4.946   0.000  0.00  0.00    +0.094 C 
ENDBRANCH  12  13
ENDBRANCH   2  12
TORSDOF 5
