REMARK  Name = 
REMARK  6 active torsions:
REMARK  status: ('A' for Active; 'I' for Inactive)
REMARK    1  A    between atoms: C_2  and  C_3
REMARK    2  A    between atoms: C_10  and  S_12
REMARK    3  A    between atoms: S_12  and  N_15
REMARK    4  A    between atoms: N_15  and  C_16
REMARK    5  A    between atoms: C_16  and  C_17
REMARK    6  A    between atoms: C_17  and  C_18
REMARK                            x       y       z     vdW  Elec       q    Type
REMARK                         _______ _______ _______ _____ _____    ______ ____
ROOT
ATOM      1  S   UNL     1       3.363  -5.000   0.000  0.00  0.00    +0.059 S 
ATOM      2  O   UNL     1       4.188  -5.000   0.000  0.00  0.00    -0.156 OA
ATOM      3  O   UNL     1       2.538  -5.000   0.000  0.00  0.00    -0.156 OA
ENDROOT
BRANCH   1   8
ATOM      4  O   UNL     1       4.078  -1.771   0.000  0.00  0.00    -0.275 OA
ATOM      5  C   UNL     1       3.363  -2.183   0.000  0.00  0.00    +0.225 C 
ATOM      6  N   UNL     1       3.363  -3.008   0.000  0.00  0.00    -0.276 N 
ATOM      7  C   UNL     1       2.780  -3.592   0.000  0.00  0.00    +0.120 C 
ATOM      8  C   UNL     1       3.363  -4.175   0.000  0.00  0.00    +0.187 C 
ATOM      9  C   UNL     1       3.946  -3.592   0.000  0.00  0.00    +0.120 C 
BRANCH   5  10
ATOM     10  C   UNL     1       2.649  -1.771   0.000  0.00  0.00    +0.077 C 
ATOM     11  C   UNL     1       2.562  -0.950   0.000  0.00  0.00    +0.009 C 
ATOM     12  C   UNL     1       1.755  -0.779   0.000  0.00  0.00    +0.001 C 
ATOM     13  C   UNL     1       1.343  -1.493   0.000  0.00  0.00    +0.001 C 
ATOM     14  C   UNL     1       1.895  -2.106   0.000  0.00  0.00    +0.009 C 
ENDBRANCH   5  10
ENDBRANCH   1   8
BRANCH   1  15
ATOM     15  N   UNL     1       3.363  -5.825   0.000  0.00  0.00    -0.082 NA
BRANCH  15  16
ATOM     16  C   UNL     1       2.649  -6.237   0.000  0.00  0.00    +0.121 C 
BRANCH  16  17
ATOM     17  C   UNL     1       2.649  -7.062   0.000  0.00  0.00    +0.067 C 
BRANCH  17  18
ATOM     18  C   UNL     1       1.934  -7.475   0.000  0.00  0.00    +0.061 A 
ATOM     19  N   UNL     1       1.220  -7.062   0.000  0.00  0.00    -0.248 NA
ATOM     20  C   UNL     1       0.505  -7.475   0.000  0.00  0.00    +0.098 A 
ATOM     21  C   UNL     1       0.505  -8.300   0.000  0.00  0.00    +0.021 A 
ATOM     22  C   UNL     1       1.220  -8.713   0.000  0.00  0.00    +0.003 A 
ATOM     23  C   UNL     1       1.934  -8.300   0.000  0.00  0.00    +0.015 A 
ENDBRANCH  17  18
ENDBRANCH  16  17
ENDBRANCH  15  16
ENDBRANCH   1  15
TORSDOF 6
