REMARK  Name = 
REMARK  3 active torsions:
REMARK  status: ('A' for Active; 'I' for Inactive)
REMARK    1  A    between atoms: S_2  and  N_5
REMARK    2  A    between atoms: N_5  and  C_6
REMARK    3  A    between atoms: N_17  and  C_18
REMARK                            x       y       z     vdW  Elec       q    Type
REMARK                         _______ _______ _______ _____ _____    ______ ____
ROOT
ATOM      1  N   UNL     1       0.715  -2.888   0.000  0.00  0.00    -0.148 N 
ATOM      2  C   UNL     1       0.000  -2.475   0.000  0.00  0.00    +0.350 C 
ATOM      3  N   UNL     1      -0.715  -2.888   0.000  0.00  0.00    -0.107 NA
ATOM      4  C   UNL     1      -1.429  -2.475   0.000  0.00  0.00    +0.351 C 
ATOM      5  N   UNL     1      -2.143  -2.888   0.000  0.00  0.00    -0.159 NA
ATOM      6  O   UNL     1      -1.429  -1.650   0.000  0.00  0.00    -0.248 OA
ATOM      7  O   UNL     1       0.000  -1.650   0.000  0.00  0.00    -0.249 OA
ENDROOT
BRANCH   5   8
ATOM      8  C   UNL     1      -2.858  -2.475   0.000  0.00  0.00    +0.094 A 
ATOM      9  C   UNL     1      -2.858  -1.650   0.000  0.00  0.00    +0.115 A 
ATOM     10  N   UNL     1      -3.572  -1.238   0.000  0.00  0.00    -0.241 NA
ATOM     11  C   UNL     1      -4.287  -1.650   0.000  0.00  0.00    +0.099 A 
ATOM     12  C   UNL     1      -4.287  -2.475   0.000  0.00  0.00    +0.022 A 
ATOM     13  C   UNL     1      -3.572  -2.888   0.000  0.00  0.00    +0.020 A 
ENDBRANCH   5   8
BRANCH   1  14
ATOM     14  C   UNL     1       0.715  -3.712   0.000  0.00  0.00    +0.100 C 
ATOM     15  C   UNL     1       0.000  -4.125   0.000  0.00  0.00    +0.022 C 
ATOM     16  C   UNL     1       0.000  -4.950   0.000  0.00  0.00    +0.002 C 
ATOM     17  C   UNL     1       0.715  -5.362   0.000  0.00  0.00    +0.000 C 
ATOM     18  C   UNL     1       1.429  -4.950   0.000  0.00  0.00    +0.002 C 
ATOM     19  C   UNL     1       1.429  -4.125   0.000  0.00  0.00    +0.022 C 
ENDBRANCH   1  14
BRANCH   1  21
ATOM     20  C   UNL     1       1.841  -3.189   0.000  0.00  0.00    +0.200 C 
ATOM     21  S   UNL     1       1.429  -2.475   0.000  0.00  0.00    +0.062 S 
ATOM     22  O   UNL     1       2.143  -2.062   0.000  0.00  0.00    -0.154 OA
ATOM     23  O   UNL     1       1.016  -1.760   0.000  0.00  0.00    -0.154 OA
ENDBRANCH   1  21
TORSDOF 3
