REMARK  Name = 
REMARK  6 active torsions:
REMARK  status: ('A' for Active; 'I' for Inactive)
REMARK    1  A    between atoms: N_1  and  C_4
REMARK    2  A    between atoms: C_11  and  C_22
REMARK    3  A    between atoms: C_12  and  C_17
REMARK    4  A    between atoms: SI_16  and  O_19
REMARK    5  A    between atoms: SI_16  and  C_20
REMARK    6  A    between atoms: C_17  and  O_19
REMARK                            x       y       z     vdW  Elec       q    Type
REMARK                         _______ _______ _______ _____ _____    ______ ____
ROOT
ATOM      1  N   UNL     1       1.137  -1.363   0.000  0.00  0.00    +0.000 N 
ATOM      2  C   UNL     1       0.650  -0.696   0.000  0.00  0.00    +0.000 A 
ATOM      3  N   UNL     1       1.137  -0.029   0.000  0.00  0.00    +0.000 NA
ATOM      4  C   UNL     1       1.921  -0.283   0.000  0.00  0.00    +0.000 A 
ATOM      5  C   UNL     1       2.638   0.129   0.000  0.00  0.00    +0.000 A 
ATOM      6  N   UNL     1       3.350  -0.283   0.000  0.00  0.00    +0.000 NA
ATOM      7  C   UNL     1       3.350  -1.108   0.000  0.00  0.00    +0.000 A 
ATOM      8  N   UNL     1       2.638  -1.521   0.000  0.00  0.00    +0.000 NA
ATOM      9  N   UNL     1       2.638   0.954   0.000  0.00  0.00    +0.000 NA
ATOM     10  C   UNL     1       1.921   1.367   0.000  0.00  0.00    +0.000 C 
ATOM     11  O   UNL     1       1.208   0.954   0.000  0.00  0.00    +0.000 OA
ATOM     12  C   UNL     1       1.921  -1.108   0.000  0.00  0.00    +0.000 A 
ENDROOT
BRANCH  10  13
ATOM     13  C   UNL     1       1.921   2.192   0.000  0.00  0.00    +0.000 A 
ATOM     14  C   UNL     1       2.638   2.604   0.000  0.00  0.00    +0.000 A 
ATOM     15  C   UNL     1       2.638   3.429   0.000  0.00  0.00    +0.000 A 
ATOM     16  C   UNL     1       1.921   3.842   0.000  0.00  0.00    +0.000 A 
ATOM     17  C   UNL     1       1.208   3.429   0.000  0.00  0.00    +0.000 A 
ATOM     18  C   UNL     1       1.208   2.604   0.000  0.00  0.00    +0.000 A 
ENDBRANCH  10  13
BRANCH   1  19
ATOM     19  C   UNL     1       0.883  -2.150   0.000  0.00  0.00    +0.000 C 
ATOM     20  C   UNL     1       1.367  -2.817   0.000  0.00  0.00    +0.000 C 
ATOM     21  C   UNL     1       0.883  -3.483   0.000  0.00  0.00    +0.000 C 
ATOM     22  C   UNL     1       0.096  -3.229   0.000  0.00  0.00    +0.000 C 
ATOM     23  O   UNL     1       1.137  -4.267   0.000  0.00  0.00    +0.000 OA
ATOM     24  O   UNL     1       0.096  -2.404   0.000  0.00  0.00    +0.000 OA
BRANCH  22  25
ATOM     25  C   UNL     1      -0.571  -3.712   0.000  0.00  0.00    +0.000 C 
BRANCH  25  26
ATOM     26  O   UNL     1      -0.483  -4.533   0.000  0.00  0.00    +0.000 OA
BRANCH  26  27
ATOM     27 SI   UNL     1      -1.150  -5.017   0.000  0.00  0.00    +0.000 Si
ATOM     28  C   UNL     1      -0.667  -5.688   0.000  0.00  0.00    +0.000 C 
ATOM     29  C   UNL     1      -1.637  -4.350   0.000  0.00  0.00    +0.000 C 
BRANCH  27  30
ATOM     30  C   UNL     1      -1.821  -5.504   0.000  0.00  0.00    +0.000 C 
ATOM     31  C   UNL     1      -2.304  -4.838   0.000  0.00  0.00    +0.000 C 
ATOM     32  C   UNL     1      -1.333  -6.171   0.000  0.00  0.00    +0.000 C 
ATOM     33  C   UNL     1      -2.487  -5.987   0.000  0.00  0.00    +0.000 C 
ENDBRANCH  27  30
ENDBRANCH  26  27
ENDBRANCH  25  26
ENDBRANCH  22  25
ENDBRANCH   1  19
TORSDOF 6
