REMARK  Name = 
REMARK  5 active torsions:
REMARK  status: ('A' for Active; 'I' for Inactive)
REMARK    1  A    between atoms: S_2  and  N_5
REMARK    2  A    between atoms: C_9  and  C_10
REMARK    3  A    between atoms: N_12  and  C_13
REMARK    4  A    between atoms: C_13  and  C_14
REMARK    5  A    between atoms: C_14  and  C_15
REMARK                            x       y       z     vdW  Elec       q    Type
REMARK                         _______ _______ _______ _____ _____    ______ ____
ROOT
ATOM      1  C   UNL     1       0.715  -2.888   0.000  0.00  0.00    +0.258 C 
ATOM      2  N   UNL     1       1.429  -2.475   0.000  0.00  0.00    -0.204 NA
ATOM      3  O   UNL     1       0.715  -3.712   0.000  0.00  0.00    -0.272 OA
ENDROOT
BRANCH   1   5
ATOM      4  N   UNL     1      -0.754  -2.811   0.000  0.00  0.00    -0.152 NA
ATOM      5  C   UNL     1       0.000  -2.475   0.000  0.00  0.00    +0.157 C 
ATOM      6  C   UNL     1      -0.086  -1.655   0.000  0.00  0.00    +0.029 C 
ATOM      7  C   UNL     1      -0.893  -1.483   0.000  0.00  0.00    +0.021 C 
ATOM      8  C   UNL     1      -1.306  -2.197   0.000  0.00  0.00    +0.096 C 
BRANCH   4  10
ATOM      9  C   UNL     1      -1.097  -4.425   0.000  0.00  0.00    +0.196 C 
ATOM     10  S   UNL     1      -0.925  -3.618   0.000  0.00  0.00    +0.046 S 
ATOM     11  O   UNL     1      -1.732  -3.446   0.000  0.00  0.00    -0.157 OA
ATOM     12  O   UNL     1      -0.118  -3.789   0.000  0.00  0.00    -0.157 OA
ENDBRANCH   4  10
ENDBRANCH   1   5
BRANCH   2  13
ATOM     13  C   UNL     1       2.143  -2.888   0.000  0.00  0.00    +0.120 C 
BRANCH  13  14
ATOM     14  C   UNL     1       2.858  -2.475   0.000  0.00  0.00    +0.051 C 
BRANCH  14  15
ATOM     15  C   UNL     1       3.572  -2.888   0.000  0.00  0.00    -0.001 A 
ATOM     16  C   UNL     1       3.572  -3.712   0.000  0.00  0.00    +0.095 A 
ATOM     17  N   UNL     1       4.287  -4.125   0.000  0.00  0.00    -0.243 NA
ATOM     18  C   UNL     1       5.001  -3.712   0.000  0.00  0.00    +0.099 A 
ATOM     19  C   UNL     1       5.001  -2.888   0.000  0.00  0.00    +0.020 A 
ATOM     20  C   UNL     1       4.287  -2.475   0.000  0.00  0.00    -0.001 A 
ENDBRANCH  14  15
ENDBRANCH  13  14
ENDBRANCH   2  13
TORSDOF 5
