REMARK  Name = 
REMARK  6 active torsions:
REMARK  status: ('A' for Active; 'I' for Inactive)
REMARK    1  A    between atoms: N_2  and  C_4
REMARK    2  A    between atoms: C_9  and  N_10
REMARK    3  A    between atoms: C_11  and  C_13
REMARK    4  A    between atoms: C_13  and  O_14
REMARK    5  A    between atoms: O_14  and  C_15
REMARK    6  A    between atoms: C_15  and  C_16
REMARK                            x       y       z     vdW  Elec       q    Type
REMARK                         _______ _______ _______ _____ _____    ______ ____
ROOT
ATOM      1  C   UNL     1       1.429   0.825   0.000  0.00  0.00    +0.147 A 
ATOM      2  C   UNL     1       2.143   0.412   0.000  0.00  0.00    +0.105 A 
ATOM      3  C   UNL     1       2.858   0.825   0.000  0.00  0.00    +0.021 A 
ATOM      4  C   UNL     1       2.858   1.650   0.000  0.00  0.00    +0.022 A 
ATOM      5  C   UNL     1       2.143   2.062   0.000  0.00  0.00    +0.100 A 
ATOM      6  N   UNL     1       1.429   1.650   0.000  0.00  0.00    -0.228 NA
ENDROOT
BRANCH   1   8
ATOM      7  C   UNL     1       0.000   0.825   0.000  0.00  0.00    +0.114 C 
ATOM      8  N   UNL     1       0.715   0.412   0.000  0.00  0.00    -0.289 N 
ATOM      9  C   UNL     1       0.715  -0.412   0.000  0.00  0.00    +0.114 C 
ENDBRANCH   1   8
BRANCH   2  10
ATOM     10  N   UNL     1       2.143  -0.412   0.000  0.00  0.00    -0.174 NA
ATOM     11  C   UNL     1       2.858  -0.825   0.000  0.00  0.00    +0.276 C 
ATOM     12  O   UNL     1       2.858  -1.650   0.000  0.00  0.00    -0.270 OA
BRANCH  11  13
ATOM     13  C   UNL     1       3.572  -0.412   0.000  0.00  0.00    +0.229 C 
BRANCH  13  14
ATOM     14  O   UNL     1       4.287  -0.825   0.000  0.00  0.00    -0.344 OA
BRANCH  14  15
ATOM     15  C   UNL     1       5.001  -0.412   0.000  0.00  0.00    +0.143 C 
BRANCH  15  16
ATOM     16  C   UNL     1       5.001   0.412   0.000  0.00  0.00    +0.030 C 
ATOM     17  C   UNL     1       5.414   1.127   0.000  0.00  0.00    +0.003 C 
ATOM     18  C   UNL     1       4.589   1.127   0.000  0.00  0.00    +0.003 C 
ENDBRANCH  15  16
ENDBRANCH  14  15
ENDBRANCH  13  14
ENDBRANCH  11  13
ENDBRANCH   2  10
TORSDOF 6
