REMARK  Name = 
REMARK  5 active torsions:
REMARK  status: ('A' for Active; 'I' for Inactive)
REMARK    1  A    between atoms: C_2  and  C_4
REMARK    2  A    between atoms: C_4  and  N_5
REMARK    3  A    between atoms: C_4  and  C_9
REMARK    4  A    between atoms: N_11  and  C_12
REMARK    5  A    between atoms: C_12  and  C_13
REMARK                            x       y       z     vdW  Elec       q    Type
REMARK                         _______ _______ _______ _____ _____    ______ ____
ROOT
ATOM      1  C   UNL     1       5.716  -6.600   0.000  0.00  0.00    +0.019 A 
ATOM      2  C   UNL     1       5.716  -7.425   0.000  0.00  0.00    +0.098 A 
ATOM      3  N   UNL     1       6.430  -7.838   0.000  0.00  0.00    -0.229 NA
ATOM      4  C   UNL     1       7.145  -7.425   0.000  0.00  0.00    +0.132 A 
ATOM      5  N   UNL     1       7.859  -7.838   0.000  0.00  0.00    -0.288 N 
ATOM      6  C   UNL     1       7.859  -8.662   0.000  0.00  0.00    +0.122 C 
ATOM      7  C   UNL     1       8.574  -9.075   0.000  0.00  0.00    +0.135 C 
ATOM      8  C   UNL     1       8.574  -9.900   0.000  0.00  0.00    +0.034 C 
ATOM      9  O   UNL     1       9.288  -8.662   0.000  0.00  0.00    -0.353 OA
ATOM     10  C   UNL     1       9.288  -7.838   0.000  0.00  0.00    +0.163 C 
ATOM     11  C   UNL     1       8.574  -7.425   0.000  0.00  0.00    +0.124 C 
ATOM     12  C   UNL     1       7.145  -6.600   0.000  0.00  0.00    +0.034 A 
ATOM     13  C   UNL     1       6.430  -6.188   0.000  0.00  0.00    +0.002 A 
ENDROOT
BRANCH   1  14
ATOM     14  C   UNL     1       5.001  -6.188   0.000  0.00  0.00    +0.143 C 
BRANCH  14  16
ATOM     15  C   UNL     1       3.572  -6.188   0.000  0.00  0.00    +0.262 C 
ATOM     16  N   UNL     1       4.287  -6.600   0.000  0.00  0.00    -0.199 NA
ATOM     17  O   UNL     1       3.572  -5.362   0.000  0.00  0.00    -0.271 OA
BRANCH  15  18
ATOM     18  C   UNL     1       2.858  -6.600   0.000  0.00  0.00    +0.173 C 
BRANCH  18  19
ATOM     19  N   UNL     1       2.143  -6.188   0.000  0.00  0.00    -0.198 NA
ATOM     20  C   UNL     1       1.429  -6.600   0.000  0.00  0.00    +0.242 C 
ATOM     21  C   UNL     1       1.429  -7.425   0.000  0.00  0.00    +0.096 C 
ATOM     22  O   UNL     1       0.715  -6.188   0.000  0.00  0.00    -0.273 OA
ENDBRANCH  18  19
BRANCH  18  24
ATOM     23  C   UNL     1       3.572  -7.838   0.000  0.00  0.00    +0.002 C 
ATOM     24  C   UNL     1       2.858  -7.425   0.000  0.00  0.00    +0.029 C 
ATOM     25  C   UNL     1       2.143  -7.838   0.000  0.00  0.00    +0.002 C 
ENDBRANCH  18  24
ENDBRANCH  15  18
ENDBRANCH  14  16
ENDBRANCH   1  14
TORSDOF 5
