REMARK  Name = 
REMARK  4 active torsions:
REMARK  status: ('A' for Active; 'I' for Inactive)
REMARK    1  A    between atoms: C_2  and  S_3
REMARK    2  A    between atoms: S_3  and  C_4
REMARK    3  A    between atoms: C_7  and  N_8
REMARK    4  A    between atoms: N_11  and  C_12
REMARK                            x       y       z     vdW  Elec       q    Type
REMARK                         _______ _______ _______ _____ _____    ______ ____
ROOT
ATOM      1  N   UNL     1      -2.143  -3.712   0.000  0.00  0.00    -0.159 NA
ATOM      2  C   UNL     1      -2.858  -4.125   0.000  0.00  0.00    +0.343 C 
ATOM      3  N   UNL     1      -2.858  -4.950   0.000  0.00  0.00    -0.189 NA
ATOM      4  O   UNL     1      -3.572  -3.712   0.000  0.00  0.00    -0.249 OA
ENDROOT
BRANCH   3   5
ATOM      5  C   UNL     1      -2.143  -5.362   0.000  0.00  0.00    +0.100 C 
ATOM      6  C   UNL     1      -2.143  -6.188   0.000  0.00  0.00    +0.039 C 
ATOM      7  C   UNL     1      -1.429  -6.600   0.000  0.00  0.00    +0.074 C 
ATOM      8  N   UNL     1      -0.715  -6.188   0.000  0.00  0.00    -0.271 NA
ATOM      9  C   UNL     1       0.000  -6.600   0.000  0.00  0.00    +0.090 C 
ATOM     10  C   UNL     1      -0.715  -5.362   0.000  0.00  0.00    +0.074 C 
ATOM     11  C   UNL     1      -1.429  -4.950   0.000  0.00  0.00    +0.039 C 
ENDBRANCH   3   5
BRANCH   1  15
ATOM     12  C   UNL     1      -2.143  -1.238   0.000  0.00  0.00    +0.107 A 
ATOM     13  N   UNL     1      -2.858  -1.650   0.000  0.00  0.00    -0.236 NA
ATOM     14  C   UNL     1      -2.858  -2.475   0.000  0.00  0.00    +0.116 A 
ATOM     15  C   UNL     1      -2.143  -2.888   0.000  0.00  0.00    +0.094 A 
ATOM     16  C   UNL     1      -1.429  -2.475   0.000  0.00  0.00    +0.020 A 
ATOM     17  C   UNL     1      -1.429  -1.650   0.000  0.00  0.00    +0.027 A 
BRANCH  12  18
ATOM     18  S   UNL     1      -2.143  -0.412   0.000  0.00  0.00    -0.095 S 
BRANCH  18  20
ATOM     19  C   UNL     1      -2.858   0.825   0.000  0.00  0.00    +0.013 C 
ATOM     20  C   UNL     1      -2.858   0.000   0.000  0.00  0.00    +0.064 C 
ENDBRANCH  18  20
ENDBRANCH  12  18
ENDBRANCH   1  15
TORSDOF 4
