REMARK  Name = 
REMARK  3 active torsions:
REMARK  status: ('A' for Active; 'I' for Inactive)
REMARK    1  A    between atoms: C_2  and  C_5
REMARK    2  A    between atoms: C_5  and  N_6
REMARK    3  A    between atoms: C_5  and  C_16
REMARK                            x       y       z     vdW  Elec       q    Type
REMARK                         _______ _______ _______ _____ _____    ______ ____
ROOT
ATOM      1  C   UNL     1       3.270  -1.760   0.000  0.00  0.00    +0.191 C 
ENDROOT
BRANCH   1   2
ATOM      2  N   UNL     1       4.095  -1.760   0.000  0.00  0.00    -0.180 NA
ATOM      3  C   UNL     1       4.508  -2.475   0.000  0.00  0.00    +0.345 C 
ATOM      4  N   UNL     1       5.333  -2.475   0.000  0.00  0.00    -0.140 NA
ATOM      5  C   UNL     1       5.745  -3.189   0.000  0.00  0.00    +0.177 A 
ATOM      6  N   UNL     1       5.333  -3.904   0.000  0.00  0.00    -0.131 NA
ATOM      7  N   UNL     1       5.745  -4.618   0.000  0.00  0.00    -0.145 NA
ATOM      8  C   UNL     1       6.570  -4.618   0.000  0.00  0.00    +0.122 A 
ATOM      9  C   UNL     1       6.983  -3.904   0.000  0.00  0.00    +0.025 A 
ATOM     10  C   UNL     1       6.570  -3.189   0.000  0.00  0.00    +0.040 A 
ATOM     11  O   UNL     1       4.095  -3.189   0.000  0.00  0.00    -0.249 OA
ENDBRANCH   1   2
BRANCH   1  12
ATOM     12  C   UNL     1       2.858  -1.046   0.000  0.00  0.00    +0.029 C 
ATOM     13  C   UNL     1       3.193  -0.292   0.000  0.00  0.00    +0.002 C 
ATOM     14  C   UNL     1       2.580   0.260   0.000  0.00  0.00    +0.000 C 
ATOM     15  C   UNL     1       1.866  -0.153   0.000  0.00  0.00    +0.000 C 
ATOM     16  C   UNL     1       2.037  -0.960   0.000  0.00  0.00    +0.002 C 
ENDBRANCH   1  12
BRANCH   1  18
ATOM     17  F   UNL     1       2.143  -2.062   0.000  0.00  0.00    -0.168 F 
ATOM     18  C   UNL     1       2.858  -2.475   0.000  0.00  0.00    +0.416 C 
ATOM     19  F   UNL     1       2.445  -3.189   0.000  0.00  0.00    -0.168 F 
ATOM     20  F   UNL     1       3.572  -2.888   0.000  0.00  0.00    -0.168 F 
ENDBRANCH   1  18
TORSDOF 3
