REMARK  Name = 
REMARK  6 active torsions:
REMARK  status: ('A' for Active; 'I' for Inactive)
REMARK    1  A    between atoms: O_2  and  C_3
REMARK    2  A    between atoms: C_3  and  C_4
REMARK    3  A    between atoms: C_4  and  N_5
REMARK    4  A    between atoms: C_7  and  C_12
REMARK    5  A    between atoms: N_14  and  C_15
REMARK    6  A    between atoms: N_18  and  C_21
REMARK                            x       y       z     vdW  Elec       q    Type
REMARK                         _______ _______ _______ _____ _____    ______ ____
ROOT
ATOM      1  C   UNL     1       2.858  -4.125   0.000  0.00  0.00    +0.284 C 
ATOM      2  N   UNL     1       3.572  -3.712   0.000  0.00  0.00    -0.202 NA
ATOM      3  O   UNL     1       2.858  -4.950   0.000  0.00  0.00    -0.267 OA
ENDROOT
BRANCH   1   9
ATOM      4  N   UNL     1       1.429  -2.475   0.000  0.00  0.00    -0.214 N 
ATOM      5  C   UNL     1       0.715  -2.888   0.000  0.00  0.00    +0.277 A 
ATOM      6  O   UNL     1       0.000  -2.475   0.000  0.00  0.00    -0.266 OA
ATOM      7  C   UNL     1       0.715  -3.712   0.000  0.00  0.00    +0.064 A 
ATOM      8  C   UNL     1       1.429  -4.125   0.000  0.00  0.00    +0.030 A 
ATOM      9  C   UNL     1       2.143  -3.712   0.000  0.00  0.00    +0.156 A 
ATOM     10  N   UNL     1       2.143  -2.888   0.000  0.00  0.00    -0.162 NA
BRANCH   4  11
ATOM     11  C   UNL     1       1.429  -1.650   0.000  0.00  0.00    +0.163 C 
BRANCH  11  12
ATOM     12  C   UNL     1       0.715  -1.238   0.000  0.00  0.00    +0.169 C 
BRANCH  12  14
ATOM     13  C   UNL     1       0.000   0.000   0.000  0.00  0.00    +0.174 C 
ATOM     14  O   UNL     1       0.715  -0.412   0.000  0.00  0.00    -0.349 OA
ENDBRANCH  12  14
ENDBRANCH  11  12
ENDBRANCH   4  11
ENDBRANCH   1   9
BRANCH   2  15
ATOM     15  C   UNL     1       4.287  -4.125   0.000  0.00  0.00    +0.098 C 
ATOM     16  C   UNL     1       4.287  -4.950   0.000  0.00  0.00    +0.039 C 
ATOM     17  C   UNL     1       5.001  -5.362   0.000  0.00  0.00    +0.074 C 
ATOM     18  N   UNL     1       5.716  -4.950   0.000  0.00  0.00    -0.274 NA
ATOM     19  C   UNL     1       5.716  -4.125   0.000  0.00  0.00    +0.074 C 
ATOM     20  C   UNL     1       5.001  -3.712   0.000  0.00  0.00    +0.039 C 
BRANCH  18  21
ATOM     21  C   UNL     1       6.430  -5.362   0.000  0.00  0.00    +0.058 C 
ATOM     22  C   UNL     1       6.430  -6.188   0.000  0.00  0.00    +0.017 C 
ATOM     23  C   UNL     1       7.145  -4.950   0.000  0.00  0.00    +0.017 C 
ENDBRANCH  18  21
ENDBRANCH   2  15
TORSDOF 6
