REMARK  Name = 
REMARK  6 active torsions:
REMARK  status: ('A' for Active; 'I' for Inactive)
REMARK    1  A    between atoms: C_2  and  O_3
REMARK    2  A    between atoms: C_2  and  C_9
REMARK    3  A    between atoms: O_3  and  C_4
REMARK    4  A    between atoms: C_4  and  C_5
REMARK    5  A    between atoms: N_11  and  C_12
REMARK    6  A    between atoms: C_12  and  C_13
REMARK                            x       y       z     vdW  Elec       q    Type
REMARK                         _______ _______ _______ _____ _____    ______ ____
ROOT
ATOM      1  C   UNL     1       4.287  -4.125   0.000  0.00  0.00    +0.142 C 
ENDROOT
BRANCH   1   2
ATOM      2  C   UNL     1       5.001  -3.712   0.000  0.00  0.00    +0.004 A 
ATOM      3  C   UNL     1       5.716  -4.125   0.000  0.00  0.00    +0.032 A 
ATOM      4  C   UNL     1       6.430  -3.712   0.000  0.00  0.00    +0.132 A 
ATOM      5  N   UNL     1       7.145  -4.125   0.000  0.00  0.00    -0.288 N 
ATOM      6  C   UNL     1       7.145  -4.950   0.000  0.00  0.00    +0.124 C 
ATOM      7  C   UNL     1       7.859  -5.362   0.000  0.00  0.00    +0.164 C 
ATOM      8  O   UNL     1       8.574  -4.950   0.000  0.00  0.00    -0.350 OA
ATOM      9  C   UNL     1       8.574  -4.125   0.000  0.00  0.00    +0.164 C 
ATOM     10  C   UNL     1       7.859  -3.712   0.000  0.00  0.00    +0.124 C 
ATOM     11  N   UNL     1       6.430  -2.888   0.000  0.00  0.00    -0.229 NA
ATOM     12  C   UNL     1       5.716  -2.475   0.000  0.00  0.00    +0.100 A 
ATOM     13  C   UNL     1       5.001  -2.888   0.000  0.00  0.00    +0.018 A 
ENDBRANCH   1   2
BRANCH   1  15
ATOM     14  C   UNL     1       2.858  -4.125   0.000  0.00  0.00    +0.269 C 
ATOM     15  N   UNL     1       3.572  -3.712   0.000  0.00  0.00    -0.199 NA
ATOM     16  O   UNL     1       2.858  -4.950   0.000  0.00  0.00    -0.271 OA
BRANCH  14  18
ATOM     17  C   UNL     1       2.143  -2.888   0.000  0.00  0.00    +0.042 C 
ATOM     18  C   UNL     1       2.143  -3.712   0.000  0.00  0.00    +0.193 C 
BRANCH  18  19
ATOM     19  O   UNL     1       1.429  -4.125   0.000  0.00  0.00    -0.339 OA
BRANCH  19  20
ATOM     20  C   UNL     1       0.715  -3.712   0.000  0.00  0.00    +0.246 C 
BRANCH  20  21
ATOM     21  C   UNL     1       0.000  -4.125   0.000  0.00  0.00    +0.425 C 
ATOM     22  F   UNL     1      -0.412  -3.410   0.000  0.00  0.00    -0.167 F 
ATOM     23  F   UNL     1       0.412  -4.840   0.000  0.00  0.00    -0.167 F 
ATOM     24  F   UNL     1      -0.715  -4.537   0.000  0.00  0.00    -0.167 F 
ENDBRANCH  20  21
ENDBRANCH  19  20
ENDBRANCH  18  19
ENDBRANCH  14  18
ENDBRANCH   1  15
TORSDOF 6
