REMARK  Name = 
REMARK  4 active torsions:
REMARK  status: ('A' for Active; 'I' for Inactive)
REMARK    1  A    between atoms: C_7  and  C_9
REMARK    2  A    between atoms: C_9  and  C_11
REMARK    3  A    between atoms: C_11  and  N_12
REMARK    4  A    between atoms: C_15  and  C_19
REMARK                            x       y       z     vdW  Elec       q    Type
REMARK                         _______ _______ _______ _____ _____    ______ ____
ROOT
ATOM      1  C   UNL     1       0.715   6.529   0.000  0.00  0.00    +0.148 C 
ENDROOT
BRANCH   1   2
ATOM      2  N   UNL     1       0.715   5.704   0.000  0.00  0.00    -0.275 N 
ATOM      3  C   UNL     1       0.000   5.292   0.000  0.00  0.00    +0.263 A 
ATOM      4  O   UNL     1      -0.715   5.704   0.000  0.00  0.00    -0.267 OA
ATOM      5  C   UNL     1       0.000   4.467   0.000  0.00  0.00    +0.075 A 
ATOM      6  C   UNL     1       0.715   4.054   0.000  0.00  0.00    +0.065 A 
ATOM      7  N   UNL     1       1.429   4.467   0.000  0.00  0.00    -0.230 NA
ATOM      8  C   UNL     1       1.429   5.292   0.000  0.00  0.00    +0.181 A 
BRANCH   6   9
ATOM      9  C   UNL     1       0.715   3.229   0.000  0.00  0.00    +0.040 C 
ATOM     10  C   UNL     1       0.131   2.646   0.000  0.00  0.00    +0.006 C 
ATOM     11  C   UNL     1       0.715   2.062   0.000  0.00  0.00    +0.001 C 
ATOM     12  C   UNL     1       1.298   2.646   0.000  0.00  0.00    +0.006 C 
ENDBRANCH   6   9
ENDBRANCH   1   2
BRANCH   1  13
ATOM     13  C   UNL     1       0.000   6.942   0.000  0.00  0.00    +0.197 C 
ATOM     14  O   UNL     1      -0.715   6.529   0.000  0.00  0.00    -0.216 OA
BRANCH  13  18
ATOM     15  C   UNL     1      -1.429   9.417   0.000  0.00  0.00    +0.031 C 
ATOM     16  C   UNL     1      -0.715   9.004   0.000  0.00  0.00    -0.022 A 
ATOM     17  C   UNL     1      -0.715   8.179   0.000  0.00  0.00    -0.006 A 
ATOM     18  C   UNL     1       0.000   7.767   0.000  0.00  0.00    +0.005 A 
ATOM     19  C   UNL     1       0.715   8.179   0.000  0.00  0.00    -0.023 A 
ATOM     20  C   UNL     1       1.429   7.767   0.000  0.00  0.00    +0.031 C 
ATOM     21  C   UNL     1       0.715   9.004   0.000  0.00  0.00    -0.005 A 
ATOM     22  C   UNL     1       0.000   9.417   0.000  0.00  0.00    -0.005 A 
ENDBRANCH  13  18
ENDBRANCH   1  13
TORSDOF 4
