REMARK  Name = 
REMARK  2 active torsions:
REMARK  status: ('A' for Active; 'I' for Inactive)
REMARK    1  A    between atoms: C_2  and  C_3
REMARK    2  A    between atoms: N_5  and  C_9
REMARK                            x       y       z     vdW  Elec       q    Type
REMARK                         _______ _______ _______ _____ _____    ______ ____
ROOT
ATOM      1  C   UNL     1       0.715  -1.238   0.000  0.00  0.00    +0.168 C 
ATOM      2  O   UNL     1       0.000  -1.650   0.000  0.00  0.00    -0.350 OA
ATOM      3  C   UNL     1       0.000  -2.475   0.000  0.00  0.00    +0.164 C 
ATOM      4  C   UNL     1       0.715  -2.888   0.000  0.00  0.00    +0.124 C 
ATOM      5  N   UNL     1       1.429  -2.475   0.000  0.00  0.00    -0.286 N 
ATOM      6  C   UNL     1       1.429  -1.650   0.000  0.00  0.00    +0.124 C 
ENDROOT
BRANCH   5   7
ATOM      7  C   UNL     1       2.143  -2.888   0.000  0.00  0.00    +0.160 A 
ATOM      8  C   UNL     1       2.143  -3.712   0.000  0.00  0.00    +0.172 A 
ATOM      9  F   UNL     1       1.429  -4.125   0.000  0.00  0.00    -0.201 F 
ATOM     10  C   UNL     1       2.858  -4.125   0.000  0.00  0.00    +0.045 A 
ATOM     11  C   UNL     1       3.572  -3.712   0.000  0.00  0.00    +0.079 A 
ATOM     12 CL   UNL     1       4.287  -4.125   0.000  0.00  0.00    -0.081 Cl
ATOM     13  C   UNL     1       3.572  -2.888   0.000  0.00  0.00    +0.112 A 
ATOM     14  N   UNL     1       2.858  -2.475   0.000  0.00  0.00    -0.226 NA
ENDBRANCH   5   7
BRANCH   1  16
ATOM     15  O   UNL     1       0.000   0.000   0.000  0.00  0.00    -0.218 OA
ATOM     16  C   UNL     1       0.715  -0.412   0.000  0.00  0.00    +0.213 C 
ENDBRANCH   1  16
TORSDOF 2
