REMARK  Name = 
REMARK  2 active torsions:
REMARK  status: ('A' for Active; 'I' for Inactive)
REMARK    1  A    between atoms: N_3  and  C_4
REMARK    2  A    between atoms: N_11  and  C_12
REMARK                            x       y       z     vdW  Elec       q    Type
REMARK                         _______ _______ _______ _____ _____    ______ ____
ROOT
ATOM      1  C   UNL     1       3.462  -9.123   0.000  0.00  0.00    +0.094 A 
ATOM      2  C   UNL     1       2.642  -9.210   0.000  0.00  0.00    +0.117 A 
ATOM      3  N   UNL     1       2.306  -9.963   0.000  0.00  0.00    -0.228 NA
ATOM      4  C   UNL     1       2.791 -10.631   0.000  0.00  0.00    +0.132 A 
ATOM      5  N   UNL     1       2.456 -11.384   0.000  0.00  0.00    -0.293 N 
ATOM      6  C   UNL     1       1.635 -11.471   0.000  0.00  0.00    +0.092 C 
ATOM      7  C   UNL     1       1.300 -12.224   0.000  0.00  0.00    +0.022 C 
ATOM      8  C   UNL     1       1.785 -12.892   0.000  0.00  0.00    +0.004 C 
ATOM      9  C   UNL     1       2.605 -12.806   0.000  0.00  0.00    +0.022 C 
ATOM     10  C   UNL     1       2.941 -12.052   0.000  0.00  0.00    +0.092 C 
ATOM     11  C   UNL     1       3.612 -10.544   0.000  0.00  0.00    +0.036 A 
ATOM     12  C   UNL     1       3.947  -9.791   0.000  0.00  0.00    +0.021 A 
ENDROOT
BRANCH   1  15
ATOM     13  O   UNL     1       2.493  -7.788   0.000  0.00  0.00    -0.249 OA
ATOM     14  C   UNL     1       3.313  -7.702   0.000  0.00  0.00    +0.344 C 
ATOM     15  N   UNL     1       3.798  -8.370   0.000  0.00  0.00    -0.159 NA
ATOM     16  N   UNL     1       3.649  -6.949   0.000  0.00  0.00    -0.187 NA
BRANCH  16  17
ATOM     17  C   UNL     1       3.164  -6.281   0.000  0.00  0.00    +0.122 C 
ATOM     18  C   UNL     1       3.419  -5.497   0.000  0.00  0.00    +0.172 C 
ATOM     19  S   UNL     1       2.751  -5.012   0.000  0.00  0.00    -0.008 S 
ATOM     20  O   UNL     1       3.303  -4.399   0.000  0.00  0.00    -0.173 OA
ATOM     21  O   UNL     1       2.199  -4.399   0.000  0.00  0.00    -0.173 OA
ATOM     22  C   UNL     1       2.084  -5.497   0.000  0.00  0.00    +0.153 C 
ATOM     23  C   UNL     1       2.339  -6.281   0.000  0.00  0.00    +0.049 C 
ENDBRANCH  16  17
ENDBRANCH   1  15
TORSDOF 2
