REMARK  Name = 
REMARK  5 active torsions:
REMARK  status: ('A' for Active; 'I' for Inactive)
REMARK    1  A    between atoms: C_2  and  C_3
REMARK    2  A    between atoms: C_8  and  N_9
REMARK    3  A    between atoms: N_12  and  C_13
REMARK    4  A    between atoms: C_13  and  C_14
REMARK    5  A    between atoms: C_14  and  C_15
REMARK                            x       y       z     vdW  Elec       q    Type
REMARK                         _______ _______ _______ _____ _____    ______ ____
ROOT
ATOM      1  N   UNL     1       2.143  -3.712   0.000  0.00  0.00    -0.158 NA
ATOM      2  C   UNL     1       2.858  -4.125   0.000  0.00  0.00    +0.344 C 
ATOM      3  N   UNL     1       3.572  -3.712   0.000  0.00  0.00    -0.187 NA
ATOM      4  O   UNL     1       2.858  -4.950   0.000  0.00  0.00    -0.249 OA
ENDROOT
BRANCH   1   6
ATOM      5  C   UNL     1       1.343  -4.946   0.000  0.00  0.00    +0.095 A 
ATOM      6  C   UNL     1       1.429  -4.125   0.000  0.00  0.00    +0.109 A 
ATOM      7  C   UNL     1       0.675  -3.789   0.000  0.00  0.00    +0.113 A 
ATOM      8  N   UNL     1       0.123  -4.402   0.000  0.00  0.00    -0.246 N 
ATOM      9  C   UNL     1      -0.697  -4.316   0.000  0.00  0.00    +0.154 C 
ATOM     10  N   UNL     1       0.536  -5.117   0.000  0.00  0.00    -0.172 NA
BRANCH   5  12
ATOM     11  C   UNL     1       1.784  -6.304   0.000  0.00  0.00    +0.007 C 
ATOM     12  C   UNL     1       1.956  -5.497   0.000  0.00  0.00    +0.049 C 
ENDBRANCH   5  12
ENDBRANCH   1   6
BRANCH   3  13
ATOM     13  C   UNL     1       4.287  -4.125   0.000  0.00  0.00    +0.119 C 
BRANCH  13  14
ATOM     14  C   UNL     1       5.001  -3.712   0.000  0.00  0.00    +0.053 C 
BRANCH  14  15
ATOM     15  C   UNL     1       5.716  -4.125   0.000  0.00  0.00    +0.117 C 
ATOM     16  O   UNL     1       5.716  -4.950   0.000  0.00  0.00    -0.356 OA
ATOM     17  C   UNL     1       6.430  -5.362   0.000  0.00  0.00    +0.142 C 
ATOM     18  C   UNL     1       7.145  -4.950   0.000  0.00  0.00    +0.032 C 
ATOM     19  C   UNL     1       7.145  -4.125   0.000  0.00  0.00    +0.005 C 
ATOM     20  C   UNL     1       6.430  -3.712   0.000  0.00  0.00    +0.030 C 
ENDBRANCH  14  15
ENDBRANCH  13  14
ENDBRANCH   3  13
TORSDOF 5
