REMARK  Name = 
REMARK  4 active torsions:
REMARK  status: ('A' for Active; 'I' for Inactive)
REMARK    1  A    between atoms: N_3  and  C_4
REMARK    2  A    between atoms: C_4  and  C_5
REMARK    3  A    between atoms: C_5  and  C_6
REMARK    4  A    between atoms: C_5  and  N_11
REMARK                            x       y       z     vdW  Elec       q    Type
REMARK                         _______ _______ _______ _____ _____    ______ ____
ROOT
ATOM      1  C   UNL     1       2.143  -3.712   0.000  0.00  0.00    +0.082 C 
ENDROOT
BRANCH   1   2
ATOM      2  N   UNL     1       1.429  -4.125   0.000  0.00  0.00    -0.268 NA
ATOM      3  C   UNL     1       0.715  -3.712   0.000  0.00  0.00    +0.105 C 
ATOM      4  C   UNL     1       0.000  -4.125   0.000  0.00  0.00    +0.159 C 
ATOM      5  O   UNL     1       0.000  -4.950   0.000  0.00  0.00    -0.351 OA
ATOM      6  C   UNL     1       0.715  -5.362   0.000  0.00  0.00    +0.159 C 
ATOM      7  C   UNL     1       1.429  -4.950   0.000  0.00  0.00    +0.105 C 
ENDBRANCH   1   2
BRANCH   1   8
ATOM      8  C   UNL     1       2.143  -2.888   0.000  0.00  0.00    +0.049 C 
ATOM      9  C   UNL     1       2.811  -2.403   0.000  0.00  0.00    +0.144 C 
ATOM     10  O   UNL     1       2.556  -1.618   0.000  0.00  0.00    -0.354 OA
ATOM     11  C   UNL     1       1.731  -1.618   0.000  0.00  0.00    +0.142 C 
ATOM     12  C   UNL     1       1.476  -2.403   0.000  0.00  0.00    +0.036 C 
ENDBRANCH   1   8
BRANCH   1  13
ATOM     13  C   UNL     1       2.858  -4.125   0.000  0.00  0.00    +0.133 C 
BRANCH  13  23
ATOM     14  O   UNL     1       4.287  -4.950   0.000  0.00  0.00    -0.249 OA
ATOM     15  C   UNL     1       4.287  -4.125   0.000  0.00  0.00    +0.345 C 
ATOM     16  N   UNL     1       5.001  -3.712   0.000  0.00  0.00    -0.142 NA
ATOM     17  C   UNL     1       5.716  -4.125   0.000  0.00  0.00    +0.156 A 
ATOM     18  N   UNL     1       5.716  -4.950   0.000  0.00  0.00    -0.227 NA
ATOM     19  C   UNL     1       6.430  -5.362   0.000  0.00  0.00    +0.100 A 
ATOM     20  C   UNL     1       7.145  -4.950   0.000  0.00  0.00    +0.021 A 
ATOM     21  C   UNL     1       7.145  -4.125   0.000  0.00  0.00    +0.005 A 
ATOM     22  C   UNL     1       6.430  -3.712   0.000  0.00  0.00    +0.036 A 
ATOM     23  N   UNL     1       3.572  -3.712   0.000  0.00  0.00    -0.185 NA
ENDBRANCH  13  23
ENDBRANCH   1  13
TORSDOF 4
