REMARK  Name = 
REMARK  4 active torsions:
REMARK  status: ('A' for Active; 'I' for Inactive)
REMARK    1  A    between atoms: C_2  and  C_4
REMARK    2  A    between atoms: C_6  and  C_7
REMARK    3  A    between atoms: C_7  and  C_8
REMARK    4  A    between atoms: N_10  and  C_11
REMARK                            x       y       z     vdW  Elec       q    Type
REMARK                         _______ _______ _______ _____ _____    ______ ____
ROOT
ATOM      1  C   UNL     1      -3.435   7.853   0.000  0.00  0.00    +0.087 A 
ATOM      2  S   UNL     1      -3.847   7.138   0.000  0.00  0.00    -0.071 S 
ATOM      3  C   UNL     1      -3.295   6.525   0.000  0.00  0.00    +0.052 A 
ATOM      4  C   UNL     1      -2.542   6.861   0.000  0.00  0.00    +0.075 A 
ATOM      5  N   UNL     1      -2.628   7.681   0.000  0.00  0.00    -0.247 NA
ENDROOT
BRANCH   1   7
ATOM      6  C   UNL     1      -4.591   8.693   0.000  0.00  0.00    +0.007 C 
ATOM      7  C   UNL     1      -3.770   8.607   0.000  0.00  0.00    +0.047 C 
ATOM      8  C   UNL     1      -3.285   9.274   0.000  0.00  0.00    +0.007 C 
ENDBRANCH   1   7
BRANCH   4   9
ATOM      9  C   UNL     1      -1.827   6.448   0.000  0.00  0.00    +0.133 C 
BRANCH   9  10
ATOM     10  C   UNL     1      -1.827   5.623   0.000  0.00  0.00    +0.247 C 
ATOM     11  N   UNL     1      -1.113   5.211   0.000  0.00  0.00    -0.207 NA
ATOM     12  O   UNL     1      -2.542   5.211   0.000  0.00  0.00    -0.273 OA
BRANCH  11  13
ATOM     13  C   UNL     1      -1.113   4.386   0.000  0.00  0.00    +0.095 C 
ATOM     14  C   UNL     1      -1.525   3.671   0.000  0.00  0.00    +0.023 C 
ATOM     15  C   UNL     1      -0.700   3.671   0.000  0.00  0.00    +0.023 C 
ENDBRANCH  11  13
ENDBRANCH   9  10
ENDBRANCH   4   9
TORSDOF 4
