REMARK  Name = 
REMARK  7 active torsions:
REMARK  status: ('A' for Active; 'I' for Inactive)
REMARK    1  A    between atoms: N_2  and  C_3
REMARK    2  A    between atoms: N_10  and  C_11
REMARK    3  A    between atoms: C_11  and  C_12
REMARK    4  A    between atoms: C_12  and  C_14
REMARK    5  A    between atoms: C_14  and  N_15
REMARK    6  A    between atoms: N_15  and  C_17
REMARK    7  A    between atoms: C_17  and  C_18
REMARK                            x       y       z     vdW  Elec       q    Type
REMARK                         _______ _______ _______ _____ _____    ______ ____
ROOT
ATOM      1  C   UNL     1       2.469  -1.040   0.000  0.00  0.00    +0.142 C 
ENDROOT
BRANCH   1   9
ATOM      2  C   UNL     1       2.220  -2.886   0.000  0.00  0.00    +0.168 A 
ATOM      3  C   UNL     1       1.668  -2.272   0.000  0.00  0.00    +0.131 A 
ATOM      4  C   UNL     1       0.861  -2.444   0.000  0.00  0.00    +0.184 A 
ATOM      5  N   UNL     1       0.448  -1.730   0.000  0.00  0.00    -0.205 NA
ATOM      6  C   UNL     1       1.000  -1.117   0.000  0.00  0.00    +0.180 A 
ATOM      7  N   UNL     1       0.606  -3.229   0.000  0.00  0.00    -0.203 NA
ATOM      8  C   UNL     1       1.158  -3.842   0.000  0.00  0.00    +0.202 A 
ATOM      9  N   UNL     1       1.754  -1.452   0.000  0.00  0.00    -0.303 N 
ATOM     10  N   UNL     1       1.965  -3.670   0.000  0.00  0.00    -0.206 NA
BRANCH   2  12
ATOM     11  C   UNL     1       3.579  -3.327   0.000  0.00  0.00    +0.137 C 
ATOM     12  N   UNL     1       3.027  -2.714   0.000  0.00  0.00    -0.217 NA
ENDBRANCH   2  12
ENDBRANCH   1   9
BRANCH   1  13
ATOM     13  C   UNL     1       3.183  -1.452   0.000  0.00  0.00    +0.190 C 
ATOM     14  O   UNL     1       3.183  -2.277   0.000  0.00  0.00    -0.220 OA
BRANCH  13  15
ATOM     15  C   UNL     1       3.897  -1.040   0.000  0.00  0.00    +0.108 C 
BRANCH  15  16
ATOM     16  N   UNL     1       4.612  -1.452   0.000  0.00  0.00    -0.266 NA
ATOM     17  C   UNL     1       4.612  -2.277   0.000  0.00  0.00    +0.090 C 
BRANCH  16  18
ATOM     18  C   UNL     1       5.326  -1.040   0.000  0.00  0.00    +0.099 C 
BRANCH  18  19
ATOM     19  C   UNL     1       6.041  -1.452   0.000  0.00  0.00    -0.006 A 
ATOM     20  C   UNL     1       6.041  -2.277   0.000  0.00  0.00    -0.003 A 
ATOM     21  C   UNL     1       6.755  -2.690   0.000  0.00  0.00    -0.000 A 
ATOM     22  C   UNL     1       7.470  -2.277   0.000  0.00  0.00    -0.000 A 
ATOM     23  C   UNL     1       7.470  -1.452   0.000  0.00  0.00    -0.000 A 
ATOM     24  C   UNL     1       6.755  -1.040   0.000  0.00  0.00    -0.003 A 
ENDBRANCH  18  19
ENDBRANCH  16  18
ENDBRANCH  15  16
ENDBRANCH  13  15
ENDBRANCH   1  13
TORSDOF 7
