REMARK  Name = 
REMARK  4 active torsions:
REMARK  status: ('A' for Active; 'I' for Inactive)
REMARK    1  A    between atoms: C_2  and  C_5
REMARK    2  A    between atoms: N_10  and  C_11
REMARK    3  A    between atoms: C_11  and  C_12
REMARK    4  A    between atoms: N_14  and  C_15
REMARK                            x       y       z     vdW  Elec       q    Type
REMARK                         _______ _______ _______ _____ _____    ______ ____
ROOT
ATOM      1  C   UNL     1       1.841   3.538   0.000  0.00  0.00    +0.089 A 
ATOM      2  C   UNL     1       2.556   3.126   0.000  0.00  0.00    +0.083 A 
ATOM      3  N   UNL     1       3.270   3.538   0.000  0.00  0.00    -0.285 N 
ATOM      4  C   UNL     1       3.270   4.363   0.000  0.00  0.00    +0.261 A 
ATOM      5  O   UNL     1       3.985   4.776   0.000  0.00  0.00    -0.267 OA
ATOM      6  C   UNL     1       2.556   4.776   0.000  0.00  0.00    +0.061 A 
ATOM      7  C   UNL     1       1.841   4.363   0.000  0.00  0.00    +0.010 A 
ENDROOT
BRANCH   1   9
ATOM      8  F   UNL     1       0.412   2.713   0.000  0.00  0.00    -0.166 F 
ATOM      9  C   UNL     1       1.127   3.126   0.000  0.00  0.00    +0.420 C 
ATOM     10  F   UNL     1       0.715   3.840   0.000  0.00  0.00    -0.166 F 
ATOM     11  F   UNL     1       1.540   2.411   0.000  0.00  0.00    -0.166 F 
ENDBRANCH   1   9
BRANCH   3  12
ATOM     12  C   UNL     1       3.985   3.126   0.000  0.00  0.00    +0.196 C 
BRANCH  12  13
ATOM     13  C   UNL     1       3.985   2.301   0.000  0.00  0.00    +0.264 C 
ATOM     14  N   UNL     1       4.699   1.888   0.000  0.00  0.00    -0.206 NA
ATOM     15  O   UNL     1       3.270   1.888   0.000  0.00  0.00    -0.271 OA
BRANCH  14  16
ATOM     16  C   UNL     1       4.699   1.063   0.000  0.00  0.00    +0.095 C 
ATOM     17  C   UNL     1       4.287   0.349   0.000  0.00  0.00    +0.023 C 
ATOM     18  C   UNL     1       5.112   0.349   0.000  0.00  0.00    +0.023 C 
ENDBRANCH  14  16
ENDBRANCH  12  13
ENDBRANCH   3  12
TORSDOF 4
