REMARK  Name = 
REMARK  5 active torsions:
REMARK  status: ('A' for Active; 'I' for Inactive)
REMARK    1  A    between atoms: C_2  and  C_3
REMARK    2  A    between atoms: C_5  and  C_6
REMARK    3  A    between atoms: C_6  and  C_7
REMARK    4  A    between atoms: C_7  and  N_8
REMARK    5  A    between atoms: C_9  and  C_11
REMARK                            x       y       z     vdW  Elec       q    Type
REMARK                         _______ _______ _______ _____ _____    ______ ____
ROOT
ATOM      1  C   UNL     1       1.387  -2.408   0.000  0.00  0.00    +0.076 C 
ENDROOT
BRANCH   1   6
ATOM      2  C   UNL     1      -0.221  -1.004   0.000  0.00  0.00    +0.061 A 
ATOM      3  C   UNL     1      -0.633  -1.718   0.000  0.00  0.00    +0.022 A 
ATOM      4  C   UNL     1      -1.454  -1.804   0.000  0.00  0.00    +0.039 C 
ATOM      5  S   UNL     1      -0.081  -2.331   0.000  0.00  0.00    -0.075 S 
ATOM      6  C   UNL     1       0.672  -1.996   0.000  0.00  0.00    +0.089 A 
ATOM      7  N   UNL     1       0.586  -1.175   0.000  0.00  0.00    -0.247 NA
BRANCH   2   9
ATOM      8  C   UNL     1      -1.377  -0.164   0.000  0.00  0.00    +0.007 C 
ATOM      9  C   UNL     1      -0.556  -0.250   0.000  0.00  0.00    +0.046 C 
ENDBRANCH   2   9
ENDBRANCH   1   6
BRANCH   1  10
ATOM     10  C   UNL     1       2.102  -1.996   0.000  0.00  0.00    +0.122 C 
BRANCH  10  11
ATOM     11  N   UNL     1       2.816  -2.408   0.000  0.00  0.00    -0.205 NA
ATOM     12  C   UNL     1       3.530  -1.996   0.000  0.00  0.00    +0.243 C 
ATOM     13  O   UNL     1       3.530  -1.171   0.000  0.00  0.00    -0.273 OA
BRANCH  12  14
ATOM     14  C   UNL     1       4.245  -2.408   0.000  0.00  0.00    +0.110 C 
ATOM     15  C   UNL     1       4.331  -3.229   0.000  0.00  0.00    +0.151 C 
ATOM     16  O   UNL     1       5.138  -3.400   0.000  0.00  0.00    -0.353 OA
ATOM     17  C   UNL     1       5.551  -2.686   0.000  0.00  0.00    +0.143 C 
ATOM     18  C   UNL     1       4.999  -2.073   0.000  0.00  0.00    +0.044 C 
ENDBRANCH  12  14
ENDBRANCH  10  11
ENDBRANCH   1  10
TORSDOF 5
