REMARK  Name = 
REMARK  1 active torsions:
REMARK  status: ('A' for Active; 'I' for Inactive)
REMARK    1  A    between atoms: C_5  and  C_12
REMARK                            x       y       z     vdW  Elec       q    Type
REMARK                         _______ _______ _______ _____ _____    ______ ____
ROOT
ATOM      1  N   UNL     1       0.714   3.473   0.000  0.00  0.00    -0.291 N 
ATOM      2  C   UNL     1       1.382   2.989   0.000  0.00  0.00    +0.092 C 
ATOM      3  C   UNL     1       1.127   2.204   0.000  0.00  0.00    +0.023 C 
ATOM      4  C   UNL     1       0.300   2.204   0.000  0.00  0.00    +0.024 C 
ATOM      5  C   UNL     1       0.046   2.989   0.000  0.00  0.00    +0.107 C 
ATOM      6  C   UNL     1       0.714   4.295   0.000  0.00  0.00    +0.153 A 
ATOM      7  C   UNL     1       1.428   4.708   0.000  0.00  0.00    +0.037 A 
ATOM      8  C   UNL     1       1.428   5.535   0.000  0.00  0.00    +0.019 A 
ATOM      9  C   UNL     1       0.714   5.948   0.000  0.00  0.00    +0.081 A 
ATOM     10  C   UNL     1       0.714   6.775   0.000  0.00  0.00    +0.054 C 
ATOM     11  N   UNL     1       0.000   5.535   0.000  0.00  0.00    -0.151 NA
ATOM     12  N   UNL     1       0.000   4.708   0.000  0.00  0.00    -0.133 NA
ENDROOT
BRANCH   5  13
ATOM     13  C   UNL     1      -0.743   3.243   0.000  0.00  0.00    +0.202 C 
ATOM     14  O   UNL     1      -1.357   2.692   0.000  0.00  0.00    -0.219 OA
ENDBRANCH   5  13
TORSDOF 1
