REMARK  Name = 
REMARK  3 active torsions:
REMARK  status: ('A' for Active; 'I' for Inactive)
REMARK    1  A    between atoms: N_12  and  C_13
REMARK    2  A    between atoms: C_13  and  C_14
REMARK    3  A    between atoms: C_14  and  N_17
REMARK                            x       y       z     vdW  Elec       q    Type
REMARK                         _______ _______ _______ _____ _____    ______ ____
ROOT
ATOM      1  C   UNL     1       2.858  -3.300   0.000  0.00  0.00    +0.114 C 
ATOM      2  N   UNL     1       2.143  -3.712   0.000  0.00  0.00    -0.290 N 
ATOM      3  C   UNL     1       2.143  -4.537   0.000  0.00  0.00    +0.136 A 
ATOM      4  N   UNL     1       1.429  -4.950   0.000  0.00  0.00    -0.197 NA
ATOM      5  C   UNL     1       1.429  -5.775   0.000  0.00  0.00    +0.246 A 
ATOM      6  N   UNL     1       0.715  -6.188   0.000  0.00  0.00    -0.125 NA
ATOM      7  C   UNL     1       0.715  -7.013   0.000  0.00  0.00    +0.346 C 
ATOM      8  N   UNL     1       0.000  -7.425   0.000  0.00  0.00    -0.185 NA
ATOM      9  O   UNL     1       1.429  -7.425   0.000  0.00  0.00    -0.249 OA
ATOM     10  N   UNL     1       2.143  -6.188   0.000  0.00  0.00    -0.210 NA
ATOM     11  C   UNL     1       2.858  -5.775   0.000  0.00  0.00    +0.105 A 
ATOM     12  C   UNL     1       2.858  -4.950   0.000  0.00  0.00    +0.055 A 
ATOM     13  C   UNL     1       1.429  -3.300   0.000  0.00  0.00    +0.114 C 
ENDROOT
BRANCH   8  14
ATOM     14  C   UNL     1       0.000  -8.250   0.000  0.00  0.00    +0.131 C 
BRANCH  14  15
ATOM     15  C   UNL     1      -0.715  -8.662   0.000  0.00  0.00    +0.066 C 
ATOM     16  C   UNL     1      -0.302  -9.377   0.000  0.00  0.00    +0.018 C 
ATOM     17  C   UNL     1      -1.127  -7.948   0.000  0.00  0.00    +0.018 C 
BRANCH  15  18
ATOM     18  N   UNL     1      -1.429  -9.075   0.000  0.00  0.00    -0.269 NA
ATOM     19  C   UNL     1      -2.143  -8.662   0.000  0.00  0.00    +0.105 C 
ATOM     20  C   UNL     1      -2.858  -9.075   0.000  0.00  0.00    +0.159 C 
ATOM     21  O   UNL     1      -2.858  -9.900   0.000  0.00  0.00    -0.351 OA
ATOM     22  C   UNL     1      -2.143 -10.312   0.000  0.00  0.00    +0.159 C 
ATOM     23  C   UNL     1      -1.429  -9.900   0.000  0.00  0.00    +0.105 C 
ENDBRANCH  15  18
ENDBRANCH  14  15
ENDBRANCH   8  14
TORSDOF 3
