REMARK  Name = 
REMARK  5 active torsions:
REMARK  status: ('A' for Active; 'I' for Inactive)
REMARK    1  A    between atoms: N_1  and  C_11
REMARK    2  A    between atoms: N_5  and  C_17
REMARK    3  A    between atoms: C_14  and  C_17
REMARK    4  A    between atoms: C_16  and  C_25
REMARK    5  A    between atoms: C_16  and  C_26
REMARK                            x       y       z     vdW  Elec       q    Type
REMARK                         _______ _______ _______ _____ _____    ______ ____
ROOT
ATOM      1  N   UNL     1       1.137  -1.362   0.000  0.00  0.00    -0.296 N 
ATOM      2  C   UNL     1       0.650  -0.696   0.000  0.00  0.00    +0.180 A 
ATOM      3  N   UNL     1       1.137  -0.029   0.000  0.00  0.00    -0.219 NA
ATOM      4  C   UNL     1       1.920  -0.283   0.000  0.00  0.00    +0.149 A 
ATOM      5  C   UNL     1       2.637   0.129   0.000  0.00  0.00    +0.156 A 
ATOM      6  N   UNL     1       3.349  -0.283   0.000  0.00  0.00    -0.207 NA
ATOM      7  C   UNL     1       3.349  -1.108   0.000  0.00  0.00    +0.201 A 
ATOM      8  N   UNL     1       2.637  -1.520   0.000  0.00  0.00    -0.205 NA
ATOM      9  N   UNL     1       2.637   0.954   0.000  0.00  0.00    -0.266 N 
ATOM     10  C   UNL     1       3.303   1.437   0.000  0.00  0.00    +0.180 C 
ATOM     11  C   UNL     1       3.049   2.224   0.000  0.00  0.00    +0.247 C 
ATOM     12  N   UNL     1       2.224   2.224   0.000  0.00  0.00    -0.253 N 
ATOM     13  O   UNL     1       3.533   2.891   0.000  0.00  0.00    -0.273 OA
ATOM     14  C   UNL     1       1.966   1.437   0.000  0.00  0.00    +0.192 C 
ATOM     15  C   UNL     1       1.920  -1.108   0.000  0.00  0.00    +0.167 A 
ENDROOT
BRANCH   1  16
ATOM     16  C   UNL     1       0.883  -2.150   0.000  0.00  0.00    +0.089 C 
ATOM     17  C   UNL     1       0.146  -2.520   0.000  0.00  0.00    +0.028 C 
ATOM     18  C   UNL     1       0.521  -3.257   0.000  0.00  0.00    +0.065 C 
ATOM     19  C   UNL     1       1.254  -2.883   0.000  0.00  0.00    +0.028 C 
BRANCH  18  20
ATOM     20  C   UNL     1      -0.212  -3.632   0.000  0.00  0.00    +0.185 C 
ATOM     21  O   UNL     1      -0.904  -3.183   0.000  0.00  0.00    -0.220 OA
ENDBRANCH  18  20
BRANCH  18  22
ATOM     22  C   UNL     1       0.896  -3.991   0.000  0.00  0.00    +0.185 C 
ATOM     23  O   UNL     1       1.720  -4.037   0.000  0.00  0.00    -0.220 OA
ENDBRANCH  18  22
ENDBRANCH   1  16
BRANCH  12  24
ATOM     24  C   UNL     1       1.737   2.891   0.000  0.00  0.00    +0.199 C 
BRANCH  24  25
ATOM     25  C   UNL     1       0.916   2.804   0.000  0.00  0.00    +0.416 C 
ATOM     26  F   UNL     1       1.004   1.983   0.000  0.00  0.00    -0.168 F 
ATOM     27  F   UNL     1       0.833   3.624   0.000  0.00  0.00    -0.168 F 
ATOM     28  F   UNL     1       0.096   2.716   0.000  0.00  0.00    -0.168 F 
ENDBRANCH  24  25
ENDBRANCH  12  24
TORSDOF 5
