REMARK  Name = 
REMARK  4 active torsions:
REMARK  status: ('A' for Active; 'I' for Inactive)
REMARK    1  A    between atoms: C_2  and  C_4
REMARK    2  A    between atoms: C_4  and  C_5
REMARK    3  A    between atoms: C_10  and  N_11
REMARK    4  A    between atoms: N_14  and  C_15
REMARK                            x       y       z     vdW  Elec       q    Type
REMARK                         _______ _______ _______ _____ _____    ______ ____
ROOT
ATOM      1  C   UNL     1      -2.225  -1.306   0.000  0.00  0.00    +0.081 A 
ATOM      2  C   UNL     1      -2.893  -1.791   0.000  0.00  0.00    +0.119 A 
ATOM      3  S   UNL     1      -2.638  -2.576   0.000  0.00  0.00    -0.055 S 
ATOM      4  C   UNL     1      -1.813  -2.576   0.000  0.00  0.00    +0.089 A 
ATOM      5  C   UNL     1      -1.328  -3.243   0.000  0.00  0.00    +0.059 C 
ATOM      6  N   UNL     1      -1.558  -1.791   0.000  0.00  0.00    -0.246 NA
ENDROOT
BRANCH   2   7
ATOM      7  N   UNL     1      -3.678  -1.536   0.000  0.00  0.00    -0.153 NA
ATOM      8  C   UNL     1      -4.291  -2.088   0.000  0.00  0.00    +0.344 C 
ATOM      9  N   UNL     1      -5.075  -1.833   0.000  0.00  0.00    -0.188 NA
ATOM     10  O   UNL     1      -4.119  -2.895   0.000  0.00  0.00    -0.249 OA
BRANCH   9  11
ATOM     11  C   UNL     1      -5.688  -2.385   0.000  0.00  0.00    +0.110 C 
ATOM     12  C   UNL     1      -6.403  -2.798   0.000  0.00  0.00    +0.162 C 
ATOM     13  O   UNL     1      -6.231  -3.605   0.000  0.00  0.00    -0.352 OA
ATOM     14  C   UNL     1      -5.411  -3.691   0.000  0.00  0.00    +0.144 C 
ATOM     15  C   UNL     1      -5.075  -2.938   0.000  0.00  0.00    +0.055 C 
ATOM     16  C   UNL     1      -6.173  -1.718   0.000  0.00  0.00    +0.024 C 
ENDBRANCH   9  11
ENDBRANCH   2   7
BRANCH   1  17
ATOM     17  C   UNL     1      -2.225  -0.481   0.000  0.00  0.00    +0.048 C 
BRANCH  17  19
ATOM     18  C   UNL     1      -1.511   0.756   0.000  0.00  0.00    +0.000 C 
ATOM     19  C   UNL     1      -1.511  -0.069   0.000  0.00  0.00    +0.006 C 
ATOM     20  C   UNL     1      -0.796  -0.481   0.000  0.00  0.00    +0.000 C 
ENDBRANCH  17  19
ENDBRANCH   1  17
TORSDOF 4
