REMARK  Name = 
REMARK  5 active torsions:
REMARK  status: ('A' for Active; 'I' for Inactive)
REMARK    1  A    between atoms: C_2  and  C_3
REMARK    2  A    between atoms: N_7  and  C_8
REMARK    3  A    between atoms: C_8  and  C_9
REMARK    4  A    between atoms: C_9  and  N_10
REMARK    5  A    between atoms: N_13  and  C_14
REMARK                            x       y       z     vdW  Elec       q    Type
REMARK                         _______ _______ _______ _____ _____    ______ ____
ROOT
ATOM      1  N   UNL     1       4.592  -2.952   0.000  0.00  0.00    -0.185 NA
ATOM      2  C   UNL     1       5.307  -3.364   0.000  0.00  0.00    +0.339 C 
ATOM      3  N   UNL     1       6.021  -2.952   0.000  0.00  0.00    -0.189 NA
ATOM      4  O   UNL     1       5.307  -4.189   0.000  0.00  0.00    -0.249 OA
ENDROOT
BRANCH   3   5
ATOM      5  C   UNL     1       6.736  -3.364   0.000  0.00  0.00    +0.097 C 
ATOM      6  C   UNL     1       6.822  -4.185   0.000  0.00  0.00    +0.019 C 
ATOM      7  C   UNL     1       6.017  -4.365   0.000  0.00  0.00    +0.002 C 
ATOM      8  C   UNL     1       6.559  -4.967   0.000  0.00  0.00    +0.002 C 
ATOM      9  C   UNL     1       7.629  -4.356   0.000  0.00  0.00    +0.002 C 
ATOM     10  C   UNL     1       8.041  -3.642   0.000  0.00  0.00    +0.002 C 
ATOM     11  C   UNL     1       7.489  -3.029   0.000  0.00  0.00    +0.022 C 
ENDBRANCH   3   5
BRANCH   1  12
ATOM     12  C   UNL     1       3.878  -3.364   0.000  0.00  0.00    +0.141 C 
BRANCH  12  13
ATOM     13  C   UNL     1       3.163  -2.952   0.000  0.00  0.00    +0.132 C 
BRANCH  13  15
ATOM     14  C   UNL     1       2.363  -4.185   0.000  0.00  0.00    +0.143 A 
ATOM     15  N   UNL     1       2.449  -3.364   0.000  0.00  0.00    -0.294 N 
ATOM     16  C   UNL     1       1.695  -3.029   0.000  0.00  0.00    +0.202 A 
ATOM     17  N   UNL     1       1.143  -3.642   0.000  0.00  0.00    -0.126 NA
ATOM     18  N   UNL     1       1.556  -4.356   0.000  0.00  0.00    -0.133 NA
BRANCH  14  20
ATOM     19  C   UNL     1       2.804  -5.544   0.000  0.00  0.00    +0.008 C 
ATOM     20  C   UNL     1       2.976  -4.737   0.000  0.00  0.00    +0.066 C 
ENDBRANCH  14  20
ENDBRANCH  13  15
ENDBRANCH  12  13
ENDBRANCH   1  12
TORSDOF 5
