REMARK  Name = 
REMARK  3 active torsions:
REMARK  status: ('A' for Active; 'I' for Inactive)
REMARK    1  A    between atoms: C_2  and  C_4
REMARK    2  A    between atoms: C_4  and  N_5
REMARK    3  A    between atoms: C_8  and  N_11
REMARK                            x       y       z     vdW  Elec       q    Type
REMARK                         _______ _______ _______ _____ _____    ______ ____
ROOT
ATOM      1  N   UNL     1      -0.107   8.065   0.000  0.00  0.00    -0.273 NA
ATOM      2  C   UNL     1      -0.107   7.240   0.000  0.00  0.00    +0.074 C 
ATOM      3  C   UNL     1       0.608   6.828   0.000  0.00  0.00    +0.039 C 
ATOM      4  C   UNL     1       1.322   7.240   0.000  0.00  0.00    +0.100 C 
ATOM      5  C   UNL     1       1.322   8.065   0.000  0.00  0.00    +0.039 C 
ATOM      6  C   UNL     1       0.608   8.478   0.000  0.00  0.00    +0.074 C 
ENDROOT
BRANCH   4   7
ATOM      7  N   UNL     1       2.037   6.828   0.000  0.00  0.00    -0.189 NA
ATOM      8  C   UNL     1       2.037   6.003   0.000  0.00  0.00    +0.345 C 
ATOM      9  N   UNL     1       2.751   5.590   0.000  0.00  0.00    -0.139 NA
ATOM     10  C   UNL     1       2.751   4.765   0.000  0.00  0.00    +0.197 A 
ATOM     11  N   UNL     1       2.084   4.280   0.000  0.00  0.00    -0.060 NA
ATOM     12  O   UNL     1       2.339   3.496   0.000  0.00  0.00    -0.356 OA
ATOM     13  C   UNL     1       3.164   3.496   0.000  0.00  0.00    +0.156 A 
ATOM     14  C   UNL     1       3.649   2.828   0.000  0.00  0.00    +0.075 C 
ATOM     15  C   UNL     1       3.419   4.280   0.000  0.00  0.00    +0.075 A 
ATOM     16  O   UNL     1       1.322   5.590   0.000  0.00  0.00    -0.249 OA
ENDBRANCH   4   7
BRANCH   1  17
ATOM     17  C   UNL     1      -0.821   8.478   0.000  0.00  0.00    +0.072 C 
BRANCH  17  19
ATOM     18  C   UNL     1      -2.250   8.478   0.000  0.00  0.00    +0.001 C 
ATOM     19  C   UNL     1      -1.536   8.065   0.000  0.00  0.00    +0.016 C 
ATOM     20  C   UNL     1      -1.536   7.240   0.000  0.00  0.00    +0.001 C 
ENDBRANCH  17  19
ENDBRANCH   1  17
TORSDOF 3
