REMARK  Name = 
REMARK  4 active torsions:
REMARK  status: ('A' for Active; 'I' for Inactive)
REMARK    1  A    between atoms: N_2  and  C_13
REMARK    2  A    between atoms: N_4  and  C_6
REMARK    3  A    between atoms: C_12  and  C_13
REMARK    4  A    between atoms: C_12  and  C_24
REMARK                            x       y       z     vdW  Elec       q    Type
REMARK                         _______ _______ _______ _____ _____    ______ ____
ROOT
ATOM      1  C   UNL     1      -1.004  -1.608   0.000  0.00  0.00    +0.149 A 
ATOM      2  C   UNL     1      -0.287  -1.196   0.000  0.00  0.00    +0.154 A 
ATOM      3  N   UNL     1       0.425  -1.608   0.000  0.00  0.00    -0.207 NA
ATOM      4  C   UNL     1       0.425  -2.433   0.000  0.00  0.00    +0.201 A 
ATOM      5  N   UNL     1      -0.287  -2.846   0.000  0.00  0.00    -0.205 NA
ATOM      6  N   UNL     1      -1.788  -1.350   0.000  0.00  0.00    -0.219 NA
ATOM      7  C   UNL     1      -2.275  -2.021   0.000  0.00  0.00    +0.180 A 
ATOM      8  N   UNL     1      -1.788  -2.688   0.000  0.00  0.00    -0.294 N 
ATOM      9  C   UNL     1      -1.004  -2.433   0.000  0.00  0.00    +0.167 A 
ENDROOT
BRANCH   2  10
ATOM     10  N   UNL     1      -0.287  -0.371   0.000  0.00  0.00    -0.287 N 
ATOM     11  C   UNL     1       0.425   0.042   0.000  0.00  0.00    +0.119 C 
ATOM     12  C   UNL     1       0.425   0.867   0.000  0.00  0.00    +0.111 C 
ATOM     13  O   UNL     1      -0.287   1.279   0.000  0.00  0.00    -0.357 OA
ATOM     14  C   UNL     1      -1.004   0.867   0.000  0.00  0.00    +0.140 C 
ATOM     15  C   UNL     1      -1.092   1.688   0.000  0.00  0.00    +0.171 C 
ATOM     16  O   UNL     1      -1.896   1.863   0.000  0.00  0.00    -0.351 OA
ATOM     17  C   UNL     1      -2.308   1.146   0.000  0.00  0.00    +0.145 C 
ATOM     18  C   UNL     1      -1.758   0.533   0.000  0.00  0.00    +0.063 C 
ATOM     19  C   UNL     1       1.238   0.725   0.000  0.00  0.00    +0.031 C 
ATOM     20  C   UNL     1       0.708   1.646   0.000  0.00  0.00    +0.031 C 
ATOM     21  C   UNL     1      -1.004   0.042   0.000  0.00  0.00    +0.122 C 
ENDBRANCH   2  10
BRANCH   8  22
ATOM     22  C   UNL     1      -2.042  -3.471   0.000  0.00  0.00    +0.116 C 
BRANCH  22  23
ATOM     23  C   UNL     1      -2.850  -3.642   0.000  0.00  0.00    +0.106 C 
ATOM     24  C   UNL     1      -2.679  -4.450   0.000  0.00  0.00    +0.149 C 
ATOM     25  O   UNL     1      -3.487  -4.621   0.000  0.00  0.00    -0.353 OA
ATOM     26  C   UNL     1      -3.658  -3.812   0.000  0.00  0.00    +0.149 C 
BRANCH  23  27
ATOM     27  C   UNL     1      -3.021  -2.837   0.000  0.00  0.00    +0.189 C 
ATOM     28  O   UNL     1      -3.808  -2.579   0.000  0.00  0.00    -0.220 OA
ENDBRANCH  23  27
ENDBRANCH  22  23
ENDBRANCH   8  22
TORSDOF 4
