REMARK  Name = 
REMARK  1 active torsions:
REMARK  status: ('A' for Active; 'I' for Inactive)
REMARK    1  A    between atoms: N_9  and  C_10
REMARK                            x       y       z     vdW  Elec       q    Type
REMARK                         _______ _______ _______ _____ _____    ______ ____
ROOT
ATOM      1  C   UNL     1       2.751  -1.712   0.000  0.00  0.00    +0.061 C 
ATOM      2  C   UNL     1       2.751  -2.537   0.000  0.00  0.00    +0.113 A 
ATOM      3  S   UNL     1       2.084  -3.022   0.000  0.00  0.00    -0.033 S 
ATOM      4  C   UNL     1       2.339  -3.806   0.000  0.00  0.00    +0.209 A 
ATOM      5  N   UNL     1       1.854  -4.474   0.000  0.00  0.00    -0.134 NA
ATOM      6  C   UNL     1       1.033  -4.387   0.000  0.00  0.00    +0.345 C 
ATOM      7  N   UNL     1       0.548  -5.055   0.000  0.00  0.00    -0.189 NA
ATOM      8  O   UNL     1       0.698  -3.634   0.000  0.00  0.00    -0.249 OA
ATOM      9  N   UNL     1       3.164  -3.806   0.000  0.00  0.00    -0.124 NA
ATOM     10  N   UNL     1       3.419  -3.022   0.000  0.00  0.00    -0.144 NA
ENDROOT
BRANCH   7  11
ATOM     11  C   UNL     1      -0.272  -4.969   0.000  0.00  0.00    +0.097 C 
ATOM     12  C   UNL     1      -0.608  -4.215   0.000  0.00  0.00    +0.024 C 
ATOM     13  C   UNL     1      -1.428  -4.129   0.000  0.00  0.00    +0.035 C 
ATOM     14  C   UNL     1      -1.913  -4.796   0.000  0.00  0.00    +0.152 C 
ATOM     15  O   UNL     1      -2.734  -4.710   0.000  0.00  0.00    -0.223 OA
ATOM     16  C   UNL     1      -1.577  -5.550   0.000  0.00  0.00    +0.035 C 
ATOM     17  C   UNL     1      -0.757  -5.636   0.000  0.00  0.00    +0.024 C 
ENDBRANCH   7  11
TORSDOF 1
