REMARK  Name = 
REMARK  4 active torsions:
REMARK  status: ('A' for Active; 'I' for Inactive)
REMARK    1  A    between atoms: C_5  and  C_6
REMARK    2  A    between atoms: C_6  and  C_7
REMARK    3  A    between atoms: C_7  and  N_8
REMARK    4  A    between atoms: N_8  and  C_9
REMARK                            x       y       z     vdW  Elec       q    Type
REMARK                         _______ _______ _______ _____ _____    ______ ____
ROOT
ATOM      1  C   UNL     1       1.877  -3.462   0.000  0.00  0.00    +0.098 C 
ENDROOT
BRANCH   1   2
ATOM      2  C   UNL     1       2.697  -3.548   0.000  0.00  0.00    +0.107 C 
BRANCH   2   6
ATOM      3  C   UNL     1       3.595  -0.786   0.000  0.00  0.00    +0.077 C 
ATOM      4  C   UNL     1       3.595  -1.611   0.000  0.00  0.00    +0.181 A 
ATOM      5  N   UNL     1       2.928  -2.096   0.000  0.00  0.00    -0.195 NA
ATOM      6  C   UNL     1       3.182  -2.881   0.000  0.00  0.00    +0.238 A 
ATOM      7  O   UNL     1       4.007  -2.881   0.000  0.00  0.00    -0.337 OA
ATOM      8  N   UNL     1       4.262  -2.096   0.000  0.00  0.00    -0.061 NA
ENDBRANCH   2   6
ENDBRANCH   1   2
BRANCH   1   9
ATOM      9  N   UNL     1       1.392  -4.130   0.000  0.00  0.00    -0.219 NA
BRANCH   9  10
ATOM     10  C   UNL     1       0.572  -4.043   0.000  0.00  0.00    +0.073 C 
ATOM     11  C   UNL     1       0.159  -3.329   0.000  0.00  0.00    +0.015 C 
ATOM     12  C   UNL     1       0.821  -2.837   0.000  0.00  0.00    +0.001 C 
ATOM     13  C   UNL     1       0.081  -2.507   0.000  0.00  0.00    +0.001 C 
ATOM     14  C   UNL     1      -0.648  -3.500   0.000  0.00  0.00    +0.001 C 
ATOM     15  C   UNL     1      -0.734  -4.321   0.000  0.00  0.00    +0.001 C 
ATOM     16  C   UNL     1       0.020  -4.656   0.000  0.00  0.00    +0.017 C 
ENDBRANCH   9  10
ENDBRANCH   1   9
TORSDOF 4
