REMARK  Name = 
REMARK  1 active torsions:
REMARK  status: ('A' for Active; 'I' for Inactive)
REMARK    1  A    between atoms: C_11  and  C_15
REMARK                            x       y       z     vdW  Elec       q    Type
REMARK                         _______ _______ _______ _____ _____    ______ ____
ROOT
ATOM      1 CL   UNL     1       0.000   0.000   0.000  0.00  0.00    +0.000 Cl
ENDROOT
TORSDOF 0
REMARK  Name = 
REMARK  1 active torsions:
REMARK  status: ('A' for Active; 'I' for Inactive)
REMARK    1  A    between atoms: C_11  and  C_15
REMARK                            x       y       z     vdW  Elec       q    Type
REMARK                         _______ _______ _______ _____ _____    ______ ____
ROOT
ATOM      1  C   UNL     1       3.072   2.062   0.000  0.00  0.00    +0.034 C 
ATOM      2  C   UNL     1       3.072   1.238   0.000  0.00  0.00    +0.135 C 
ATOM      3  O   UNL     1       2.357   0.825   0.000  0.00  0.00    -0.353 OA
ATOM      4  C   UNL     1       2.357   0.000   0.000  0.00  0.00    +0.163 C 
ATOM      5  C   UNL     1       3.072  -0.412   0.000  0.00  0.00    +0.124 C 
ATOM      6  N   UNL     1       3.786   0.000   0.000  0.00  0.00    -0.288 N 
ATOM      7  C   UNL     1       4.501  -0.412   0.000  0.00  0.00    +0.132 A 
ATOM      8  N   UNL     1       4.501  -1.238   0.000  0.00  0.00    -0.229 NA
ATOM      9  C   UNL     1       5.215  -1.650   0.000  0.00  0.00    +0.101 A 
ATOM     10  C   UNL     1       5.929  -1.238   0.000  0.00  0.00    +0.027 A 
ATOM     11  C   UNL     1       5.929  -0.412   0.000  0.00  0.00    +0.084 A 
ATOM     12  C   UNL     1       5.215   0.000   0.000  0.00  0.00    +0.041 A 
ATOM     13  C   UNL     1       3.786   0.825   0.000  0.00  0.00    +0.122 C 
ENDROOT
BRANCH  11  14
ATOM     14  C   UNL     1       6.644   0.000   0.000  0.00  0.00    +0.388 C 
ATOM     15  O   UNL     1       7.358  -0.412   0.000  0.00  0.00    -0.241 OA
ATOM     16  O   UNL     1       6.644   0.825   0.000  0.00  0.00    -0.241 OA
ENDBRANCH  11  14
TORSDOF 1
