REMARK  Name = 
REMARK  1 active torsions:
REMARK  status: ('A' for Active; 'I' for Inactive)
REMARK    1  A    between atoms: C_6  and  N_7
REMARK                            x       y       z     vdW  Elec       q    Type
REMARK                         _______ _______ _______ _____ _____    ______ ____
ROOT
ATOM      1 CL   UNL     1       0.000   0.000   0.000  0.00  0.00    +0.000 Cl
ENDROOT
TORSDOF 0
REMARK  Name = 
REMARK  1 active torsions:
REMARK  status: ('A' for Active; 'I' for Inactive)
REMARK    1  A    between atoms: C_6  and  N_7
REMARK                            x       y       z     vdW  Elec       q    Type
REMARK                         _______ _______ _______ _____ _____    ______ ____
ROOT
ATOM      1 CL   UNL     1       2.003   0.000   0.000  0.00  0.00    +0.000 Cl
ENDROOT
TORSDOF 0
REMARK  Name = 
REMARK  1 active torsions:
REMARK  status: ('A' for Active; 'I' for Inactive)
REMARK    1  A    between atoms: C_6  and  N_7
REMARK                            x       y       z     vdW  Elec       q    Type
REMARK                         _______ _______ _______ _____ _____    ______ ____
ROOT
ATOM      1  N   UNL     1       0.000  -2.919   0.000  0.00  0.00    -0.229 N 
ATOM      2  N   UNL     1       0.667  -2.434   0.000  0.00  0.00    -0.145 NA
ATOM      3  C   UNL     1       0.412  -1.650   0.000  0.00  0.00    +0.221 A 
ATOM      4  N   UNL     1      -0.412  -1.650   0.000  0.00  0.00    -0.201 NA
ATOM      5  C   UNL     1      -0.667  -2.434   0.000  0.00  0.00    +0.197 A 
ENDROOT
BRANCH   1   7
ATOM      6  C   UNL     1       0.583  -4.328   0.000  0.00  0.00    +0.115 C 
ATOM      7  C   UNL     1       0.000  -3.744   0.000  0.00  0.00    +0.142 C 
ATOM      8  C   UNL     1      -0.583  -4.328   0.000  0.00  0.00    +0.115 C 
ATOM      9  N   UNL     1       0.000  -4.911   0.000  0.00  0.00    -0.214 NA
ENDBRANCH   1   7
TORSDOF 1
