REMARK  Name = 
REMARK  4 active torsions:
REMARK  status: ('A' for Active; 'I' for Inactive)
REMARK    1  A    between atoms: C_2  and  O_3
REMARK    2  A    between atoms: O_3  and  C_4
REMARK    3  A    between atoms: C_8  and  N_9
REMARK    4  A    between atoms: C_10  and  C_12
REMARK                            x       y       z     vdW  Elec       q    Type
REMARK                         _______ _______ _______ _____ _____    ______ ____
ROOT
ATOM      1  C   UNL     1       2.037   6.828   0.000  0.00  0.00    +0.226 A 
ATOM      2  N   UNL     1       2.037   6.003   0.000  0.00  0.00    -0.195 NA
ATOM      3  C   UNL     1       2.751   5.590   0.000  0.00  0.00    +0.158 A 
ATOM      4  C   UNL     1       3.466   6.003   0.000  0.00  0.00    +0.036 A 
ATOM      5  C   UNL     1       3.466   6.828   0.000  0.00  0.00    +0.008 A 
ATOM      6  C   UNL     1       2.751   7.240   0.000  0.00  0.00    +0.058 A 
ENDROOT
BRANCH   3   7
ATOM      7  N   UNL     1       2.751   4.765   0.000  0.00  0.00    -0.158 NA
ATOM      8  C   UNL     1       3.466   4.353   0.000  0.00  0.00    +0.274 C 
ATOM      9  O   UNL     1       4.180   4.765   0.000  0.00  0.00    -0.270 OA
BRANCH   8  10
ATOM     10  C   UNL     1       3.466   3.528   0.000  0.00  0.00    +0.193 C 
ATOM     11  O   UNL     1       2.798   3.043   0.000  0.00  0.00    -0.347 OA
ATOM     12  C   UNL     1       3.053   2.258   0.000  0.00  0.00    +0.143 C 
ATOM     13  C   UNL     1       3.878   2.258   0.000  0.00  0.00    +0.035 C 
ATOM     14  C   UNL     1       4.133   3.043   0.000  0.00  0.00    +0.042 C 
ENDBRANCH   8  10
ENDBRANCH   3   7
BRANCH   1  15
ATOM     15  O   UNL     1       1.322   7.240   0.000  0.00  0.00    -0.460 OA
BRANCH  15  17
ATOM     16  C   UNL     1       0.608   8.478   0.000  0.00  0.00    +0.051 C 
ATOM     17  C   UNL     1       1.322   8.065   0.000  0.00  0.00    +0.207 C 
ENDBRANCH  15  17
ENDBRANCH   1  15
TORSDOF 4
