REMARK  Name = 
REMARK  2 active torsions:
REMARK  status: ('A' for Active; 'I' for Inactive)
REMARK    1  A    between atoms: N_1  and  C1*_6
REMARK    2  A    between atoms: C4*_11  and  C5*_18
REMARK                            x       y       z     vdW  Elec       q    Type
REMARK                         _______ _______ _______ _____ _____    ______ ____
ROOT
ATOM      1  N   UNL     1       1.779  -0.254   0.000  0.00  0.00    -0.268 N 
ATOM      2  C   UNL     1       2.562   0.000   0.000  0.00  0.00    +0.169 A 
ATOM      3  N   UNL     1       3.275  -0.412   0.000  0.00  0.00    -0.205 NA
ATOM      4  C   UNL     1       3.992   0.000   0.000  0.00  0.00    +0.202 A 
ATOM      5  N   UNL     1       3.992   0.825   0.000  0.00  0.00    -0.204 NA
ATOM      6  C   UNL     1       3.275   1.238   0.000  0.00  0.00    +0.192 A 
ATOM      7  N   UNL     1       3.275   2.062   0.000  0.00  0.00    -0.105 NA
ATOM      8  C   UNL     1       2.562   0.825   0.000  0.00  0.00    +0.152 A 
ATOM      9  N   UNL     1       1.779   1.083   0.000  0.00  0.00    -0.216 NA
ATOM     10  C   UNL     1       1.292   0.412   0.000  0.00  0.00    +0.182 A 
ATOM     11 BR   UNL     1       0.467   0.412   0.000  0.00  0.00    -0.008 Br
ENDROOT
BRANCH   1  12
ATOM     12  C1* UNL     1       1.521  -1.038   0.000  0.00  0.00    +0.210 C 
ATOM     13  C2* UNL     1       2.008  -1.704   0.000  0.00  0.00    +0.089 C 
ATOM     14  C3* UNL     1       1.521  -2.371   0.000  0.00  0.00    +0.186 C 
ATOM     15  C4* UNL     1       0.738  -2.117   0.000  0.00  0.00    +0.180 C 
ATOM     16  O3* UNL     1       1.779  -3.158   0.000  0.00  0.00    -0.220 OA
ATOM     17  O4* UNL     1       0.738  -1.292   0.000  0.00  0.00    -0.332 OA
BRANCH  15  18
ATOM     18  C5* UNL     1       0.071  -2.604   0.000  0.00  0.00    +0.214 C 
ATOM     19  O5* UNL     1       0.158  -3.421   0.000  0.00  0.00    -0.218 OA
ENDBRANCH  15  18
ENDBRANCH   1  12
TORSDOF 2
