REMARK  Name = 
REMARK  3 active torsions:
REMARK  status: ('A' for Active; 'I' for Inactive)
REMARK    1  A    between atoms: C_8  and  C_9
REMARK    2  A    between atoms: C_9  and  C_10
REMARK    3  A    between atoms: C_10  and  C_11
REMARK                            x       y       z     vdW  Elec       q    Type
REMARK                         _______ _______ _______ _____ _____    ______ ____
ROOT
ATOM      1  C   UNL     1       0.715  -0.412   0.000  0.00  0.00    +0.052 C 
ATOM      2  C   UNL     1       0.715  -1.238   0.000  0.00  0.00    +0.063 A 
ATOM      3  C   UNL     1       0.000  -1.650   0.000  0.00  0.00    +0.050 A 
ATOM      4  C   UNL     1       0.000  -2.475   0.000  0.00  0.00    +0.279 A 
ATOM      5  O   UNL     1      -0.715  -2.888   0.000  0.00  0.00    -0.265 OA
ATOM      6  N   UNL     1       0.715  -2.888   0.000  0.00  0.00    -0.175 NA
ATOM      7  C   UNL     1       1.429  -2.475   0.000  0.00  0.00    +0.223 A 
ATOM      8  N   UNL     1       2.143  -2.888   0.000  0.00  0.00    -0.273 N 
ATOM      9  C   UNL     1       2.143  -3.712   0.000  0.00  0.00    +0.126 C 
ATOM     10  C   UNL     1       2.858  -4.125   0.000  0.00  0.00    +0.164 C 
ATOM     11  O   UNL     1       3.572  -3.712   0.000  0.00  0.00    -0.350 OA
ATOM     12  C   UNL     1       3.572  -2.888   0.000  0.00  0.00    +0.164 C 
ATOM     13  C   UNL     1       2.858  -2.475   0.000  0.00  0.00    +0.126 C 
ATOM     14  N   UNL     1       1.429  -1.650   0.000  0.00  0.00    -0.218 NA
ENDROOT
BRANCH   3  15
ATOM     15  C   UNL     1      -0.715  -1.238   0.000  0.00  0.00    +0.044 C 
BRANCH  15  16
ATOM     16  C   UNL     1      -0.715  -0.412   0.000  0.00  0.00    +0.119 C 
BRANCH  16  17
ATOM     17  C   UNL     1      -1.429   0.000   0.000  0.00  0.00    +0.365 C 
ATOM     18  O   UNL     1      -2.143  -0.412   0.000  0.00  0.00    -0.246 OA
ATOM     19  O   UNL     1      -1.429   0.825   0.000  0.00  0.00    -0.246 OA
ENDBRANCH  16  17
ENDBRANCH  15  16
ENDBRANCH   3  15
TORSDOF 3
