REMARK  Name = 
REMARK  3 active torsions:
REMARK  status: ('A' for Active; 'I' for Inactive)
REMARK    1  A    between atoms: C_6  and  N_7
REMARK    2  A    between atoms: N_10  and  C_11
REMARK    3  A    between atoms: C_13  and  C_14
REMARK                            x       y       z     vdW  Elec       q    Type
REMARK                         _______ _______ _______ _____ _____    ______ ____
ROOT
ATOM      1  N   UNL     1       4.180   3.238   0.000  0.00  0.00    -0.142 NA
ATOM      2  C   UNL     1       4.180   2.413   0.000  0.00  0.00    +0.345 C 
ATOM      3  N   UNL     1       4.895   2.001   0.000  0.00  0.00    -0.184 NA
ATOM      4  O   UNL     1       3.466   2.001   0.000  0.00  0.00    -0.249 OA
ENDROOT
BRANCH   1   8
ATOM      5  C   UNL     1       1.322   3.238   0.000  0.00  0.00    +0.052 C 
ATOM      6  C   UNL     1       2.037   3.651   0.000  0.00  0.00    +0.061 A 
ATOM      7  N   UNL     1       2.751   3.238   0.000  0.00  0.00    -0.233 NA
ATOM      8  C   UNL     1       3.466   3.651   0.000  0.00  0.00    +0.156 A 
ATOM      9  C   UNL     1       3.466   4.476   0.000  0.00  0.00    +0.036 A 
ATOM     10  C   UNL     1       2.751   4.888   0.000  0.00  0.00    +0.004 A 
ATOM     11  C   UNL     1       2.037   4.476   0.000  0.00  0.00    +0.015 A 
ENDBRANCH   1   8
BRANCH   3  12
ATOM     12  C   UNL     1       4.895   1.176   0.000  0.00  0.00    +0.119 C 
ATOM     13  C   UNL     1       4.227   0.691   0.000  0.00  0.00    -0.009 C 
ATOM     14  C   UNL     1       4.482  -0.094   0.000  0.00  0.00    -0.027 C 
ATOM     15  C   UNL     1       5.307  -0.094   0.000  0.00  0.00    +0.057 C 
ATOM     16  C   UNL     1       5.562   0.691   0.000  0.00  0.00    +0.033 C 
BRANCH  15  17
ATOM     17  C   UNL     1       5.792  -0.761   0.000  0.00  0.00    +0.186 C 
ATOM     18  O   UNL     1       6.612  -0.675   0.000  0.00  0.00    -0.220 OA
ENDBRANCH  15  17
ENDBRANCH   3  12
TORSDOF 3
