REMARK  Name = 
REMARK  5 active torsions:
REMARK  status: ('A' for Active; 'I' for Inactive)
REMARK    1  A    between atoms: C_2  and  C_3
REMARK    2  A    between atoms: C_3  and  N_4
REMARK    3  A    between atoms: N_4  and  C_5
REMARK    4  A    between atoms: C_5  and  C_6
REMARK    5  A    between atoms: C_10  and  N_14
REMARK                            x       y       z     vdW  Elec       q    Type
REMARK                         _______ _______ _______ _____ _____    ______ ____
ROOT
ATOM      1  N   UNL     1      -0.715  -5.362   0.000  0.00  0.00    -0.286 N 
ATOM      2  C   UNL     1      -0.715  -6.188   0.000  0.00  0.00    +0.137 A 
ATOM      3  N   UNL     1      -1.429  -6.600   0.000  0.00  0.00    -0.209 NA
ATOM      4  C   UNL     1      -1.429  -7.425   0.000  0.00  0.00    +0.201 A 
ATOM      5  N   UNL     1      -0.715  -7.838   0.000  0.00  0.00    -0.209 NA
ATOM      6  C   UNL     1       0.000  -7.425   0.000  0.00  0.00    +0.136 A 
ATOM      7  C   UNL     1       0.000  -6.600   0.000  0.00  0.00    +0.069 A 
ENDROOT
BRANCH   6   8
ATOM      8  N   UNL     1       0.715  -7.838   0.000  0.00  0.00    -0.288 N 
ATOM      9  C   UNL     1       0.715  -8.662   0.000  0.00  0.00    +0.124 C 
ATOM     10  C   UNL     1       1.429  -9.075   0.000  0.00  0.00    +0.164 C 
ATOM     11  O   UNL     1       2.143  -8.662   0.000  0.00  0.00    -0.350 OA
ATOM     12  C   UNL     1       2.143  -7.838   0.000  0.00  0.00    +0.164 C 
ATOM     13  C   UNL     1       1.429  -7.425   0.000  0.00  0.00    +0.124 C 
ENDBRANCH   6   8
BRANCH   1  14
ATOM     14  C   UNL     1      -1.429  -4.950   0.000  0.00  0.00    +0.128 C 
BRANCH  14  16
ATOM     15  O   UNL     1      -2.143  -3.712   0.000  0.00  0.00    -0.219 OA
ATOM     16  C   UNL     1      -1.429  -4.125   0.000  0.00  0.00    +0.203 C 
ENDBRANCH  14  16
ENDBRANCH   1  14
BRANCH   1  17
ATOM     17  C   UNL     1       0.000  -4.950   0.000  0.00  0.00    +0.119 C 
BRANCH  17  18
ATOM     18  C   UNL     1       0.000  -4.125   0.000  0.00  0.00    -0.005 C 
ATOM     19  C   UNL     1       0.715  -3.712   0.000  0.00  0.00    -0.003 C 
ENDBRANCH  17  18
ENDBRANCH   1  17
TORSDOF 5
