REMARK  Name = 
REMARK  6 active torsions:
REMARK  status: ('A' for Active; 'I' for Inactive)
REMARK    1  A    between atoms: N_2  and  C_3
REMARK    2  A    between atoms: N_2  and  C_16
REMARK    3  A    between atoms: C_3  and  C_4
REMARK    4  A    between atoms: C_4  and  C_6
REMARK    5  A    between atoms: C_6  and  N_7
REMARK    6  A    between atoms: C_16  and  C_17
REMARK                            x       y       z     vdW  Elec       q    Type
REMARK                         _______ _______ _______ _____ _____    ______ ____
ROOT
ATOM      1  C   UNL     1       3.563  -0.793   0.000  0.00  0.00    +0.190 C 
ATOM      2  O   UNL     1       3.563  -1.618   0.000  0.00  0.00    -0.220 OA
ENDROOT
BRANCH   1   3
ATOM      3  C   UNL     1       2.849  -0.381   0.000  0.00  0.00    +0.142 C 
BRANCH   3   4
ATOM      4  N   UNL     1       2.135  -0.793   0.000  0.00  0.00    -0.306 N 
ATOM      5  C   UNL     1       1.381  -0.457   0.000  0.00  0.00    +0.079 A 
ATOM      6  C   UNL     1       0.829  -1.071   0.000  0.00  0.00    +0.099 A 
ATOM      7  C   UNL     1       0.022  -0.899   0.000  0.00  0.00    +0.021 A 
ATOM      8  C   UNL     1      -0.233  -0.114   0.000  0.00  0.00    +0.002 A 
ATOM      9  C   UNL     1       0.319   0.499   0.000  0.00  0.00    +0.002 A 
ATOM     10  N   UNL     1       1.241  -1.785   0.000  0.00  0.00    -0.224 NA
ATOM     11  C   UNL     1       1.126   0.327   0.000  0.00  0.00    +0.019 A 
ATOM     12  C   UNL     1       2.048  -1.613   0.000  0.00  0.00    +0.179 A 
ENDBRANCH   3   4
ENDBRANCH   1   3
BRANCH   1  13
ATOM     13  C   UNL     1       4.278  -0.381   0.000  0.00  0.00    +0.108 C 
BRANCH  13  15
ATOM     14  C   UNL     1       4.992  -1.618   0.000  0.00  0.00    +0.090 C 
ATOM     15  N   UNL     1       4.992  -0.793   0.000  0.00  0.00    -0.266 NA
BRANCH  15  16
ATOM     16  C   UNL     1       5.707  -0.381   0.000  0.00  0.00    +0.099 C 
BRANCH  16  17
ATOM     17  C   UNL     1       6.421  -0.793   0.000  0.00  0.00    -0.006 A 
ATOM     18  C   UNL     1       6.421  -1.618   0.000  0.00  0.00    -0.003 A 
ATOM     19  C   UNL     1       7.136  -2.030   0.000  0.00  0.00    -0.000 A 
ATOM     20  C   UNL     1       7.850  -1.618   0.000  0.00  0.00    -0.000 A 
ATOM     21  C   UNL     1       7.850  -0.793   0.000  0.00  0.00    -0.000 A 
ATOM     22  C   UNL     1       7.136  -0.381   0.000  0.00  0.00    -0.003 A 
ENDBRANCH  16  17
ENDBRANCH  15  16
ENDBRANCH  13  15
ENDBRANCH   1  13
TORSDOF 6
