REMARK  Name = 
REMARK  6 active torsions:
REMARK  status: ('A' for Active; 'I' for Inactive)
REMARK    1  A    between atoms: C_2  and  C_3
REMARK    2  A    between atoms: C_2  and  N_9
REMARK    3  A    between atoms: C_3  and  N_4
REMARK    4  A    between atoms: C_10  and  C_12
REMARK    5  A    between atoms: C_12  and  C_13
REMARK    6  A    between atoms: C_13  and  N_14
REMARK                            x       y       z     vdW  Elec       q    Type
REMARK                         _______ _______ _______ _____ _____    ______ ____
ROOT
ATOM      1  N   UNL     1       3.878  -3.364   0.000  0.00  0.00    -0.205 NA
ATOM      2  C   UNL     1       4.592  -2.952   0.000  0.00  0.00    +0.243 C 
ATOM      3  O   UNL     1       4.592  -2.127   0.000  0.00  0.00    -0.273 OA
ENDROOT
BRANCH   1   5
ATOM      4  C   UNL     1       3.163  -2.127   0.000  0.00  0.00    +0.026 C 
ATOM      5  C   UNL     1       3.163  -2.952   0.000  0.00  0.00    +0.120 C 
BRANCH   5   6
ATOM      6  C   UNL     1       2.449  -3.364   0.000  0.00  0.00    +0.149 C 
BRANCH   6   7
ATOM      7  N   UNL     1       1.734  -2.952   0.000  0.00  0.00    -0.248 N 
ATOM      8  N   UNL     1       1.648  -2.131   0.000  0.00  0.00    -0.168 NA
ATOM      9  C   UNL     1       0.841  -1.960   0.000  0.00  0.00    +0.122 A 
ATOM     10  C   UNL     1       0.429  -2.674   0.000  0.00  0.00    +0.043 A 
ATOM     11  C   UNL     1       0.981  -3.287   0.000  0.00  0.00    +0.097 A 
ENDBRANCH   6   7
ENDBRANCH   5   6
ENDBRANCH   1   5
BRANCH   2  12
ATOM     12  C   UNL     1       5.307  -3.364   0.000  0.00  0.00    +0.108 C 
BRANCH  12  13
ATOM     13  C   UNL     1       6.021  -2.952   0.000  0.00  0.00    +0.104 C 
BRANCH  13  14
ATOM     14  N   UNL     1       6.736  -3.364   0.000  0.00  0.00    -0.270 N 
ATOM     15  C   UNL     1       6.822  -4.185   0.000  0.00  0.00    +0.276 C 
ATOM     16  O   UNL     1       6.209  -4.737   0.000  0.00  0.00    -0.263 OA
ATOM     17  S   UNL     1       7.629  -4.356   0.000  0.00  0.00    -0.055 S 
ATOM     18  C   UNL     1       8.041  -3.642   0.000  0.00  0.00    +0.088 C 
ATOM     19  C   UNL     1       7.489  -3.029   0.000  0.00  0.00    +0.106 C 
ENDBRANCH  13  14
ENDBRANCH  12  13
ENDBRANCH   2  12
TORSDOF 6
