REMARK  Name = 
REMARK  2 active torsions:
REMARK  status: ('A' for Active; 'I' for Inactive)
REMARK    1  A    between atoms: C_2  and  C_4
REMARK    2  A    between atoms: C_7  and  C_9
REMARK                            x       y       z     vdW  Elec       q    Type
REMARK                         _______ _______ _______ _____ _____    ______ ____
ROOT
ATOM      1  C   UNL     1       0.715  -1.238   0.000  0.00  0.00    +0.162 A 
ATOM      2  N   UNL     1       0.047  -1.722   0.000  0.00  0.00    -0.210 NA
ATOM      3  C   UNL     1       0.302  -2.507   0.000  0.00  0.00    +0.190 A 
ATOM      4  N   UNL     1       1.127  -2.507   0.000  0.00  0.00    -0.129 NA
ATOM      5  N   UNL     1       1.382  -1.722   0.000  0.00  0.00    -0.132 NA
ENDROOT
BRANCH   3   6
ATOM      6  C   UNL     1      -0.183  -3.175   0.000  0.00  0.00    +0.192 C 
ATOM      7  O   UNL     1      -1.003  -3.088   0.000  0.00  0.00    -0.346 OA
ATOM      8  C   UNL     1      -1.488  -3.756   0.000  0.00  0.00    +0.161 C 
ATOM      9  C   UNL     1      -1.153  -4.509   0.000  0.00  0.00    +0.121 C 
ATOM     10  N   UNL     1      -0.332  -4.596   0.000  0.00  0.00    -0.212 NA
ATOM     11  C   UNL     1       0.153  -3.928   0.000  0.00  0.00    +0.126 C 
ENDBRANCH   3   6
BRANCH   1  13
ATOM     12  C   UNL     1       1.429   0.000   0.000  0.00  0.00    +0.008 C 
ATOM     13  C   UNL     1       0.715  -0.412   0.000  0.00  0.00    +0.061 C 
ATOM     14  C   UNL     1       0.000   0.000   0.000  0.00  0.00    +0.008 C 
ENDBRANCH   1  13
TORSDOF 2
