REMARK  Name = 
REMARK  5 active torsions:
REMARK  status: ('A' for Active; 'I' for Inactive)
REMARK    1  A    between atoms: N_7  and  C_8
REMARK    2  A    between atoms: C_8  and  C_9
REMARK    3  A    between atoms: C_9  and  C_11
REMARK    4  A    between atoms: C_11  and  S_12
REMARK    5  A    between atoms: S_12  and  C_13
REMARK                            x       y       z     vdW  Elec       q    Type
REMARK                         _______ _______ _______ _____ _____    ______ ____
ROOT
ATOM      1  C   UNL     1       0.126   3.030   0.000  0.00  0.00    +0.141 C 
ENDROOT
BRANCH   1  11
ATOM      2  C   UNL     1      -3.764   2.592   0.000  0.00  0.00    +0.031 C 
ATOM      3  C   UNL     1      -2.957   2.764   0.000  0.00  0.00    -0.024 A 
ATOM      4  C   UNL     1      -2.405   2.151   0.000  0.00  0.00    -0.024 A 
ATOM      5  C   UNL     1      -2.659   1.366   0.000  0.00  0.00    +0.031 C 
ATOM      6  C   UNL     1      -1.597   2.322   0.000  0.00  0.00    +0.014 A 
ATOM      7  C   UNL     1      -1.343   3.107   0.000  0.00  0.00    +0.079 A 
ATOM      8  C   UNL     1      -1.895   3.720   0.000  0.00  0.00    +0.098 A 
ATOM      9  N   UNL     1      -1.482   4.434   0.000  0.00  0.00    -0.224 NA
ATOM     10  C   UNL     1      -0.675   4.263   0.000  0.00  0.00    +0.179 A 
ATOM     11  N   UNL     1      -0.589   3.442   0.000  0.00  0.00    -0.306 N 
ATOM     12  C   UNL     1      -2.702   3.548   0.000  0.00  0.00    +0.016 A 
ENDBRANCH   1  11
BRANCH   1  13
ATOM     13  C   UNL     1       0.840   3.442   0.000  0.00  0.00    +0.186 C 
ATOM     14  O   UNL     1       0.840   4.267   0.000  0.00  0.00    -0.220 OA
BRANCH  13  15
ATOM     15  C   UNL     1       1.554   3.030   0.000  0.00  0.00    +0.103 C 
BRANCH  15  16
ATOM     16  S   UNL     1       2.269   3.442   0.000  0.00  0.00    -0.042 S 
BRANCH  16  17
ATOM     17  C   UNL     1       2.983   3.030   0.000  0.00  0.00    +0.264 A 
ATOM     18  N   UNL     1       2.983   2.205   0.000  0.00  0.00    -0.152 N 
ATOM     19  O   UNL     1       2.269   1.792   0.000  0.00  0.00    -0.618 OA
ATOM     20  C   UNL     1       3.698   1.792   0.000  0.00  0.00    +0.302 A 
ATOM     21  C   UNL     1       4.412   2.205   0.000  0.00  0.00    +0.077 A 
ATOM     22  C   UNL     1       4.412   3.030   0.000  0.00  0.00    +0.013 A 
ATOM     23  C   UNL     1       3.698   3.442   0.000  0.00  0.00    +0.078 A 
ENDBRANCH  16  17
ENDBRANCH  15  16
ENDBRANCH  13  15
ENDBRANCH   1  13
TORSDOF 5
