REMARK  Name = 
REMARK  3 active torsions:
REMARK  status: ('A' for Active; 'I' for Inactive)
REMARK    1  A    between atoms: C_2  and  C_3
REMARK    2  A    between atoms: C_3  and  N_4
REMARK    3  A    between atoms: N_12  and  C_13
REMARK                            x       y       z     vdW  Elec       q    Type
REMARK                         _______ _______ _______ _____ _____    ______ ____
ROOT
ATOM      1  O   UNL     1       4.287  -1.650   0.000  0.00  0.00    -0.271 OA
ATOM      2  C   UNL     1       3.572  -1.238   0.000  0.00  0.00    +0.265 C 
ATOM      3  N   UNL     1       3.572  -0.412   0.000  0.00  0.00    -0.206 NA
ENDROOT
BRANCH   3   4
ATOM      4  C   UNL     1       4.287   0.000   0.000  0.00  0.00    +0.095 C 
ATOM      5  C   UNL     1       5.001  -0.412   0.000  0.00  0.00    +0.022 C 
ATOM      6  C   UNL     1       5.716   0.000   0.000  0.00  0.00    +0.002 C 
ATOM      7  C   UNL     1       5.716   0.825   0.000  0.00  0.00    +0.000 C 
ATOM      8  C   UNL     1       5.001   1.238   0.000  0.00  0.00    +0.002 C 
ATOM      9  C   UNL     1       4.287   0.825   0.000  0.00  0.00    +0.022 C 
ENDBRANCH   3   4
BRANCH   2  10
ATOM     10  C   UNL     1       2.858  -1.650   0.000  0.00  0.00    +0.197 C 
BRANCH  10  11
ATOM     11  N   UNL     1       2.858  -2.475   0.000  0.00  0.00    -0.269 N 
ATOM     12  C   UNL     1       2.143  -2.888   0.000  0.00  0.00    +0.353 A 
ATOM     13  O   UNL     1       1.429  -2.475   0.000  0.00  0.00    -0.244 OA
ATOM     14  N   UNL     1       2.143  -3.712   0.000  0.00  0.00    -0.153 NA
ATOM     15  C   UNL     1       2.858  -4.125   0.000  0.00  0.00    +0.285 A 
ATOM     16  O   UNL     1       2.858  -4.950   0.000  0.00  0.00    -0.265 OA
ATOM     17  C   UNL     1       3.572  -3.712   0.000  0.00  0.00    +0.081 A 
ATOM     18  C   UNL     1       3.572  -2.888   0.000  0.00  0.00    +0.085 A 
ENDBRANCH  10  11
ENDBRANCH   2  10
TORSDOF 3
