REMARK  Name = 
REMARK  2 active torsions:
REMARK  status: ('A' for Active; 'I' for Inactive)
REMARK    1  A    between atoms: C_2  and  C_3
REMARK    2  A    between atoms: C_3  and  N_9
REMARK                            x       y       z     vdW  Elec       q    Type
REMARK                         _______ _______ _______ _____ _____    ______ ____
ROOT
ATOM      1  N   UNL     1       3.486  -1.287   0.000  0.00  0.00    -0.188 NA
ATOM      2  C   UNL     1       4.299  -1.431   0.000  0.00  0.00    +0.345 C 
ATOM      3  N   UNL     1       4.829  -0.798   0.000  0.00  0.00    -0.142 NA
ATOM      4  C   UNL     1       5.641  -0.942   0.000  0.00  0.00    +0.156 A 
ATOM      5  N   UNL     1       5.924  -1.717   0.000  0.00  0.00    -0.227 NA
ATOM      6  C   UNL     1       6.736  -1.860   0.000  0.00  0.00    +0.100 A 
ATOM      7  C   UNL     1       7.266  -1.228   0.000  0.00  0.00    +0.021 A 
ATOM      8  C   UNL     1       6.984  -0.453   0.000  0.00  0.00    +0.005 A 
ATOM      9  C   UNL     1       6.172  -0.310   0.000  0.00  0.00    +0.036 A 
ATOM     10  O   UNL     1       4.581  -2.206   0.000  0.00  0.00    -0.249 OA
ENDROOT
BRANCH   1  11
ATOM     11  C   UNL     1       2.956  -1.919   0.000  0.00  0.00    +0.116 C 
ATOM     12  C   UNL     1       2.241  -2.332   0.000  0.00  0.00    +0.055 C 
ATOM     13  C   UNL     1       2.241  -3.157   0.000  0.00  0.00    +0.144 C 
ATOM     14  O   UNL     1       2.956  -3.569   0.000  0.00  0.00    -0.354 OA
ATOM     15  C   UNL     1       3.670  -3.157   0.000  0.00  0.00    +0.144 C 
ATOM     16  C   UNL     1       3.670  -2.332   0.000  0.00  0.00    +0.055 C 
BRANCH  11  18
ATOM     17  O   UNL     1       1.613  -1.431   0.000  0.00  0.00    -0.219 OA
ATOM     18  C   UNL     1       2.426  -1.287   0.000  0.00  0.00    +0.202 C 
ENDBRANCH  11  18
ENDBRANCH   1  11
TORSDOF 2
