REMARK  Name = 
REMARK  5 active torsions:
REMARK  status: ('A' for Active; 'I' for Inactive)
REMARK    1  A    between atoms: C_2  and  C_3
REMARK    2  A    between atoms: C_3  and  N_4
REMARK    3  A    between atoms: C_5  and  C_7
REMARK    4  A    between atoms: C_7  and  C_8
REMARK    5  A    between atoms: C_13  and  C_15
REMARK                            x       y       z     vdW  Elec       q    Type
REMARK                         _______ _______ _______ _____ _____    ______ ____
ROOT
ATOM      1  C   UNL     1       4.018  -3.422   0.000  0.00  0.00    +0.077 A 
ATOM      2  N   UNL     1       4.771  -3.758   0.000  0.00  0.00    -0.226 NA
ATOM      3  C   UNL     1       5.323  -3.145   0.000  0.00  0.00    +0.186 A 
ATOM      4  N   UNL     1       6.144  -3.231   0.000  0.00  0.00    -0.154 NA
ATOM      5  C   UNL     1       6.629  -2.564   0.000  0.00  0.00    +0.247 C 
ATOM      6  O   UNL     1       6.293  -1.810   0.000  0.00  0.00    -0.273 OA
ATOM      7  S   UNL     1       4.911  -2.430   0.000  0.00  0.00    -0.049 S 
ATOM      8  C   UNL     1       4.104  -2.602   0.000  0.00  0.00    +0.053 A 
ENDROOT
BRANCH   5   9
ATOM      9  C   UNL     1       7.449  -2.650   0.000  0.00  0.00    +0.079 C 
ATOM     10  C   UNL     1       8.117  -3.135   0.000  0.00  0.00    +0.010 C 
ATOM     11  C   UNL     1       8.203  -2.314   0.000  0.00  0.00    +0.010 C 
ENDBRANCH   5   9
BRANCH   1  12
ATOM     12  C   UNL     1       3.303  -3.835   0.000  0.00  0.00    +0.133 C 
BRANCH  12  14
ATOM     13  N   UNL     1       1.874  -3.835   0.000  0.00  0.00    -0.205 NA
ATOM     14  C   UNL     1       2.589  -3.422   0.000  0.00  0.00    +0.247 C 
ATOM     15  O   UNL     1       2.589  -2.598   0.000  0.00  0.00    -0.273 OA
BRANCH  13  16
ATOM     16  C   UNL     1       1.160  -3.422   0.000  0.00  0.00    +0.115 C 
BRANCH  16  18
ATOM     17  C   UNL     1      -0.269  -3.422   0.000  0.00  0.00    +0.002 C 
ATOM     18  C   UNL     1       0.445  -3.835   0.000  0.00  0.00    +0.023 C 
ENDBRANCH  16  18
ENDBRANCH  13  16
ENDBRANCH  12  14
ENDBRANCH   1  12
TORSDOF 5
