REMARK  Name = 
REMARK  2 active torsions:
REMARK  status: ('A' for Active; 'I' for Inactive)
REMARK    1  A    between atoms: C_5  and  N_6
REMARK    2  A    between atoms: N_9  and  C_10
REMARK                            x       y       z     vdW  Elec       q    Type
REMARK                         _______ _______ _______ _____ _____    ______ ____
ROOT
ATOM      1  N   UNL     1      -3.560  -2.503   0.000  0.00  0.00    -0.152 NA
ATOM      2  C   UNL     1      -3.224  -3.257   0.000  0.00  0.00    +0.344 C 
ATOM      3  N   UNL     1      -3.709  -3.924   0.000  0.00  0.00    -0.190 NA
ATOM      4  O   UNL     1      -2.404  -3.343   0.000  0.00  0.00    -0.249 OA
ENDROOT
BRANCH   1   9
ATOM      5  C   UNL     1      -2.662   0.259   0.000  0.00  0.00    +0.054 C 
ATOM      6  C   UNL     1      -2.662  -0.566   0.000  0.00  0.00    +0.080 A 
ATOM      7  C   UNL     1      -3.330  -1.051   0.000  0.00  0.00    +0.095 A 
ATOM      8 CL   UNL     1      -4.114  -0.796   0.000  0.00  0.00    -0.079 Cl
ATOM      9  C   UNL     1      -3.075  -1.836   0.000  0.00  0.00    +0.134 A 
ATOM     10  S   UNL     1      -2.250  -1.836   0.000  0.00  0.00    +0.030 S 
ATOM     11  N   UNL     1      -1.995  -1.051   0.000  0.00  0.00    -0.211 NA
ENDBRANCH   1   9
BRANCH   3  12
ATOM     12  C   UNL     1      -3.373  -4.678   0.000  0.00  0.00    +0.085 C 
ATOM     13  C   UNL     1      -3.316  -5.501   0.000  0.00  0.00    +0.052 C 
ATOM     14  C   UNL     1      -2.574  -5.863   0.000  0.00  0.00    +0.144 C 
ATOM     15  O   UNL     1      -1.890  -5.401   0.000  0.00  0.00    -0.354 OA
ATOM     16  C   UNL     1      -1.948  -4.578   0.000  0.00  0.00    +0.144 C 
ATOM     17  C   UNL     1      -2.689  -4.217   0.000  0.00  0.00    +0.052 C 
ATOM     18  C   UNL     1      -4.174  -4.878   0.000  0.00  0.00    +0.022 C 
ENDBRANCH   3  12
TORSDOF 2
