REMARK  Name = 
REMARK  4 active torsions:
REMARK  status: ('A' for Active; 'I' for Inactive)
REMARK    1  A    between atoms: C_2  and  O_3
REMARK    2  A    between atoms: O_3  and  C_4
REMARK    3  A    between atoms: C_9  and  N_10
REMARK    4  A    between atoms: N_13  and  C_14
REMARK                            x       y       z     vdW  Elec       q    Type
REMARK                         _______ _______ _______ _____ _____    ______ ____
ROOT
ATOM      1  N   UNL     1      -3.937  -0.662   0.000  0.00  0.00    -0.156 NA
ATOM      2  C   UNL     1      -3.937   0.163   0.000  0.00  0.00    +0.344 C 
ATOM      3  N   UNL     1      -4.652   0.575   0.000  0.00  0.00    -0.179 NA
ATOM      4  O   UNL     1      -3.223   0.575   0.000  0.00  0.00    -0.249 OA
ENDROOT
BRANCH   3   5
ATOM      5  C   UNL     1      -5.366   0.163   0.000  0.00  0.00    +0.174 C 
ATOM      6  C   UNL     1      -6.048   0.628   0.000  0.00  0.00    +0.261 C 
ATOM      7  O   UNL     1      -5.925   1.444   0.000  0.00  0.00    -0.271 OA
ATOM      8  N   UNL     1      -6.836   0.385   0.000  0.00  0.00    -0.204 NA
ATOM      9  C   UNL     1      -7.138  -0.384   0.000  0.00  0.00    +0.115 C 
ATOM     10  C   UNL     1      -6.725  -1.098   0.000  0.00  0.00    +0.024 C 
ATOM     11  C   UNL     1      -5.909  -1.221   0.000  0.00  0.00    +0.004 C 
ATOM     12  C   UNL     1      -5.305  -0.660   0.000  0.00  0.00    +0.031 C 
ENDBRANCH   3   5
BRANCH   1  14
ATOM     13  C   UNL     1      -2.508  -0.662   0.000  0.00  0.00    +0.241 A 
ATOM     14  C   UNL     1      -3.223  -1.075   0.000  0.00  0.00    +0.128 A 
ATOM     15  C   UNL     1      -3.223  -1.900   0.000  0.00  0.00    +0.023 A 
ATOM     16  C   UNL     1      -2.508  -2.312   0.000  0.00  0.00    +0.022 A 
ATOM     17  C   UNL     1      -1.794  -1.900   0.000  0.00  0.00    +0.102 A 
ATOM     18  N   UNL     1      -1.794  -1.075   0.000  0.00  0.00    -0.209 NA
BRANCH  13  19
ATOM     19  O   UNL     1      -2.508   0.163   0.000  0.00  0.00    -0.459 OA
BRANCH  19  21
ATOM     20  C   UNL     1      -1.794   1.400   0.000  0.00  0.00    +0.051 C 
ATOM     21  C   UNL     1      -1.794   0.575   0.000  0.00  0.00    +0.207 C 
ENDBRANCH  19  21
ENDBRANCH  13  19
ENDBRANCH   1  14
TORSDOF 4
