REMARK  Name = 
REMARK  4 active torsions:
REMARK  status: ('A' for Active; 'I' for Inactive)
REMARK    1  A    between atoms: C_8  and  C_9
REMARK    2  A    between atoms: N_11  and  C_12
REMARK    3  A    between atoms: C_12  and  C_13
REMARK    4  A    between atoms: C_13  and  C_14
REMARK                            x       y       z     vdW  Elec       q    Type
REMARK                         _______ _______ _______ _____ _____    ______ ____
ROOT
ATOM      1  C   UNL     1       0.028  -2.025   0.000  0.00  0.00    +0.259 C 
ATOM      2  N   UNL     1       0.743  -2.437   0.000  0.00  0.00    -0.204 NA
ATOM      3  O   UNL     1       0.028  -1.200   0.000  0.00  0.00    -0.272 OA
ENDROOT
BRANCH   1   7
ATOM      4  C   UNL     1      -0.331  -4.617   0.000  0.00  0.00    +0.095 C 
ATOM      5  C   UNL     1      -0.160  -3.810   0.000  0.00  0.00    +0.226 C 
ATOM      6  N   UNL     1      -0.773  -3.258   0.000  0.00  0.00    -0.273 N 
ATOM      7  C   UNL     1      -0.686  -2.437   0.000  0.00  0.00    +0.154 C 
ATOM      8  C   UNL     1      -1.440  -2.102   0.000  0.00  0.00    +0.031 C 
ATOM      9  C   UNL     1      -1.992  -2.715   0.000  0.00  0.00    +0.024 C 
ATOM     10  C   UNL     1      -1.580  -3.429   0.000  0.00  0.00    +0.094 C 
ATOM     11  O   UNL     1       0.625  -3.555   0.000  0.00  0.00    -0.275 OA
ENDBRANCH   1   7
BRANCH   2  12
ATOM     12  C   UNL     1       1.457  -2.025   0.000  0.00  0.00    +0.122 C 
BRANCH  12  13
ATOM     13  C   UNL     1       2.171  -2.437   0.000  0.00  0.00    +0.070 C 
BRANCH  13  14
ATOM     14  C   UNL     1       2.886  -2.025   0.000  0.00  0.00    +0.067 A 
ATOM     15  N   UNL     1       3.640  -2.360   0.000  0.00  0.00    -0.247 NA
ATOM     16  C   UNL     1       4.192  -1.747   0.000  0.00  0.00    +0.088 A 
ATOM     17  C   UNL     1       5.012  -1.833   0.000  0.00  0.00    +0.059 C 
ATOM     18  S   UNL     1       3.779  -1.033   0.000  0.00  0.00    -0.071 S 
ATOM     19  C   UNL     1       2.972  -1.204   0.000  0.00  0.00    +0.051 A 
ENDBRANCH  13  14
ENDBRANCH  12  13
ENDBRANCH   2  12
TORSDOF 4
