REMARK  Name = 
REMARK  4 active torsions:
REMARK  status: ('A' for Active; 'I' for Inactive)
REMARK    1  A    between atoms: N_3  and  C_4
REMARK    2  A    between atoms: N_7  and  C_8
REMARK    3  A    between atoms: N_12  and  C_13
REMARK    4  A    between atoms: C_13  and  C_14
REMARK                            x       y       z     vdW  Elec       q    Type
REMARK                         _______ _______ _______ _____ _____    ______ ____
ROOT
ATOM      1  C   UNL     1      -1.557  -0.453   0.000  0.00  0.00    +0.155 A 
ATOM      2  N   UNL     1      -1.643   0.367   0.000  0.00  0.00    -0.236 N 
ATOM      3  N   UNL     1      -2.450   0.539   0.000  0.00  0.00    -0.167 NA
ATOM      4  C   UNL     1      -2.863  -0.175   0.000  0.00  0.00    +0.123 A 
ATOM      5  C   UNL     1      -2.311  -0.789   0.000  0.00  0.00    +0.058 A 
ENDROOT
BRANCH   1   8
ATOM      6  O   UNL     1      -1.557  -2.103   0.000  0.00  0.00    -0.249 OA
ATOM      7  C   UNL     1      -0.843  -1.690   0.000  0.00  0.00    +0.345 C 
ATOM      8  N   UNL     1      -0.843  -0.866   0.000  0.00  0.00    -0.142 NA
ATOM      9  N   UNL     1      -0.128  -2.103   0.000  0.00  0.00    -0.189 NA
BRANCH   9  10
ATOM     10  C   UNL     1      -0.128  -2.928   0.000  0.00  0.00    +0.097 C 
ATOM     11  C   UNL     1      -0.541  -3.643   0.000  0.00  0.00    +0.023 C 
ATOM     12  C   UNL     1       0.284  -3.643   0.000  0.00  0.00    +0.023 C 
ENDBRANCH   9  10
ENDBRANCH   1   8
BRANCH   2  13
ATOM     13  C   UNL     1      -1.030   0.919   0.000  0.00  0.00    +0.129 C 
BRANCH  13  14
ATOM     14  C   UNL     1      -0.246   0.664   0.000  0.00  0.00    +0.024 C 
ATOM     15  C   UNL     1       0.306   0.051   0.000  0.00  0.00    +0.002 C 
ATOM     16  C   UNL     1       0.561   0.836   0.000  0.00  0.00    +0.002 C 
ENDBRANCH  13  14
ENDBRANCH   2  13
TORSDOF 4
