REMARK  Name = 
REMARK  4 active torsions:
REMARK  status: ('A' for Active; 'I' for Inactive)
REMARK    1  A    between atoms: C_2  and  C_5
REMARK    2  A    between atoms: N_9  and  C_10
REMARK    3  A    between atoms: C_10  and  C_11
REMARK    4  A    between atoms: N_13  and  C_14
REMARK                            x       y       z     vdW  Elec       q    Type
REMARK                         _______ _______ _______ _____ _____    ______ ____
ROOT
ATOM      1  C   UNL     1       2.858  -2.475   0.000  0.00  0.00    +0.127 A 
ATOM      2  C   UNL     1       2.143  -2.888   0.000  0.00  0.00    +0.265 A 
ATOM      3  O   UNL     1       1.429  -2.475   0.000  0.00  0.00    -0.267 OA
ATOM      4  N   UNL     1       2.143  -3.712   0.000  0.00  0.00    -0.285 N 
ATOM      5  C   UNL     1       2.858  -4.125   0.000  0.00  0.00    +0.079 A 
ATOM      6  C   UNL     1       3.572  -3.712   0.000  0.00  0.00    +0.019 A 
ATOM      7  C   UNL     1       3.572  -2.888   0.000  0.00  0.00    +0.010 A 
ENDROOT
BRANCH   1   9
ATOM      8  F   UNL     1       2.858  -0.825   0.000  0.00  0.00    -0.166 F 
ATOM      9  C   UNL     1       2.858  -1.650   0.000  0.00  0.00    +0.423 C 
ATOM     10  F   UNL     1       3.683  -1.650   0.000  0.00  0.00    -0.166 F 
ATOM     11  F   UNL     1       2.033  -1.650   0.000  0.00  0.00    -0.166 F 
ENDBRANCH   1   9
BRANCH   4  12
ATOM     12  C   UNL     1       1.429  -4.125   0.000  0.00  0.00    +0.196 C 
BRANCH  12  13
ATOM     13  C   UNL     1       0.715  -3.712   0.000  0.00  0.00    +0.264 C 
ATOM     14  N   UNL     1       0.000  -4.125   0.000  0.00  0.00    -0.206 NA
ATOM     15  O   UNL     1       0.715  -2.888   0.000  0.00  0.00    -0.271 OA
BRANCH  14  16
ATOM     16  C   UNL     1      -0.715  -3.712   0.000  0.00  0.00    +0.095 C 
ATOM     17  C   UNL     1      -0.715  -2.888   0.000  0.00  0.00    +0.022 C 
ATOM     18  C   UNL     1      -1.429  -2.475   0.000  0.00  0.00    +0.002 C 
ATOM     19  C   UNL     1      -2.143  -2.888   0.000  0.00  0.00    +0.000 C 
ATOM     20  C   UNL     1      -2.143  -3.712   0.000  0.00  0.00    +0.002 C 
ATOM     21  C   UNL     1      -1.429  -4.125   0.000  0.00  0.00    +0.022 C 
ENDBRANCH  14  16
ENDBRANCH  12  13
ENDBRANCH   4  12
TORSDOF 4
