REMARK  Name = 
REMARK  5 active torsions:
REMARK  status: ('A' for Active; 'I' for Inactive)
REMARK    1  A    between atoms: N_3  and  C_14
REMARK    2  A    between atoms: N_4  and  C_15
REMARK    3  A    between atoms: C_14  and  C_16
REMARK    4  A    between atoms: C_15  and  C_17
REMARK    5  A    between atoms: C_16  and  C_23
REMARK                            x       y       z     vdW  Elec       q    Type
REMARK                         _______ _______ _______ _____ _____    ______ ____
ROOT
ATOM      1  N   UNL     1       2.637   0.954   0.000  0.00  0.00    -0.266 N 
ATOM      2  C   UNL     1       3.303   1.437   0.000  0.00  0.00    +0.180 C 
ATOM      3  C   UNL     1       3.049   2.224   0.000  0.00  0.00    +0.247 C 
ATOM      4  N   UNL     1       2.224   2.224   0.000  0.00  0.00    -0.261 N 
ATOM      5  O   UNL     1       3.532   2.891   0.000  0.00  0.00    -0.273 OA
ATOM      6  C   UNL     1       1.966   1.437   0.000  0.00  0.00    +0.192 C 
ATOM      7  C   UNL     1       2.637   0.129   0.000  0.00  0.00    +0.156 A 
ATOM      8  N   UNL     1       3.349  -0.283   0.000  0.00  0.00    -0.207 NA
ATOM      9  C   UNL     1       3.349  -1.108   0.000  0.00  0.00    +0.201 A 
ATOM     10  N   UNL     1       2.637  -1.520   0.000  0.00  0.00    -0.205 NA
ATOM     11  C   UNL     1       1.920  -1.108   0.000  0.00  0.00    +0.167 A 
ATOM     12  N   UNL     1       1.137  -1.362   0.000  0.00  0.00    -0.294 N 
ATOM     13  C   UNL     1       0.650  -0.696   0.000  0.00  0.00    +0.180 A 
ATOM     14  N   UNL     1       1.137  -0.029   0.000  0.00  0.00    -0.219 NA
ATOM     15  C   UNL     1       1.920  -0.283   0.000  0.00  0.00    +0.149 A 
ENDROOT
BRANCH   4  16
ATOM     16  C   UNL     1       1.737   2.891   0.000  0.00  0.00    +0.095 C 
BRANCH  16  17
ATOM     17  C   UNL     1       2.075   3.645   0.000  0.00  0.00    +0.020 C 
ATOM     18  C   UNL     1       2.741   4.124   0.000  0.00  0.00    +0.002 C 
ATOM     19  C   UNL     1       1.987   4.461   0.000  0.00  0.00    +0.002 C 
ENDBRANCH  16  17
ENDBRANCH   4  16
BRANCH  12  20
ATOM     20  C   UNL     1       0.883  -2.150   0.000  0.00  0.00    +0.112 C 
BRANCH  20  21
ATOM     21  C   UNL     1       1.433  -2.762   0.000  0.00  0.00    +0.056 C 
ATOM     22  C   UNL     1       0.733  -3.199   0.000  0.00  0.00    +0.037 C 
ATOM     23  C   UNL     1       0.762  -4.020   0.000  0.00  0.00    +0.142 C 
ATOM     24  O   UNL     1       1.491  -4.407   0.000  0.00  0.00    -0.354 OA
ATOM     25  C   UNL     1       2.191  -3.970   0.000  0.00  0.00    +0.142 C 
ATOM     26  C   UNL     1       2.162  -3.149   0.000  0.00  0.00    +0.037 C 
BRANCH  21  27
ATOM     27  C   UNL     1       1.941  -2.112   0.000  0.00  0.00    +0.184 C 
ATOM     28  O   UNL     1       2.758  -2.224   0.000  0.00  0.00    -0.220 OA
ENDBRANCH  21  27
ENDBRANCH  20  21
ENDBRANCH  12  20
TORSDOF 5
