REMARK  Name = 
REMARK  5 active torsions:
REMARK  status: ('A' for Active; 'I' for Inactive)
REMARK    1  A    between atoms: N_2  and  C_3
REMARK    2  A    between atoms: C_3  and  C_4
REMARK    3  A    between atoms: N_6  and  C_7
REMARK    4  A    between atoms: C_7  and  C_8
REMARK    5  A    between atoms: C_13  and  N_14
REMARK                            x       y       z     vdW  Elec       q    Type
REMARK                         _______ _______ _______ _____ _____    ______ ____
ROOT
ATOM      1  C   UNL     1       1.429  -1.650   0.000  0.00  0.00    +0.031 A 
ATOM      2  C   UNL     1       0.715  -1.238   0.000  0.00  0.00    +0.129 A 
ATOM      3  N   UNL     1       0.000  -1.650   0.000  0.00  0.00    -0.229 NA
ATOM      4  C   UNL     1       0.000  -2.475   0.000  0.00  0.00    +0.100 A 
ATOM      5  C   UNL     1       0.715  -2.888   0.000  0.00  0.00    +0.021 A 
ATOM      6  C   UNL     1       1.429  -2.475   0.000  0.00  0.00    +0.002 A 
ENDROOT
BRANCH   2   7
ATOM      7  N   UNL     1       0.715  -0.412   0.000  0.00  0.00    -0.288 N 
ATOM      8  C   UNL     1       1.429   0.000   0.000  0.00  0.00    +0.124 C 
ATOM      9  C   UNL     1       1.429   0.825   0.000  0.00  0.00    +0.164 C 
ATOM     10  O   UNL     1       0.715   1.238   0.000  0.00  0.00    -0.350 OA
ATOM     11  C   UNL     1       0.000   0.825   0.000  0.00  0.00    +0.164 C 
ATOM     12  C   UNL     1       0.000   0.000   0.000  0.00  0.00    +0.124 C 
ENDBRANCH   2   7
BRANCH   1  13
ATOM     13  C   UNL     1       2.143  -1.238   0.000  0.00  0.00    +0.144 C 
BRANCH  13  15
ATOM     14  C   UNL     1       3.572  -1.238   0.000  0.00  0.00    +0.262 C 
ATOM     15  N   UNL     1       2.858  -1.650   0.000  0.00  0.00    -0.199 NA
ATOM     16  O   UNL     1       3.572  -0.412   0.000  0.00  0.00    -0.271 OA
BRANCH  14  17
ATOM     17  C   UNL     1       4.287  -1.650   0.000  0.00  0.00    +0.181 C 
BRANCH  17  19
ATOM     18  C   UNL     1       5.001  -0.412   0.000  0.00  0.00    +0.115 C 
ATOM     19  N   UNL     1       5.001  -1.238   0.000  0.00  0.00    -0.269 N 
ATOM     20  C   UNL     1       5.716  -1.650   0.000  0.00  0.00    +0.227 C 
ATOM     21  C   UNL     1       5.716  -2.475   0.000  0.00  0.00    +0.095 C 
ATOM     22  O   UNL     1       6.430  -1.238   0.000  0.00  0.00    -0.275 OA
ENDBRANCH  17  19
ENDBRANCH  14  17
ENDBRANCH  13  15
ENDBRANCH   1  13
TORSDOF 5
