REMARK  Name = 
REMARK  3 active torsions:
REMARK  status: ('A' for Active; 'I' for Inactive)
REMARK    1  A    between atoms: C_4  and  C_5
REMARK    2  A    between atoms: C_5  and  N_6
REMARK    3  A    between atoms: C_10  and  C_11
REMARK                            x       y       z     vdW  Elec       q    Type
REMARK                         _______ _______ _______ _____ _____    ______ ____
ROOT
ATOM      1 CL   UNL     1       0.000   0.000   0.000  0.00  0.00    +0.000 Cl
ENDROOT
TORSDOF 0
REMARK  Name = 
REMARK  3 active torsions:
REMARK  status: ('A' for Active; 'I' for Inactive)
REMARK    1  A    between atoms: C_4  and  C_5
REMARK    2  A    between atoms: C_5  and  N_6
REMARK    3  A    between atoms: C_10  and  C_11
REMARK                            x       y       z     vdW  Elec       q    Type
REMARK                         _______ _______ _______ _____ _____    ______ ____
ROOT
ATOM      1 CL   UNL     1       2.004   0.000   0.000  0.00  0.00    +0.000 Cl
ENDROOT
TORSDOF 0
REMARK  Name = 
REMARK  3 active torsions:
REMARK  status: ('A' for Active; 'I' for Inactive)
REMARK    1  A    between atoms: C_4  and  C_5
REMARK    2  A    between atoms: C_5  and  N_6
REMARK    3  A    between atoms: C_10  and  C_11
REMARK                            x       y       z     vdW  Elec       q    Type
REMARK                         _______ _______ _______ _____ _____    ______ ____
ROOT
ATOM      1  N   UNL     1      -0.089  -2.435   0.000  0.00  0.00    -0.295 N 
ATOM      2  C   UNL     1       0.579  -2.920   0.000  0.00  0.00    +0.143 A 
ATOM      3  N   UNL     1       1.246  -2.435   0.000  0.00  0.00    -0.133 NA
ATOM      4  N   UNL     1       0.991  -1.650   0.000  0.00  0.00    -0.126 NA
ATOM      5  C   UNL     1       0.166  -1.650   0.000  0.00  0.00    +0.202 A 
ENDROOT
BRANCH   2   6
ATOM      6  C   UNL     1       0.579  -3.744   0.000  0.00  0.00    +0.059 C 
ATOM      7  C   UNL     1       0.166  -4.459   0.000  0.00  0.00    +0.008 C 
ATOM      8  C   UNL     1       0.991  -4.459   0.000  0.00  0.00    +0.008 C 
ENDBRANCH   2   6
BRANCH   1   9
ATOM      9  C   UNL     1      -0.873  -2.690   0.000  0.00  0.00    +0.129 C 
BRANCH   9  11
ATOM     10  N   UNL     1      -2.271  -2.393   0.000  0.00  0.00    -0.129 NA
ATOM     11  C   UNL     1      -1.486  -2.138   0.000  0.00  0.00    +0.134 C 
ENDBRANCH   9  11
ENDBRANCH   1   9
TORSDOF 3
