REMARK  Name = 
REMARK  5 active torsions:
REMARK  status: ('A' for Active; 'I' for Inactive)
REMARK    1  A    between atoms: C_2  and  C_3
REMARK    2  A    between atoms: C_3  and  N_4
REMARK    3  A    between atoms: N_12  and  C_13
REMARK    4  A    between atoms: C_13  and  C_14
REMARK    5  A    between atoms: C_13  and  C_17
REMARK                            x       y       z     vdW  Elec       q    Type
REMARK                         _______ _______ _______ _____ _____    ______ ____
ROOT
ATOM      1  O   UNL     1       1.429  -0.825   0.000  0.00  0.00    -0.271 OA
ATOM      2  C   UNL     1       1.429  -1.650   0.000  0.00  0.00    +0.265 C 
ATOM      3  N   UNL     1       2.143  -2.062   0.000  0.00  0.00    -0.206 NA
ENDROOT
BRANCH   3   4
ATOM      4  C   UNL     1       2.858  -1.650   0.000  0.00  0.00    +0.095 C 
BRANCH   4   5
ATOM      5  C   UNL     1       2.858  -0.825   0.000  0.00  0.00    +0.020 C 
ATOM      6  C   UNL     1       3.270  -0.111   0.000  0.00  0.00    +0.002 C 
ATOM      7  C   UNL     1       2.445  -0.111   0.000  0.00  0.00    +0.002 C 
ENDBRANCH   4   5
BRANCH   4   8
ATOM      8  C   UNL     1       3.572  -2.062   0.000  0.00  0.00    +0.020 C 
ATOM      9  C   UNL     1       3.985  -2.777   0.000  0.00  0.00    +0.002 C 
ATOM     10  C   UNL     1       4.397  -2.062   0.000  0.00  0.00    +0.002 C 
ENDBRANCH   4   8
ENDBRANCH   3   4
BRANCH   2  11
ATOM     11  C   UNL     1       0.715  -2.062   0.000  0.00  0.00    +0.197 C 
BRANCH  11  12
ATOM     12  N   UNL     1       0.000  -1.650   0.000  0.00  0.00    -0.269 N 
ATOM     13  C   UNL     1       0.000  -0.825   0.000  0.00  0.00    +0.353 A 
ATOM     14  O   UNL     1       0.715  -0.412   0.000  0.00  0.00    -0.244 OA
ATOM     15  N   UNL     1      -0.715  -0.412   0.000  0.00  0.00    -0.153 NA
ATOM     16  C   UNL     1      -1.429  -0.825   0.000  0.00  0.00    +0.285 A 
ATOM     17  O   UNL     1      -2.143  -0.412   0.000  0.00  0.00    -0.265 OA
ATOM     18  C   UNL     1      -1.429  -1.650   0.000  0.00  0.00    +0.081 A 
ATOM     19  C   UNL     1      -0.715  -2.062   0.000  0.00  0.00    +0.085 A 
ENDBRANCH  11  12
ENDBRANCH   2  11
TORSDOF 5
