REMARK  Name = 
REMARK  7 active torsions:
REMARK  status: ('A' for Active; 'I' for Inactive)
REMARK    1  A    between atoms: C_2  and  C_3
REMARK    2  A    between atoms: C_3  and  N_4
REMARK    3  A    between atoms: N_4  and  C_5
REMARK    4  A    between atoms: C_5  and  C_6
REMARK    5  A    between atoms: C_6  and  N_7
REMARK    6  A    between atoms: N_12  and  C_13
REMARK    7  A    between atoms: C_13  and  C_14
REMARK                            x       y       z     vdW  Elec       q    Type
REMARK                         _______ _______ _______ _____ _____    ______ ____
ROOT
ATOM      1  C   UNL     1       3.183  -1.452   0.000  0.00  0.00    +0.175 C 
ENDROOT
BRANCH   1   3
ATOM      2  O   UNL     1       3.897  -0.215   0.000  0.00  0.00    -0.272 OA
ATOM      3  C   UNL     1       3.897  -1.040   0.000  0.00  0.00    +0.259 C 
ATOM      4  N   UNL     1       4.612  -1.452   0.000  0.00  0.00    -0.204 NA
BRANCH   4   5
ATOM      5  C   UNL     1       5.326  -1.040   0.000  0.00  0.00    +0.115 C 
BRANCH   5   6
ATOM      6  C   UNL     1       6.041  -1.452   0.000  0.00  0.00    +0.022 C 
ATOM      7  C   UNL     1       6.453  -2.167   0.000  0.00  0.00    +0.002 C 
ATOM      8  C   UNL     1       6.866  -1.452   0.000  0.00  0.00    +0.002 C 
ENDBRANCH   5   6
ENDBRANCH   4   5
ENDBRANCH   1   3
BRANCH   1   9
ATOM      9  N   UNL     1       2.469  -1.040   0.000  0.00  0.00    -0.206 NA
BRANCH   9  10
ATOM     10  C   UNL     1       1.754  -1.452   0.000  0.00  0.00    +0.116 C 
BRANCH  10  11
ATOM     11  C   UNL     1       1.040  -1.040   0.000  0.00  0.00    +0.146 C 
BRANCH  11  12
ATOM     12  N   UNL     1       0.325  -1.452   0.000  0.00  0.00    -0.248 N 
ATOM     13  N   UNL     1      -0.429  -1.117   0.000  0.00  0.00    -0.168 NA
ATOM     14  C   UNL     1      -0.981  -1.730   0.000  0.00  0.00    +0.122 A 
ATOM     15  C   UNL     1      -0.568  -2.444   0.000  0.00  0.00    +0.043 A 
ATOM     16  C   UNL     1       0.239  -2.272   0.000  0.00  0.00    +0.097 A 
ENDBRANCH  11  12
ENDBRANCH  10  11
ENDBRANCH   9  10
ENDBRANCH   1   9
TORSDOF 7
