REMARK  Name = 
REMARK  3 active torsions:
REMARK  status: ('A' for Active; 'I' for Inactive)
REMARK    1  A    between atoms: C_7  and  C_8
REMARK    2  A    between atoms: C_8  and  N_9
REMARK    3  A    between atoms: N_12  and  C_13
REMARK                            x       y       z     vdW  Elec       q    Type
REMARK                         _______ _______ _______ _____ _____    ______ ____
ROOT
ATOM      1  N   UNL     1       1.429  -2.475   0.000  0.00  0.00    -0.187 NA
ATOM      2  C   UNL     1       2.143  -2.888   0.000  0.00  0.00    +0.344 C 
ATOM      3  N   UNL     1       2.858  -2.475   0.000  0.00  0.00    -0.159 NA
ATOM      4  O   UNL     1       2.143  -3.712   0.000  0.00  0.00    -0.249 OA
ENDROOT
BRANCH   3   5
ATOM      5  C   UNL     1       3.572  -2.888   0.000  0.00  0.00    +0.105 A 
ATOM      6  C   UNL     1       3.572  -3.712   0.000  0.00  0.00    +0.174 A 
ATOM      7  F   UNL     1       2.858  -4.125   0.000  0.00  0.00    -0.201 F 
ATOM      8  C   UNL     1       4.287  -4.125   0.000  0.00  0.00    +0.130 A 
ATOM      9  N   UNL     1       5.001  -3.712   0.000  0.00  0.00    -0.240 NA
ATOM     10  C   UNL     1       5.001  -2.888   0.000  0.00  0.00    +0.100 A 
ATOM     11  C   UNL     1       4.287  -2.475   0.000  0.00  0.00    +0.040 A 
ENDBRANCH   3   5
BRANCH   1  12
ATOM     12  C   UNL     1       0.715  -2.888   0.000  0.00  0.00    +0.119 C 
BRANCH  12  15
ATOM     13  O   UNL     1      -0.715  -3.712   0.000  0.00  0.00    -0.223 OA
ATOM     14  C   UNL     1      -0.715  -2.888   0.000  0.00  0.00    +0.154 C 
ATOM     15  C   UNL     1       0.000  -2.475   0.000  0.00  0.00    +0.052 C 
ATOM     16  C   UNL     1       0.000  -1.650   0.000  0.00  0.00    +0.004 C 
ATOM     17  C   UNL     1      -0.715  -1.238   0.000  0.00  0.00    +0.000 C 
ATOM     18  C   UNL     1      -1.429  -1.650   0.000  0.00  0.00    +0.003 C 
ATOM     19  C   UNL     1      -1.429  -2.475   0.000  0.00  0.00    +0.033 C 
ENDBRANCH  12  15
ENDBRANCH   1  12
TORSDOF 3
