REMARK  Name = 
REMARK  5 active torsions:
REMARK  status: ('A' for Active; 'I' for Inactive)
REMARK    1  A    between atoms: C_2  and  C_3
REMARK    2  A    between atoms: C_2  and  N_9
REMARK    3  A    between atoms: C_3  and  N_4
REMARK    4  A    between atoms: N_9  and  S_10
REMARK    5  A    between atoms: S_10  and  N_13
REMARK                            x       y       z     vdW  Elec       q    Type
REMARK                         _______ _______ _______ _____ _____    ______ ____
ROOT
ATOM      1  N   UNL     1       3.466  -1.299   0.000  0.00  0.00    -0.066 NA
ENDROOT
BRANCH   1   2
ATOM      2  S   UNL     1       4.180  -0.887   0.000  0.00  0.00    +0.116 S 
ATOM      3  O   UNL     1       3.768  -0.172   0.000  0.00  0.00    -0.140 OA
ATOM      4  O   UNL     1       4.593  -1.601   0.000  0.00  0.00    -0.140 OA
BRANCH   2   5
ATOM      5  N   UNL     1       4.895  -0.474   0.000  0.00  0.00    -0.144 NA
ATOM      6  C   UNL     1       5.609  -0.887   0.000  0.00  0.00    +0.097 C 
ATOM      7  C   UNL     1       6.324  -0.474   0.000  0.00  0.00    +0.019 C 
ATOM      8  C   UNL     1       6.324   0.351   0.000  0.00  0.00    +0.003 C 
ATOM      9  C   UNL     1       5.609   0.763   0.000  0.00  0.00    +0.019 C 
ATOM     10  C   UNL     1       4.895   0.351   0.000  0.00  0.00    +0.097 C 
ENDBRANCH   2   5
ENDBRANCH   1   2
BRANCH   1  12
ATOM     11  C   UNL     1       4.180  -2.537   0.000  0.00  0.00    +0.023 C 
ATOM     12  C   UNL     1       3.466  -2.124   0.000  0.00  0.00    +0.123 C 
BRANCH  12  13
ATOM     13  C   UNL     1       2.751  -2.537   0.000  0.00  0.00    +0.147 C 
BRANCH  13  14
ATOM     14  N   UNL     1       2.751  -3.362   0.000  0.00  0.00    -0.248 N 
ATOM     15  N   UNL     1       2.084  -3.846   0.000  0.00  0.00    -0.168 NA
ATOM     16  C   UNL     1       2.339  -4.631   0.000  0.00  0.00    +0.122 A 
ATOM     17  C   UNL     1       3.164  -4.631   0.000  0.00  0.00    +0.043 A 
ATOM     18  C   UNL     1       3.419  -3.846   0.000  0.00  0.00    +0.097 A 
ENDBRANCH  13  14
ENDBRANCH  12  13
ENDBRANCH   1  12
TORSDOF 5
