REMARK  Name = 
REMARK  2 active torsions:
REMARK  status: ('A' for Active; 'I' for Inactive)
REMARK    1  A    between atoms: C_2  and  C_3
REMARK    2  A    between atoms: C_3  and  N_4
REMARK                            x       y       z     vdW  Elec       q    Type
REMARK                         _______ _______ _______ _____ _____    ______ ____
ROOT
ATOM      1  N   UNL     1       0.743  -2.437   0.000  0.00  0.00    -0.184 NA
ATOM      2  C   UNL     1       1.457  -2.025   0.000  0.00  0.00    +0.345 C 
ATOM      3  N   UNL     1       2.171  -2.437   0.000  0.00  0.00    -0.136 NA
ATOM      4  C   UNL     1       2.886  -2.025   0.000  0.00  0.00    +0.187 A 
ATOM      5  S   UNL     1       3.640  -2.360   0.000  0.00  0.00    -0.049 S 
ATOM      6  C   UNL     1       4.192  -1.747   0.000  0.00  0.00    +0.059 A 
ATOM      7  C   UNL     1       3.779  -1.033   0.000  0.00  0.00    +0.108 A 
ATOM      8  N   UNL     1       2.972  -1.204   0.000  0.00  0.00    -0.221 NA
ATOM      9  O   UNL     1       1.457  -1.200   0.000  0.00  0.00    -0.249 OA
ENDROOT
BRANCH   1  10
ATOM     10  C   UNL     1       0.028  -2.025   0.000  0.00  0.00    +0.147 C 
BRANCH  10  12
ATOM     11  O   UNL     1      -0.274  -3.152   0.000  0.00  0.00    -0.224 OA
ATOM     12  C   UNL     1      -0.686  -2.437   0.000  0.00  0.00    +0.147 C 
ATOM     13  C   UNL     1      -1.099  -1.723   0.000  0.00  0.00    +0.032 C 
ATOM     14  C   UNL     1      -1.813  -2.135   0.000  0.00  0.00    +0.005 C 
ATOM     15  C   UNL     1      -1.401  -2.850   0.000  0.00  0.00    +0.032 C 
ENDBRANCH  10  12
ENDBRANCH   1  10
TORSDOF 2
