REMARK  Name = 
REMARK  7 active torsions:
REMARK  status: ('A' for Active; 'I' for Inactive)
REMARK    1  A    between atoms: N_4  and  C_5
REMARK    2  A    between atoms: C_5  and  C_6
REMARK    3  A    between atoms: C_6  and  C_8
REMARK    4  A    between atoms: C_8  and  N_9
REMARK    5  A    between atoms: N_9  and  C_10
REMARK    6  A    between atoms: C_10  and  C_11
REMARK    7  A    between atoms: C_11  and  N_12
REMARK                            x       y       z     vdW  Elec       q    Type
REMARK                         _______ _______ _______ _____ _____    ______ ____
ROOT
ATOM      1  C   UNL     1      -1.429   0.825   0.000  0.00  0.00    +0.185 C 
ATOM      2  O   UNL     1      -1.429   1.650   0.000  0.00  0.00    -0.220 OA
ENDROOT
BRANCH   1   3
ATOM      3  C   UNL     1      -0.715   0.412   0.000  0.00  0.00    +0.123 C 
BRANCH   3   4
ATOM      4  N   UNL     1       0.000   0.825   0.000  0.00  0.00    -0.213 NA
BRANCH   4   5
ATOM      5  C   UNL     1       0.715   0.412   0.000  0.00  0.00    +0.115 C 
BRANCH   5   6
ATOM      6  C   UNL     1       1.429   0.825   0.000  0.00  0.00    +0.146 C 
BRANCH   6   7
ATOM      7  N   UNL     1       2.143   0.412   0.000  0.00  0.00    -0.248 N 
ATOM      8  N   UNL     1       2.230  -0.408   0.000  0.00  0.00    -0.168 NA
ATOM      9  C   UNL     1       3.037  -0.580   0.000  0.00  0.00    +0.117 A 
ATOM     10  C   UNL     1       3.449   0.135   0.000  0.00  0.00    +0.018 A 
ATOM     11  C   UNL     1       4.270   0.221   0.000  0.00  0.00    +0.034 C 
ATOM     12  C   UNL     1       2.897   0.748   0.000  0.00  0.00    +0.092 A 
ENDBRANCH   6   7
ENDBRANCH   5   6
ENDBRANCH   4   5
ENDBRANCH   3   4
ENDBRANCH   1   3
BRANCH   1  13
ATOM     13  C   UNL     1      -2.143   0.412   0.000  0.00  0.00    +0.107 C 
BRANCH  13  20
ATOM     14  C   UNL     1      -3.572   2.888   0.000  0.00  0.00    +0.034 C 
ATOM     15  C   UNL     1      -3.572   2.062   0.000  0.00  0.00    +0.131 C 
ATOM     16  O   UNL     1      -4.287   1.650   0.000  0.00  0.00    -0.356 OA
ATOM     17  C   UNL     1      -4.287   0.825   0.000  0.00  0.00    +0.131 C 
ATOM     18  C   UNL     1      -5.001   0.412   0.000  0.00  0.00    +0.034 C 
ATOM     19  C   UNL     1      -3.572   0.412   0.000  0.00  0.00    +0.102 C 
ATOM     20  N   UNL     1      -2.858   0.825   0.000  0.00  0.00    -0.266 NA
ATOM     21  C   UNL     1      -2.858   1.650   0.000  0.00  0.00    +0.102 C 
ENDBRANCH  13  20
ENDBRANCH   1  13
TORSDOF 7
