REMARK  Name = 
REMARK  3 active torsions:
REMARK  status: ('A' for Active; 'I' for Inactive)
REMARK    1  A    between atoms: N_3  and  C_4
REMARK    2  A    between atoms: C_4  and  C_5
REMARK    3  A    between atoms: N_14  and  C_15
REMARK                            x       y       z     vdW  Elec       q    Type
REMARK                         _______ _______ _______ _____ _____    ______ ____
ROOT
ATOM      1  O   UNL     1       2.143  -2.888   0.000  0.00  0.00    -0.249 OA
ATOM      2  C   UNL     1       2.143  -2.062   0.000  0.00  0.00    +0.344 C 
ATOM      3  N   UNL     1       2.858  -1.650   0.000  0.00  0.00    -0.159 NA
ATOM      4  N   UNL     1       1.429  -1.650   0.000  0.00  0.00    -0.184 NA
ENDROOT
BRANCH   3   5
ATOM      5  C   UNL     1       3.572  -2.062   0.000  0.00  0.00    +0.094 A 
ATOM      6  C   UNL     1       3.572  -2.888   0.000  0.00  0.00    +0.115 A 
ATOM      7  N   UNL     1       4.287  -3.300   0.000  0.00  0.00    -0.241 NA
ATOM      8  C   UNL     1       5.001  -2.888   0.000  0.00  0.00    +0.099 A 
ATOM      9  C   UNL     1       5.001  -2.062   0.000  0.00  0.00    +0.022 A 
ATOM     10  C   UNL     1       4.287  -1.650   0.000  0.00  0.00    +0.020 A 
ENDBRANCH   3   5
BRANCH   4  11
ATOM     11  C   UNL     1       0.715  -2.062   0.000  0.00  0.00    +0.148 C 
BRANCH  11  12
ATOM     12  C   UNL     1       0.000  -1.650   0.000  0.00  0.00    +0.153 C 
ATOM     13  O   UNL     1       0.000  -0.825   0.000  0.00  0.00    -0.352 OA
ATOM     14  C   UNL     1      -0.715  -0.412   0.000  0.00  0.00    +0.158 C 
ATOM     15  C   UNL     1      -1.429  -0.825   0.000  0.00  0.00    +0.087 C 
ATOM     16  N   UNL     1      -1.429  -1.650   0.000  0.00  0.00    -0.270 NA
ATOM     17  C   UNL     1      -2.214  -1.905   0.000  0.00  0.00    +0.072 C 
ATOM     18  C   UNL     1      -2.699  -1.238   0.000  0.00  0.00    +0.019 C 
ATOM     19  C   UNL     1      -2.214  -0.570   0.000  0.00  0.00    +0.020 C 
ATOM     20  C   UNL     1      -0.715  -2.062   0.000  0.00  0.00    +0.104 C 
ENDBRANCH  11  12
ENDBRANCH   4  11
TORSDOF 3
