REMARK  Name = 
REMARK  4 active torsions:
REMARK  status: ('A' for Active; 'I' for Inactive)
REMARK    1  A    between atoms: C_7  and  C_9
REMARK    2  A    between atoms: N_11  and  C_12
REMARK    3  A    between atoms: C_12  and  C_13
REMARK    4  A    between atoms: C_13  and  C_14
REMARK                            x       y       z     vdW  Elec       q    Type
REMARK                         _______ _______ _______ _____ _____    ______ ____
ROOT
ATOM      1  C   UNL     1       1.387  -2.408   0.000  0.00  0.00    +0.243 C 
ATOM      2  N   UNL     1       2.102  -1.996   0.000  0.00  0.00    -0.205 NA
ATOM      3  O   UNL     1       1.387  -3.233   0.000  0.00  0.00    -0.273 OA
ENDROOT
BRANCH   1   8
ATOM      4  C   UNL     1      -1.939  -1.137   0.000  0.00  0.00    +0.095 C 
ATOM      5  C   UNL     1      -1.454  -1.804   0.000  0.00  0.00    +0.226 C 
ATOM      6  N   UNL     1      -0.633  -1.718   0.000  0.00  0.00    -0.279 N 
ATOM      7  C   UNL     1      -0.081  -2.331   0.000  0.00  0.00    +0.103 C 
ATOM      8  C   UNL     1       0.672  -1.996   0.000  0.00  0.00    +0.100 C 
ATOM      9  C   UNL     1       0.586  -1.175   0.000  0.00  0.00    +0.032 C 
ATOM     10  C   UNL     1      -0.221  -1.004   0.000  0.00  0.00    +0.094 C 
ATOM     11  O   UNL     1      -1.789  -2.558   0.000  0.00  0.00    -0.275 OA
ENDBRANCH   1   8
BRANCH   2  12
ATOM     12  C   UNL     1       2.816  -2.408   0.000  0.00  0.00    +0.120 C 
BRANCH  12  13
ATOM     13  C   UNL     1       3.530  -1.996   0.000  0.00  0.00    +0.058 C 
BRANCH  13  14
ATOM     14  C   UNL     1       4.245  -2.408   0.000  0.00  0.00    +0.024 A 
ATOM     15  C   UNL     1       4.331  -3.229   0.000  0.00  0.00    +0.062 A 
ATOM     16  C   UNL     1       3.718  -3.781   0.000  0.00  0.00    +0.052 C 
ATOM     17  N   UNL     1       5.138  -3.400   0.000  0.00  0.00    -0.247 NA
ATOM     18  C   UNL     1       5.551  -2.686   0.000  0.00  0.00    +0.088 A 
ATOM     19  C   UNL     1       6.371  -2.599   0.000  0.00  0.00    +0.059 C 
ATOM     20  S   UNL     1       4.999  -2.073   0.000  0.00  0.00    -0.075 S 
ENDBRANCH  13  14
ENDBRANCH  12  13
ENDBRANCH   2  12
TORSDOF 4
