REMARK  Name = 
REMARK  4 active torsions:
REMARK  status: ('A' for Active; 'I' for Inactive)
REMARK    1  A    between atoms: N_3  and  C_4
REMARK    2  A    between atoms: C_4  and  C_5
REMARK    3  A    between atoms: C_5  and  S_6
REMARK    4  A    between atoms: S_6  and  N_9
REMARK                            x       y       z     vdW  Elec       q    Type
REMARK                         _______ _______ _______ _____ _____    ______ ____
ROOT
ATOM      1  C   UNL     1       5.001  -2.062   0.000  0.00  0.00    +0.144 C 
ENDROOT
BRANCH   1  11
ATOM      2  O   UNL     1       6.430  -1.238   0.000  0.00  0.00    -0.249 OA
ATOM      3  C   UNL     1       5.716  -0.825   0.000  0.00  0.00    +0.345 C 
ATOM      4  N   UNL     1       5.716   0.000   0.000  0.00  0.00    -0.142 NA
ATOM      5  C   UNL     1       6.430   0.412   0.000  0.00  0.00    +0.156 A 
ATOM      6  N   UNL     1       7.145   0.000   0.000  0.00  0.00    -0.227 NA
ATOM      7  C   UNL     1       7.859   0.412   0.000  0.00  0.00    +0.100 A 
ATOM      8  C   UNL     1       7.859   1.238   0.000  0.00  0.00    +0.021 A 
ATOM      9  C   UNL     1       7.145   1.650   0.000  0.00  0.00    +0.005 A 
ATOM     10  C   UNL     1       6.430   1.238   0.000  0.00  0.00    +0.036 A 
ATOM     11  N   UNL     1       5.001  -1.238   0.000  0.00  0.00    -0.185 NA
ENDBRANCH   1  11
BRANCH   1  12
ATOM     12  C   UNL     1       4.287  -2.475   0.000  0.00  0.00    +0.192 C 
BRANCH  12  13
ATOM     13  S   UNL     1       4.287  -3.300   0.000  0.00  0.00    +0.046 S 
ATOM     14  O   UNL     1       3.462  -3.300   0.000  0.00  0.00    -0.157 OA
ATOM     15  O   UNL     1       5.112  -3.300   0.000  0.00  0.00    -0.157 OA
BRANCH  13  16
ATOM     16  N   UNL     1       4.287  -4.125   0.000  0.00  0.00    -0.158 NA
ATOM     17  C   UNL     1       3.572  -4.537   0.000  0.00  0.00    +0.107 C 
ATOM     18  C   UNL     1       3.572  -5.362   0.000  0.00  0.00    +0.077 C 
ATOM     19  S   UNL     1       4.287  -5.775   0.000  0.00  0.00    -0.137 S 
ATOM     20  C   UNL     1       5.001  -5.362   0.000  0.00  0.00    +0.077 C 
ATOM     21  C   UNL     1       5.001  -4.537   0.000  0.00  0.00    +0.107 C 
ENDBRANCH  13  16
ENDBRANCH  12  13
ENDBRANCH   1  12
TORSDOF 4
