REMARK  Name = 
REMARK  7 active torsions:
REMARK  status: ('A' for Active; 'I' for Inactive)
REMARK    1  A    between atoms: O_2  and  C_3
REMARK    2  A    between atoms: C_6  and  C_7
REMARK    3  A    between atoms: C_7  and  O_8
REMARK    4  A    between atoms: O_8  and  C_9
REMARK    5  A    between atoms: C_9  and  C_10
REMARK    6  A    between atoms: C_10  and  C_12
REMARK    7  A    between atoms: C_12  and  N_13
REMARK                            x       y       z     vdW  Elec       q    Type
REMARK                         _______ _______ _______ _____ _____    ______ ____
ROOT
ATOM      1  C   UNL     1       7.710  -0.851   0.000  0.00  0.00    +0.204 C 
ATOM      2  O   UNL     1       7.710  -0.026   0.000  0.00  0.00    -0.218 OA
ENDROOT
BRANCH   1   3
ATOM      3  C   UNL     1       8.425  -1.264   0.000  0.00  0.00    +0.143 C 
BRANCH   3   4
ATOM      4  N   UNL     1       9.139  -0.851   0.000  0.00  0.00    -0.312 N 
ATOM      5  C   UNL     1       9.893  -1.187   0.000  0.00  0.00    +0.079 A 
ATOM      6  C   UNL     1      10.445  -0.574   0.000  0.00  0.00    +0.098 A 
ATOM      7  C   UNL     1      11.252  -0.745   0.000  0.00  0.00    +0.021 A 
ATOM      8  C   UNL     1      11.507  -1.530   0.000  0.00  0.00    +0.002 A 
ATOM      9  C   UNL     1      10.955  -2.143   0.000  0.00  0.00    +0.002 A 
ATOM     10  N   UNL     1      10.033   0.141   0.000  0.00  0.00    -0.231 NA
ATOM     11  C   UNL     1      10.148  -1.971   0.000  0.00  0.00    +0.019 A 
ATOM     12  C   UNL     1       9.226  -0.031   0.000  0.00  0.00    +0.121 A 
ATOM     13  C   UNL     1       8.613   0.521   0.000  0.00  0.00    +0.072 C 
ENDBRANCH   3   4
ENDBRANCH   1   3
BRANCH   1  14
ATOM     14  C   UNL     1       6.996  -1.264   0.000  0.00  0.00    +0.177 C 
BRANCH  14  15
ATOM     15  O   UNL     1       6.282  -0.851   0.000  0.00  0.00    -0.346 OA
BRANCH  15  16
ATOM     16  C   UNL     1       5.567  -1.264   0.000  0.00  0.00    +0.169 C 
BRANCH  16  20
ATOM     17  C   UNL     1       3.424  -0.026   0.000  0.00  0.00    +0.139 A 
ATOM     18  C   UNL     1       3.424  -0.851   0.000  0.00  0.00    +0.037 A 
ATOM     19  C   UNL     1       4.138  -1.264   0.000  0.00  0.00    +0.001 A 
ATOM     20  C   UNL     1       4.853  -0.851   0.000  0.00  0.00    +0.007 A 
ATOM     21  C   UNL     1       4.853  -0.026   0.000  0.00  0.00    +0.001 A 
ATOM     22  C   UNL     1       4.138   0.386   0.000  0.00  0.00    +0.037 A 
BRANCH  17  24
ATOM     23  C   UNL     1       1.995  -0.026   0.000  0.00  0.00    +0.252 C 
ATOM     24  O   UNL     1       2.709   0.386   0.000  0.00  0.00    -0.471 OA
ENDBRANCH  17  24
ENDBRANCH  16  20
ENDBRANCH  15  16
ENDBRANCH  14  15
ENDBRANCH   1  14
TORSDOF 7
