REMARK  Name = 
REMARK  5 active torsions:
REMARK  status: ('A' for Active; 'I' for Inactive)
REMARK    1  A    between atoms: C_2  and  C_3
REMARK    2  A    between atoms: C_3  and  N_4
REMARK    3  A    between atoms: N_11  and  C_12
REMARK    4  A    between atoms: C_12  and  C_13
REMARK    5  A    between atoms: C_13  and  N_19
REMARK                            x       y       z     vdW  Elec       q    Type
REMARK                         _______ _______ _______ _____ _____    ______ ____
ROOT
ATOM      1  C   UNL     1      -0.012  -1.583   0.000  0.00  0.00    +0.130 C 
ENDROOT
BRANCH   1   2
ATOM      2  C   UNL     1       0.703  -1.996   0.000  0.00  0.00    +0.066 C 
ATOM      3  C   UNL     1       0.172  -2.627   0.000  0.00  0.00    +0.016 C 
ATOM      4  C   UNL     1       0.455  -3.403   0.000  0.00  0.00    +0.001 C 
ATOM      5  C   UNL     1       1.267  -3.546   0.000  0.00  0.00    +0.000 C 
ATOM      6  C   UNL     1       1.797  -2.914   0.000  0.00  0.00    +0.001 C 
ATOM      7  C   UNL     1       1.515  -2.139   0.000  0.00  0.00    +0.016 C 
BRANCH   2   8
ATOM      8  N   UNL     1       0.985  -1.220   0.000  0.00  0.00    -0.269 NA
ATOM      9  C   UNL     1       1.797  -1.077   0.000  0.00  0.00    +0.105 C 
ATOM     10  C   UNL     1       2.079  -0.302   0.000  0.00  0.00    +0.159 C 
ATOM     11  O   UNL     1       1.549   0.330   0.000  0.00  0.00    -0.351 OA
ATOM     12  C   UNL     1       0.737   0.187   0.000  0.00  0.00    +0.159 C 
ATOM     13  C   UNL     1       0.455  -0.588   0.000  0.00  0.00    +0.105 C 
ENDBRANCH   2   8
ENDBRANCH   1   2
BRANCH   1  16
ATOM     14  O   UNL     1      -1.441  -0.758   0.000  0.00  0.00    -0.271 OA
ATOM     15  C   UNL     1      -1.441  -1.583   0.000  0.00  0.00    +0.265 C 
ATOM     16  N   UNL     1      -0.726  -1.996   0.000  0.00  0.00    -0.202 NA
BRANCH  15  17
ATOM     17  C   UNL     1      -2.155  -1.996   0.000  0.00  0.00    +0.197 C 
BRANCH  17  18
ATOM     18  N   UNL     1      -2.870  -1.583   0.000  0.00  0.00    -0.269 N 
ATOM     19  C   UNL     1      -2.870  -0.758   0.000  0.00  0.00    +0.351 A 
ATOM     20  O   UNL     1      -2.155  -0.345   0.000  0.00  0.00    -0.244 OA
ATOM     21  N   UNL     1      -3.584  -0.345   0.000  0.00  0.00    -0.191 NA
ATOM     22  C   UNL     1      -4.299  -0.758   0.000  0.00  0.00    +0.105 A 
ATOM     23  C   UNL     1      -4.299  -1.583   0.000  0.00  0.00    +0.040 A 
ATOM     24  C   UNL     1      -3.584  -1.996   0.000  0.00  0.00    +0.082 A 
ENDBRANCH  17  18
ENDBRANCH  15  17
ENDBRANCH   1  16
TORSDOF 5
