REMARK  Name = 
REMARK  6 active torsions:
REMARK  status: ('A' for Active; 'I' for Inactive)
REMARK    1  A    between atoms: C_2  and  N_5
REMARK    2  A    between atoms: N_8  and  C_9
REMARK    3  A    between atoms: C_9  and  C_10
REMARK    4  A    between atoms: N_12  and  C_13
REMARK    5  A    between atoms: C_13  and  C_15
REMARK    6  A    between atoms: C_13  and  C_17
REMARK                            x       y       z     vdW  Elec       q    Type
REMARK                         _______ _______ _______ _____ _____    ______ ____
ROOT
ATOM      1  C   UNL     1       1.286   3.591   0.000  0.00  0.00    +0.199 C 
ENDROOT
BRANCH   1   5
ATOM      2  N   UNL     1       2.690   1.984   0.000  0.00  0.00    -0.204 N 
ATOM      3  C   UNL     1       2.519   2.791   0.000  0.00  0.00    +0.349 A 
ATOM      4  O   UNL     1       3.071   3.404   0.000  0.00  0.00    -0.245 OA
ATOM      5  N   UNL     1       1.698   2.877   0.000  0.00  0.00    -0.252 N 
ATOM      6  C   UNL     1       1.363   2.123   0.000  0.00  0.00    +0.203 A 
ATOM      7  N   UNL     1       1.976   1.571   0.000  0.00  0.00    -0.145 NA
BRANCH   2   9
ATOM      8  C   UNL     1       4.198   1.313   0.000  0.00  0.00    +0.025 C 
ATOM      9  C   UNL     1       3.444   1.648   0.000  0.00  0.00    +0.091 C 
ATOM     10  C   UNL     1       3.108   0.895   0.000  0.00  0.00    +0.025 C 
ATOM     11  C   UNL     1       3.780   2.402   0.000  0.00  0.00    +0.025 C 
ENDBRANCH   2   9
ENDBRANCH   1   5
BRANCH   1  12
ATOM     12  C   UNL     1       0.461   3.591   0.000  0.00  0.00    +0.265 C 
ATOM     13  N   UNL     1       0.048   4.306   0.000  0.00  0.00    -0.193 NA
ATOM     14  O   UNL     1       0.048   2.877   0.000  0.00  0.00    -0.271 OA
BRANCH  13  15
ATOM     15  C   UNL     1      -0.777   4.306   0.000  0.00  0.00    +0.157 C 
ATOM     16  C   UNL     1      -0.777   5.131   0.000  0.00  0.00    +0.037 C 
BRANCH  15  17
ATOM     17  C   UNL     1      -0.777   3.481   0.000  0.00  0.00    +0.032 C 
ATOM     18  C   UNL     1      -1.189   2.767   0.000  0.00  0.00    +0.003 C 
ATOM     19  C   UNL     1      -0.364   2.767   0.000  0.00  0.00    +0.003 C 
ENDBRANCH  15  17
BRANCH  15  20
ATOM     20  C   UNL     1      -1.602   4.306   0.000  0.00  0.00    +0.091 C 
ATOM     21  N   UNL     1      -2.427   4.306   0.000  0.00  0.00    -0.194 NA
ENDBRANCH  15  20
ENDBRANCH  13  15
ENDBRANCH   1  12
TORSDOF 6
