REMARK  Name = 
REMARK  4 active torsions:
REMARK  status: ('A' for Active; 'I' for Inactive)
REMARK    1  A    between atoms: C_2  and  C_4
REMARK    2  A    between atoms: C_4  and  C_5
REMARK    3  A    between atoms: C_4  and  N_18
REMARK    4  A    between atoms: C_5  and  N_6
REMARK                            x       y       z     vdW  Elec       q    Type
REMARK                         _______ _______ _______ _____ _____    ______ ____
ROOT
ATOM      1  C   UNL     1       1.429  -0.825   0.000  0.00  0.00    +0.133 C 
ENDROOT
BRANCH   1   2
ATOM      2  N   UNL     1       2.143  -1.238   0.000  0.00  0.00    -0.185 NA
ATOM      3  C   UNL     1       2.858  -0.825   0.000  0.00  0.00    +0.345 C 
ATOM      4  N   UNL     1       3.572  -1.238   0.000  0.00  0.00    -0.142 NA
ATOM      5  C   UNL     1       4.287  -0.825   0.000  0.00  0.00    +0.155 A 
ATOM      6  N   UNL     1       5.001  -1.238   0.000  0.00  0.00    -0.233 NA
ATOM      7  C   UNL     1       5.716  -0.825   0.000  0.00  0.00    +0.061 A 
ATOM      8  C   UNL     1       6.430  -1.238   0.000  0.00  0.00    +0.052 C 
ATOM      9  C   UNL     1       5.716   0.000   0.000  0.00  0.00    +0.011 A 
ATOM     10  C   UNL     1       5.001   0.412   0.000  0.00  0.00    -0.018 A 
ATOM     11  C   UNL     1       5.001   1.238   0.000  0.00  0.00    +0.031 C 
ATOM     12  C   UNL     1       4.287   0.000   0.000  0.00  0.00    +0.032 A 
ATOM     13  O   UNL     1       2.858   0.000   0.000  0.00  0.00    -0.249 OA
ENDBRANCH   1   2
BRANCH   1  14
ATOM     14  C   UNL     1       0.715  -1.238   0.000  0.00  0.00    +0.079 C 
BRANCH  14  15
ATOM     15  N   UNL     1       0.000  -0.825   0.000  0.00  0.00    -0.270 NA
ATOM     16  C   UNL     1       0.000   0.000   0.000  0.00  0.00    +0.090 C 
ATOM     17  C   UNL     1      -0.715   0.412   0.000  0.00  0.00    +0.090 C 
ATOM     18  N   UNL     1      -1.429   0.000   0.000  0.00  0.00    -0.269 NA
ATOM     19  C   UNL     1      -2.143   0.412   0.000  0.00  0.00    +0.090 C 
ATOM     20  C   UNL     1      -1.429  -0.825   0.000  0.00  0.00    +0.090 C 
ATOM     21  C   UNL     1      -0.715  -1.238   0.000  0.00  0.00    +0.090 C 
ENDBRANCH  14  15
BRANCH  14  23
ATOM     22  C   UNL     1       1.429  -2.475   0.000  0.00  0.00    +0.001 C 
ATOM     23  C   UNL     1       0.715  -2.062   0.000  0.00  0.00    +0.016 C 
ATOM     24  C   UNL     1       0.000  -2.475   0.000  0.00  0.00    +0.001 C 
ENDBRANCH  14  23
ENDBRANCH   1  14
TORSDOF 4
