REMARK  Name = 
REMARK  5 active torsions:
REMARK  status: ('A' for Active; 'I' for Inactive)
REMARK    1  A    between atoms: C_2  and  C_3
REMARK    2  A    between atoms: C_2  and  N_19
REMARK    3  A    between atoms: C_3  and  N_4
REMARK    4  A    between atoms: N_7  and  C_8
REMARK    5  A    between atoms: C_13  and  N_14
REMARK                            x       y       z     vdW  Elec       q    Type
REMARK                         _______ _______ _______ _____ _____    ______ ____
ROOT
ATOM      1  N   UNL     1       2.143  -1.238   0.000  0.00  0.00    -0.185 NA
ATOM      2  C   UNL     1       2.858  -0.825   0.000  0.00  0.00    +0.344 C 
ATOM      3  N   UNL     1       3.572  -1.238   0.000  0.00  0.00    -0.158 NA
ATOM      4  O   UNL     1       2.858   0.000   0.000  0.00  0.00    -0.249 OA
ENDROOT
BRANCH   3   5
ATOM      5  C   UNL     1       4.287  -0.825   0.000  0.00  0.00    +0.106 A 
ATOM      6  C   UNL     1       5.001  -1.238   0.000  0.00  0.00    +0.147 A 
ATOM      7  N   UNL     1       5.716  -0.825   0.000  0.00  0.00    -0.228 NA
ATOM      8  C   UNL     1       5.716   0.000   0.000  0.00  0.00    +0.100 A 
ATOM      9  C   UNL     1       5.001   0.412   0.000  0.00  0.00    +0.022 A 
ATOM     10  C   UNL     1       4.287   0.000   0.000  0.00  0.00    +0.021 A 
BRANCH   6  11
ATOM     11  N   UNL     1       5.001  -2.062   0.000  0.00  0.00    -0.292 N 
ATOM     12  C   UNL     1       4.334  -2.547   0.000  0.00  0.00    +0.092 C 
ATOM     13  C   UNL     1       4.589  -3.332   0.000  0.00  0.00    +0.023 C 
ATOM     14  C   UNL     1       5.414  -3.332   0.000  0.00  0.00    +0.023 C 
ATOM     15  C   UNL     1       5.669  -2.547   0.000  0.00  0.00    +0.092 C 
ENDBRANCH   6  11
ENDBRANCH   3   5
BRANCH   1  16
ATOM     16  C   UNL     1       1.429  -0.825   0.000  0.00  0.00    +0.133 C 
BRANCH  16  18
ATOM     17  C   UNL     1       0.715  -2.062   0.000  0.00  0.00    +0.019 C 
ATOM     18  C   UNL     1       0.715  -1.238   0.000  0.00  0.00    +0.079 C 
BRANCH  18  19
ATOM     19  N   UNL     1       0.000  -0.825   0.000  0.00  0.00    -0.268 NA
ATOM     20  C   UNL     1       0.000   0.000   0.000  0.00  0.00    +0.105 C 
ATOM     21  C   UNL     1      -0.715   0.412   0.000  0.00  0.00    +0.159 C 
ATOM     22  O   UNL     1      -1.429   0.000   0.000  0.00  0.00    -0.351 OA
ATOM     23  C   UNL     1      -1.429  -0.825   0.000  0.00  0.00    +0.159 C 
ATOM     24  C   UNL     1      -0.715  -1.238   0.000  0.00  0.00    +0.105 C 
ENDBRANCH  18  19
ENDBRANCH  16  18
ENDBRANCH   1  16
TORSDOF 5
