REMARK  Name = 
REMARK  4 active torsions:
REMARK  status: ('A' for Active; 'I' for Inactive)
REMARK    1  A    between atoms: C_6  and  N_8
REMARK    2  A    between atoms: N_11  and  C_12
REMARK    3  A    between atoms: C_12  and  C_13
REMARK    4  A    between atoms: C_13  and  C_14
REMARK                            x       y       z     vdW  Elec       q    Type
REMARK                         _______ _______ _______ _____ _____    ______ ____
ROOT
ATOM      1  N   UNL     1       2.143  -3.712   0.000  0.00  0.00    -0.188 NA
ATOM      2  C   UNL     1       2.858  -4.125   0.000  0.00  0.00    +0.339 C 
ATOM      3  N   UNL     1       3.572  -3.712   0.000  0.00  0.00    -0.187 NA
ATOM      4  O   UNL     1       2.858  -4.950   0.000  0.00  0.00    -0.249 OA
ENDROOT
BRANCH   1   8
ATOM      5  C   UNL     1       0.715  -6.188   0.000  0.00  0.00    +0.090 C 
ATOM      6  N   UNL     1       0.715  -5.362   0.000  0.00  0.00    -0.270 NA
ATOM      7  C   UNL     1       1.429  -4.950   0.000  0.00  0.00    +0.094 C 
ATOM      8  C   UNL     1       1.429  -4.125   0.000  0.00  0.00    +0.113 C 
ATOM      9  C   UNL     1       0.715  -3.712   0.000  0.00  0.00    +0.025 C 
ATOM     10  C   UNL     1       0.000  -4.125   0.000  0.00  0.00    +0.019 C 
ATOM     11  C   UNL     1       0.000  -4.950   0.000  0.00  0.00    +0.072 C 
ENDBRANCH   1   8
BRANCH   3  12
ATOM     12  C   UNL     1       4.287  -4.125   0.000  0.00  0.00    +0.121 C 
BRANCH  12  13
ATOM     13  C   UNL     1       5.001  -3.712   0.000  0.00  0.00    +0.050 C 
BRANCH  13  14
ATOM     14  C   UNL     1       5.716  -4.125   0.000  0.00  0.00    -0.017 A 
ATOM     15  C   UNL     1       5.716  -4.950   0.000  0.00  0.00    +0.016 A 
ATOM     16  C   UNL     1       6.430  -5.362   0.000  0.00  0.00    +0.099 A 
ATOM     17  N   UNL     1       7.145  -4.950   0.000  0.00  0.00    -0.242 NA
ATOM     18  C   UNL     1       7.145  -4.125   0.000  0.00  0.00    +0.099 A 
ATOM     19  C   UNL     1       6.430  -3.712   0.000  0.00  0.00    +0.016 A 
ENDBRANCH  13  14
ENDBRANCH  12  13
ENDBRANCH   3  12
TORSDOF 4
