REMARK  Name = 
REMARK  5 active torsions:
REMARK  status: ('A' for Active; 'I' for Inactive)
REMARK    1  A    between atoms: C_2  and  N_3
REMARK    2  A    between atoms: C_2  and  C_15
REMARK    3  A    between atoms: N_6  and  C_7
REMARK    4  A    between atoms: C_7  and  C_8
REMARK    5  A    between atoms: C_8  and  C_9
REMARK                            x       y       z     vdW  Elec       q    Type
REMARK                         _______ _______ _______ _____ _____    ______ ____
ROOT
ATOM      1  N   UNL     1       1.847  -1.211   0.000  0.00  0.00    -0.186 NA
ATOM      2  C   UNL     1       2.561  -1.624   0.000  0.00  0.00    +0.339 C 
ATOM      3  N   UNL     1       3.276  -1.211   0.000  0.00  0.00    -0.187 NA
ATOM      4  O   UNL     1       2.561  -2.449   0.000  0.00  0.00    -0.249 OA
ENDROOT
BRANCH   1   6
ATOM      5  C   UNL     1       1.132  -2.449   0.000  0.00  0.00    +0.026 C 
ATOM      6  C   UNL     1       1.132  -1.624   0.000  0.00  0.00    +0.124 C 
BRANCH   6   7
ATOM      7  C   UNL     1       0.418  -1.211   0.000  0.00  0.00    +0.135 C 
ATOM      8  O   UNL     1       0.331  -0.391   0.000  0.00  0.00    -0.354 OA
ATOM      9  C   UNL     1      -0.476  -0.219   0.000  0.00  0.00    +0.142 C 
ATOM     10  C   UNL     1      -0.888  -0.934   0.000  0.00  0.00    +0.035 C 
ATOM     11  C   UNL     1      -0.336  -1.547   0.000  0.00  0.00    +0.034 C 
ENDBRANCH   6   7
ENDBRANCH   1   6
BRANCH   3  12
ATOM     12  C   UNL     1       3.990  -1.624   0.000  0.00  0.00    +0.122 C 
BRANCH  12  13
ATOM     13  C   UNL     1       4.704  -1.211   0.000  0.00  0.00    +0.053 C 
BRANCH  13  14
ATOM     14  C   UNL     1       5.419  -1.624   0.000  0.00  0.00    +0.019 A 
ATOM     15  C   UNL     1       5.505  -2.444   0.000  0.00  0.00    +0.092 A 
ATOM     16  N   UNL     1       6.312  -2.616   0.000  0.00  0.00    -0.248 N 
ATOM     17  C   UNL     1       6.648  -3.369   0.000  0.00  0.00    +0.154 C 
ATOM     18  N   UNL     1       6.725  -1.901   0.000  0.00  0.00    -0.168 NA
ATOM     19  C   UNL     1       6.173  -1.288   0.000  0.00  0.00    +0.117 A 
ENDBRANCH  13  14
ENDBRANCH  12  13
ENDBRANCH   3  12
TORSDOF 5
