REMARK  Name = 
REMARK  5 active torsions:
REMARK  status: ('A' for Active; 'I' for Inactive)
REMARK    1  A    between atoms: C_2  and  S_3
REMARK    2  A    between atoms: S_3  and  C_4
REMARK    3  A    between atoms: C_8  and  N_9
REMARK    4  A    between atoms: N_12  and  C_13
REMARK    5  A    between atoms: C_15  and  C_16
REMARK                            x       y       z     vdW  Elec       q    Type
REMARK                         _______ _______ _______ _____ _____    ______ ____
ROOT
ATOM      1  N   UNL     1       2.143  -1.841   0.000  0.00  0.00    -0.188 NA
ATOM      2  C   UNL     1       1.971  -1.034   0.000  0.00  0.00    +0.345 C 
ATOM      3  N   UNL     1       1.187  -0.779   0.000  0.00  0.00    -0.142 NA
ATOM      4  O   UNL     1       2.584  -0.482   0.000  0.00  0.00    -0.249 OA
ENDROOT
BRANCH   3   5
ATOM      5  C   UNL     1       1.015   0.028   0.000  0.00  0.00    +0.154 A 
ATOM      6  N   UNL     1       1.567   0.641   0.000  0.00  0.00    -0.234 N 
ATOM      7  C   UNL     1       2.388   0.554   0.000  0.00  0.00    +0.155 C 
ATOM      8  N   UNL     1       1.155   1.355   0.000  0.00  0.00    -0.172 NA
ATOM      9  C   UNL     1       0.348   1.184   0.000  0.00  0.00    +0.081 A 
ATOM     10  C   UNL     1       0.262   0.363   0.000  0.00  0.00    +0.052 A 
BRANCH   9  11
ATOM     11  C   UNL     1      -0.265   1.736   0.000  0.00  0.00    +0.048 C 
ATOM     12  C   UNL     1      -1.050   1.481   0.000  0.00  0.00    +0.007 C 
ENDBRANCH   9  11
ENDBRANCH   3   5
BRANCH   1  14
ATOM     13  C   UNL     1       3.595  -1.611   0.000  0.00  0.00    +0.068 C 
ATOM     14  C   UNL     1       2.928  -2.096   0.000  0.00  0.00    +0.107 C 
ATOM     15  C   UNL     1       3.182  -2.881   0.000  0.00  0.00    +0.023 C 
ATOM     16  C   UNL     1       4.007  -2.881   0.000  0.00  0.00    +0.003 C 
ATOM     17  C   UNL     1       4.262  -2.096   0.000  0.00  0.00    +0.013 C 
BRANCH  13  18
ATOM     18  S   UNL     1       3.595  -0.786   0.000  0.00  0.00    -0.139 S 
BRANCH  18  20
ATOM     19  C   UNL     1       4.309   0.451   0.000  0.00  0.00    +0.013 C 
ATOM     20  C   UNL     1       4.309  -0.374   0.000  0.00  0.00    +0.058 C 
ENDBRANCH  18  20
ENDBRANCH  13  18
ENDBRANCH   1  14
TORSDOF 5
