REMARK  Name = 
REMARK  6 active torsions:
REMARK  status: ('A' for Active; 'I' for Inactive)
REMARK    1  A    between atoms: C_2  and  C_3
REMARK    2  A    between atoms: C_2  and  N_10
REMARK    3  A    between atoms: C_3  and  N_4
REMARK    4  A    between atoms: N_10  and  C_11
REMARK    5  A    between atoms: C_11  and  C_12
REMARK    6  A    between atoms: C_12  and  N_13
REMARK                            x       y       z     vdW  Elec       q    Type
REMARK                         _______ _______ _______ _____ _____    ______ ____
ROOT
ATOM      1  C   UNL     1       2.589  -3.422   0.000  0.00  0.00    +0.111 C 
ENDROOT
BRANCH   1   2
ATOM      2  N   UNL     1       1.874  -3.835   0.000  0.00  0.00    -0.216 NA
BRANCH   2   4
ATOM      3  C   UNL     1       1.160  -2.598   0.000  0.00  0.00    +0.021 C 
ATOM      4  C   UNL     1       1.160  -3.422   0.000  0.00  0.00    +0.097 C 
BRANCH   4   5
ATOM      5  C   UNL     1       0.445  -3.835   0.000  0.00  0.00    +0.145 C 
BRANCH   5   6
ATOM      6  N   UNL     1      -0.269  -3.422   0.000  0.00  0.00    -0.248 N 
ATOM      7  N   UNL     1      -0.355  -2.602   0.000  0.00  0.00    -0.168 NA
ATOM      8  C   UNL     1      -1.162  -2.430   0.000  0.00  0.00    +0.117 A 
ATOM      9  C   UNL     1      -1.575  -3.145   0.000  0.00  0.00    +0.018 A 
ATOM     10  C   UNL     1      -2.395  -3.231   0.000  0.00  0.00    +0.034 C 
ATOM     11  C   UNL     1      -1.023  -3.758   0.000  0.00  0.00    +0.092 A 
ENDBRANCH   5   6
ENDBRANCH   4   5
ENDBRANCH   2   4
ENDBRANCH   1   2
BRANCH   1  12
ATOM     12  C   UNL     1       3.303  -3.835   0.000  0.00  0.00    +0.121 C 
BRANCH  12  13
ATOM     13  N   UNL     1       4.018  -3.422   0.000  0.00  0.00    -0.210 N 
ATOM     14  C   UNL     1       4.771  -3.758   0.000  0.00  0.00    +0.250 C 
ATOM     15  O   UNL     1       4.943  -4.565   0.000  0.00  0.00    -0.273 OA
ATOM     16  C   UNL     1       5.323  -3.145   0.000  0.00  0.00    +0.149 C 
ATOM     17  C   UNL     1       5.875  -3.758   0.000  0.00  0.00    +0.031 C 
ATOM     18  C   UNL     1       5.991  -2.660   0.000  0.00  0.00    +0.031 C 
ATOM     19  N   UNL     1       4.911  -2.430   0.000  0.00  0.00    -0.183 NA
ATOM     20  C   UNL     1       4.104  -2.602   0.000  0.00  0.00    +0.329 C 
ATOM     21  O   UNL     1       3.491  -2.050   0.000  0.00  0.00    -0.250 OA
ENDBRANCH  12  13
ENDBRANCH   1  12
TORSDOF 6
