REMARK  Name = 
REMARK  6 active torsions:
REMARK  status: ('A' for Active; 'I' for Inactive)
REMARK    1  A    between atoms: C_2  and  C_5
REMARK    2  A    between atoms: C_5  and  C_6
REMARK    3  A    between atoms: C_12  and  C_13
REMARK    4  A    between atoms: N_15  and  C_16
REMARK    5  A    between atoms: C_16  and  C_17
REMARK    6  A    between atoms: C_17  and  C_18
REMARK                            x       y       z     vdW  Elec       q    Type
REMARK                         _______ _______ _______ _____ _____    ______ ____
ROOT
ATOM      1  C   UNL     1      -0.925  -3.618   0.000  0.00  0.00    +0.227 C 
ATOM      2  N   UNL     1      -0.754  -2.811   0.000  0.00  0.00    -0.262 N 
ATOM      3  C   UNL     1       0.000  -2.475   0.000  0.00  0.00    +0.165 C 
ATOM      4  C   UNL     1      -0.086  -1.655   0.000  0.00  0.00    +0.088 C 
ATOM      5  S   UNL     1      -0.893  -1.483   0.000  0.00  0.00    -0.116 S 
ATOM      6  C   UNL     1      -1.306  -2.197   0.000  0.00  0.00    +0.153 C 
ATOM      7  O   UNL     1      -0.312  -4.170   0.000  0.00  0.00    -0.275 OA
ENDROOT
BRANCH   3   8
ATOM      8  C   UNL     1       0.715  -2.888   0.000  0.00  0.00    +0.260 C 
ATOM      9  N   UNL     1       1.429  -2.475   0.000  0.00  0.00    -0.204 NA
ATOM     10  O   UNL     1       0.715  -3.712   0.000  0.00  0.00    -0.272 OA
BRANCH   9  11
ATOM     11  C   UNL     1       2.143  -2.888   0.000  0.00  0.00    +0.120 C 
BRANCH  11  12
ATOM     12  C   UNL     1       2.858  -2.475   0.000  0.00  0.00    +0.051 C 
BRANCH  12  13
ATOM     13  C   UNL     1       3.572  -2.888   0.000  0.00  0.00    -0.001 A 
ATOM     14  C   UNL     1       3.572  -3.712   0.000  0.00  0.00    +0.095 A 
ATOM     15  N   UNL     1       4.287  -4.125   0.000  0.00  0.00    -0.243 NA
ATOM     16  C   UNL     1       5.001  -3.712   0.000  0.00  0.00    +0.099 A 
ATOM     17  C   UNL     1       5.001  -2.888   0.000  0.00  0.00    +0.020 A 
ATOM     18  C   UNL     1       4.287  -2.475   0.000  0.00  0.00    -0.001 A 
ENDBRANCH  12  13
ENDBRANCH  11  12
ENDBRANCH   9  11
ENDBRANCH   3   8
BRANCH   1  19
ATOM     19  C   UNL     1      -1.710  -3.873   0.000  0.00  0.00    +0.085 C 
BRANCH  19  21
ATOM     20  C   UNL     1      -2.053  -5.486   0.000  0.00  0.00    +0.000 C 
ATOM     21  C   UNL     1      -1.881  -4.679   0.000  0.00  0.00    +0.009 C 
ATOM     22  C   UNL     1      -2.688  -4.508   0.000  0.00  0.00    +0.000 C 
ATOM     23  C   UNL     1      -1.074  -4.851   0.000  0.00  0.00    +0.000 C 
ENDBRANCH  19  21
ENDBRANCH   1  19
TORSDOF 6
