REMARK  Name = 
REMARK  2 active torsions:
REMARK  status: ('A' for Active; 'I' for Inactive)
REMARK    1  A    between atoms: C_7  and  N_8
REMARK    2  A    between atoms: N_11  and  C_12
REMARK                            x       y       z     vdW  Elec       q    Type
REMARK                         _______ _______ _______ _____ _____    ______ ____
ROOT
ATOM      1  N   UNL     1       2.143  -0.412   0.000  0.00  0.00    -0.189 NA
ATOM      2  C   UNL     1       2.143  -1.238   0.000  0.00  0.00    +0.344 C 
ATOM      3  N   UNL     1       2.858  -1.650   0.000  0.00  0.00    -0.157 NA
ATOM      4  O   UNL     1       1.429  -1.650   0.000  0.00  0.00    -0.249 OA
ENDROOT
BRANCH   1   7
ATOM      5  C   UNL     1       0.715  -1.238   0.000  0.00  0.00    +0.002 C 
ATOM      6  C   UNL     1       0.715  -0.412   0.000  0.00  0.00    +0.020 C 
ATOM      7  C   UNL     1       1.429   0.000   0.000  0.00  0.00    +0.097 C 
ATOM      8  C   UNL     1       1.429   0.825   0.000  0.00  0.00    +0.022 C 
ATOM      9  C   UNL     1       0.715   1.238   0.000  0.00  0.00    +0.002 C 
ATOM     10  C   UNL     1       0.000   0.825   0.000  0.00  0.00    +0.000 C 
ATOM     11  C   UNL     1       0.000   0.000   0.000  0.00  0.00    +0.002 C 
ENDBRANCH   1   7
BRANCH   3  12
ATOM     12  C   UNL     1       2.858  -2.475   0.000  0.00  0.00    +0.124 A 
ATOM     13  C   UNL     1       2.190  -2.960   0.000  0.00  0.00    +0.170 A 
ATOM     14  C   UNL     1       1.406  -2.705   0.000  0.00  0.00    +0.077 C 
ATOM     15  O   UNL     1       2.445  -3.744   0.000  0.00  0.00    -0.357 OA
ATOM     16  N   UNL     1       3.270  -3.744   0.000  0.00  0.00    -0.080 NA
ATOM     17  C   UNL     1       3.525  -2.960   0.000  0.00  0.00    +0.116 A 
ATOM     18  C   UNL     1       4.310  -2.705   0.000  0.00  0.00    +0.057 C 
ENDBRANCH   3  12
TORSDOF 2
