REMARK  Name = 
REMARK  4 active torsions:
REMARK  status: ('A' for Active; 'I' for Inactive)
REMARK    1  A    between atoms: C_2  and  N_3
REMARK    2  A    between atoms: C_5  and  N_6
REMARK    3  A    between atoms: N_9  and  C_10
REMARK    4  A    between atoms: N_12  and  C_13
REMARK                            x       y       z     vdW  Elec       q    Type
REMARK                         _______ _______ _______ _____ _____    ______ ____
ROOT
ATOM      1  N   UNL     1      -0.006   6.249   0.000  0.00  0.00    -0.158 NA
ATOM      2  C   UNL     1      -0.491   5.582   0.000  0.00  0.00    +0.344 C 
ATOM      3  N   UNL     1      -0.155   4.828   0.000  0.00  0.00    -0.186 NA
ATOM      4  O   UNL     1      -1.311   5.668   0.000  0.00  0.00    -0.249 OA
ENDROOT
BRANCH   3   5
ATOM      5  C   UNL     1      -0.640   4.161   0.000  0.00  0.00    +0.126 C 
ATOM      6  C   UNL     1      -1.465   4.161   0.000  0.00  0.00    +0.109 C 
ATOM      7  C   UNL     1      -1.720   3.376   0.000  0.00  0.00    +0.227 C 
ATOM      8  O   UNL     1      -2.505   3.121   0.000  0.00  0.00    -0.275 OA
ATOM      9  N   UNL     1      -1.053   2.891   0.000  0.00  0.00    -0.279 N 
ATOM     10  C   UNL     1      -0.385   3.376   0.000  0.00  0.00    +0.115 C 
BRANCH   9  11
ATOM     11  C   UNL     1      -1.053   2.066   0.000  0.00  0.00    +0.076 C 
ATOM     12  C   UNL     1      -1.465   1.352   0.000  0.00  0.00    +0.022 C 
ATOM     13  C   UNL     1      -0.640   1.352   0.000  0.00  0.00    +0.022 C 
ENDBRANCH   9  11
ENDBRANCH   3   5
BRANCH   1  17
ATOM     14  N   UNL     1      -0.481   8.331   0.000  0.00  0.00    -0.248 N 
ATOM     15  N   UNL     1      -1.235   7.995   0.000  0.00  0.00    -0.166 NA
ATOM     16  C   UNL     1      -1.149   7.175   0.000  0.00  0.00    +0.138 A 
ATOM     17  C   UNL     1      -0.342   7.003   0.000  0.00  0.00    +0.114 A 
ATOM     18  C   UNL     1       0.071   7.718   0.000  0.00  0.00    +0.113 A 
BRANCH  14  20
ATOM     19  C   UNL     1      -0.923   9.690   0.000  0.00  0.00    +0.028 C 
ATOM     20  C   UNL     1      -0.310   9.137   0.000  0.00  0.00    +0.128 C 
ENDBRANCH  14  20
ENDBRANCH   1  17
TORSDOF 4
