REMARK  Name = 
REMARK  4 active torsions:
REMARK  status: ('A' for Active; 'I' for Inactive)
REMARK    1  A    between atoms: N_3  and  C_4
REMARK    2  A    between atoms: C_8  and  C_10
REMARK    3  A    between atoms: N_13  and  C_14
REMARK    4  A    between atoms: C_17  and  C_20
REMARK                            x       y       z     vdW  Elec       q    Type
REMARK                         _______ _______ _______ _____ _____    ______ ____
ROOT
ATOM      1  O   UNL     1       2.143  -1.238   0.000  0.00  0.00    -0.249 OA
ATOM      2  C   UNL     1       1.429  -1.650   0.000  0.00  0.00    +0.344 C 
ATOM      3  N   UNL     1       0.715  -1.238   0.000  0.00  0.00    -0.158 NA
ATOM      4  N   UNL     1       1.429  -2.475   0.000  0.00  0.00    -0.189 NA
ENDROOT
BRANCH   3   5
ATOM      5  C   UNL     1       0.715  -0.412   0.000  0.00  0.00    +0.113 A 
ATOM      6  C   UNL     1       1.429   0.000   0.000  0.00  0.00    +0.118 A 
ATOM      7  N   UNL     1       1.429   0.825   0.000  0.00  0.00    -0.228 NA
ATOM      8  C   UNL     1       0.715   1.238   0.000  0.00  0.00    +0.139 A 
ATOM      9  N   UNL     1       0.000   0.825   0.000  0.00  0.00    -0.228 NA
ATOM     10  C   UNL     1       0.000   0.000   0.000  0.00  0.00    +0.118 A 
BRANCH   8  11
ATOM     11  C   UNL     1       0.715   2.062   0.000  0.00  0.00    +0.059 C 
ATOM     12  C   UNL     1       1.127   2.777   0.000  0.00  0.00    +0.008 C 
ATOM     13  C   UNL     1       0.302   2.777   0.000  0.00  0.00    +0.008 C 
ENDBRANCH   8  11
ENDBRANCH   3   5
BRANCH   4  14
ATOM     14  C   UNL     1       2.143  -2.888   0.000  0.00  0.00    +0.102 C 
ATOM     15  C   UNL     1       2.143  -3.712   0.000  0.00  0.00    +0.051 C 
ATOM     16  C   UNL     1       2.858  -4.125   0.000  0.00  0.00    +0.117 C 
ATOM     17  O   UNL     1       3.572  -3.712   0.000  0.00  0.00    -0.356 OA
ATOM     18  C   UNL     1       3.572  -2.888   0.000  0.00  0.00    +0.144 C 
ATOM     19  C   UNL     1       2.858  -2.475   0.000  0.00  0.00    +0.054 C 
BRANCH  16  20
ATOM     20  C   UNL     1       2.858  -4.950   0.000  0.00  0.00    +0.027 C 
ATOM     21  C   UNL     1       2.445  -5.665   0.000  0.00  0.00    +0.002 C 
ATOM     22  C   UNL     1       3.270  -5.665   0.000  0.00  0.00    +0.002 C 
ENDBRANCH  16  20
ENDBRANCH   4  14
TORSDOF 4
