REMARK  Name = 
REMARK  4 active torsions:
REMARK  status: ('A' for Active; 'I' for Inactive)
REMARK    1  A    between atoms: C_2  and  C_3
REMARK    2  A    between atoms: C_2  and  N_9
REMARK    3  A    between atoms: C_3  and  N_4
REMARK    4  A    between atoms: N_12  and  C_13
REMARK                            x       y       z     vdW  Elec       q    Type
REMARK                         _______ _______ _______ _____ _____    ______ ____
ROOT
ATOM      1  C   UNL     1       1.754  -2.277   0.000  0.00  0.00    +0.026 C 
ATOM      2  C   UNL     1       1.754  -1.452   0.000  0.00  0.00    +0.121 C 
ENDROOT
BRANCH   2   3
ATOM      3  N   UNL     1       2.469  -1.040   0.000  0.00  0.00    -0.187 NA
ATOM      4  C   UNL     1       3.183  -1.452   0.000  0.00  0.00    +0.339 C 
ATOM      5  N   UNL     1       3.897  -1.040   0.000  0.00  0.00    -0.189 NA
ATOM      6  O   UNL     1       3.183  -2.277   0.000  0.00  0.00    -0.249 OA
BRANCH   5   7
ATOM      7  C   UNL     1       4.612  -1.452   0.000  0.00  0.00    +0.097 C 
ATOM      8  C   UNL     1       5.024  -2.167   0.000  0.00  0.00    +0.023 C 
ATOM      9  C   UNL     1       5.437  -1.452   0.000  0.00  0.00    +0.023 C 
ENDBRANCH   5   7
ENDBRANCH   2   3
BRANCH   2  10
ATOM     10  C   UNL     1       1.040  -1.040   0.000  0.00  0.00    +0.149 C 
BRANCH  10  11
ATOM     11  N   UNL     1       0.325  -1.452   0.000  0.00  0.00    -0.248 N 
ATOM     12  N   UNL     1      -0.429  -1.117   0.000  0.00  0.00    -0.168 NA
ATOM     13  C   UNL     1      -0.981  -1.730   0.000  0.00  0.00    +0.122 A 
ATOM     14  C   UNL     1      -0.568  -2.444   0.000  0.00  0.00    +0.043 A 
ATOM     15  C   UNL     1       0.239  -2.272   0.000  0.00  0.00    +0.097 A 
ENDBRANCH  10  11
ENDBRANCH   2  10
TORSDOF 4
