REMARK  Name = 
REMARK  5 active torsions:
REMARK  status: ('A' for Active; 'I' for Inactive)
REMARK    1  A    between atoms: C_5  and  C_6
REMARK    2  A    between atoms: C_6  and  N_7
REMARK    3  A    between atoms: N_7  and  C_8
REMARK    4  A    between atoms: C_8  and  C_9
REMARK    5  A    between atoms: C_9  and  C_10
REMARK                            x       y       z     vdW  Elec       q    Type
REMARK                         _______ _______ _______ _____ _____    ______ ____
ROOT
ATOM      1  N   UNL     1       0.000   2.475   0.000  0.00  0.00    -0.218 NA
ENDROOT
BRANCH   1   2
ATOM      2  C   UNL     1      -0.715   2.062   0.000  0.00  0.00    +0.089 C 
BRANCH   2   7
ATOM      3  C   UNL     1      -3.572   3.712   0.000  0.00  0.00    +0.000 C 
ATOM      4  C   UNL     1      -2.858   3.300   0.000  0.00  0.00    +0.000 C 
ATOM      5  C   UNL     1      -2.858   2.475   0.000  0.00  0.00    +0.000 C 
ATOM      6  C   UNL     1      -2.143   2.062   0.000  0.00  0.00    +0.001 C 
ATOM      7  C   UNL     1      -1.429   2.475   0.000  0.00  0.00    +0.017 C 
ATOM      8  C   UNL     1      -1.429   3.300   0.000  0.00  0.00    +0.001 C 
ATOM      9  C   UNL     1      -2.143   3.712   0.000  0.00  0.00    +0.000 C 
ENDBRANCH   2   7
ENDBRANCH   1   2
BRANCH   1  10
ATOM     10  C   UNL     1       0.715   2.062   0.000  0.00  0.00    +0.097 C 
BRANCH  10  11
ATOM     11  C   UNL     1       1.429   2.475   0.000  0.00  0.00    +0.084 C 
BRANCH  11  12
ATOM     12  C   UNL     1       2.143   2.062   0.000  0.00  0.00    +0.139 A 
ATOM     13  N   UNL     1       2.230   1.242   0.000  0.00  0.00    -0.234 N 
ATOM     14  C   UNL     1       1.617   0.690   0.000  0.00  0.00    +0.155 C 
ATOM     15  N   UNL     1       3.037   1.071   0.000  0.00  0.00    -0.145 NA
ATOM     16  C   UNL     1       3.449   1.785   0.000  0.00  0.00    +0.221 A 
ATOM     17  N   UNL     1       2.897   2.398   0.000  0.00  0.00    -0.208 NA
ENDBRANCH  11  12
ENDBRANCH  10  11
ENDBRANCH   1  10
TORSDOF 5
