REMARK  Name = 
REMARK  3 active torsions:
REMARK  status: ('A' for Active; 'I' for Inactive)
REMARK    1  A    between atoms: C_2  and  C_5
REMARK    2  A    between atoms: N_11  and  C_12
REMARK    3  A    between atoms: C_12  and  C_13
REMARK                            x       y       z     vdW  Elec       q    Type
REMARK                         _______ _______ _______ _____ _____    ______ ____
ROOT
ATOM      1  C   UNL     1      -0.221  -1.004   0.000  0.00  0.00    +0.155 A 
ATOM      2  O   UNL     1      -0.633  -1.718   0.000  0.00  0.00    -0.356 OA
ATOM      3  N   UNL     1      -0.081  -2.331   0.000  0.00  0.00    -0.060 NA
ATOM      4  C   UNL     1       0.672  -1.996   0.000  0.00  0.00    +0.197 A 
ATOM      5  N   UNL     1       1.387  -2.408   0.000  0.00  0.00    -0.139 NA
ATOM      6  C   UNL     1       2.102  -1.996   0.000  0.00  0.00    +0.345 C 
ATOM      7  N   UNL     1       2.816  -2.408   0.000  0.00  0.00    -0.187 NA
ATOM      8  O   UNL     1       2.102  -1.171   0.000  0.00  0.00    -0.249 OA
ATOM      9  C   UNL     1       0.586  -1.175   0.000  0.00  0.00    +0.075 A 
ENDROOT
BRANCH   1  11
ATOM     10  C   UNL     1      -0.892   0.504   0.000  0.00  0.00    +0.008 C 
ATOM     11  C   UNL     1      -0.556  -0.250   0.000  0.00  0.00    +0.054 C 
ATOM     12  C   UNL     1       0.197   0.086   0.000  0.00  0.00    +0.008 C 
ATOM     13  C   UNL     1      -1.310  -0.586   0.000  0.00  0.00    +0.008 C 
ENDBRANCH   1  11
BRANCH   7  14
ATOM     14  C   UNL     1       3.530  -1.996   0.000  0.00  0.00    +0.119 C 
BRANCH  14  15
ATOM     15  C   UNL     1       4.245  -2.408   0.000  0.00  0.00    +0.052 C 
ATOM     16  C   UNL     1       4.331  -3.229   0.000  0.00  0.00    +0.154 C 
ATOM     17  O   UNL     1       3.718  -3.781   0.000  0.00  0.00    -0.223 OA
ATOM     18  C   UNL     1       5.138  -3.400   0.000  0.00  0.00    +0.033 C 
ATOM     19  C   UNL     1       5.551  -2.686   0.000  0.00  0.00    +0.003 C 
ATOM     20  C   UNL     1       4.999  -2.073   0.000  0.00  0.00    +0.004 C 
ENDBRANCH  14  15
ENDBRANCH   7  14
TORSDOF 3
