REMARK  Name = 
REMARK  7 active torsions:
REMARK  status: ('A' for Active; 'I' for Inactive)
REMARK    1  A    between atoms: O_2  and  C_3
REMARK    2  A    between atoms: C_5  and  C_23
REMARK    3  A    between atoms: C_8  and  O_9
REMARK    4  A    between atoms: O_9  and  C_10
REMARK    5  A    between atoms: C_10  and  C_11
REMARK    6  A    between atoms: C_11  and  C_13
REMARK    7  A    between atoms: C_13  and  N_14
REMARK                            x       y       z     vdW  Elec       q    Type
REMARK                         _______ _______ _______ _____ _____    ______ ____
ROOT
ATOM      1  C   UNL     1       4.208  -0.822   0.000  0.00  0.00    +0.240 C 
ENDROOT
BRANCH   1   2
ATOM      2  C   UNL     1       4.923  -0.410   0.000  0.00  0.00    +0.218 C 
ATOM      3  O   UNL     1       4.923   0.415   0.000  0.00  0.00    -0.217 OA
BRANCH   2   4
ATOM      4  C   UNL     1       5.637  -0.822   0.000  0.00  0.00    +0.144 C 
BRANCH   4   5
ATOM      5  N   UNL     1       6.351  -0.410   0.000  0.00  0.00    -0.306 N 
ATOM      6  C   UNL     1       7.105  -0.745   0.000  0.00  0.00    +0.079 A 
ATOM      7  C   UNL     1       7.657  -0.132   0.000  0.00  0.00    +0.099 A 
ATOM      8  C   UNL     1       8.464  -0.304   0.000  0.00  0.00    +0.021 A 
ATOM      9  C   UNL     1       8.719  -1.088   0.000  0.00  0.00    +0.002 A 
ATOM     10  C   UNL     1       8.167  -1.701   0.000  0.00  0.00    +0.002 A 
ATOM     11  N   UNL     1       7.245   0.582   0.000  0.00  0.00    -0.224 NA
ATOM     12  C   UNL     1       7.360  -1.530   0.000  0.00  0.00    +0.019 A 
ATOM     13  C   UNL     1       6.438   0.411   0.000  0.00  0.00    +0.179 A 
ENDBRANCH   4   5
ENDBRANCH   2   4
ENDBRANCH   1   2
BRANCH   1  14
ATOM     14  O   UNL     1       3.494  -0.410   0.000  0.00  0.00    -0.470 OA
BRANCH  14  16
ATOM     15  C   UNL     1       2.779  -1.647   0.000  0.00  0.00    +0.172 A 
ATOM     16  C   UNL     1       2.779  -0.822   0.000  0.00  0.00    +0.172 A 
ATOM     17  C   UNL     1       2.065  -0.410   0.000  0.00  0.00    +0.040 A 
ATOM     18  C   UNL     1       1.350  -0.822   0.000  0.00  0.00    +0.006 A 
ATOM     19  C   UNL     1       1.350  -1.647   0.000  0.00  0.00    +0.038 A 
ATOM     20  C   UNL     1       2.065  -2.060   0.000  0.00  0.00    +0.043 A 
BRANCH  19  21
ATOM     21  C   UNL     1       0.636  -2.060   0.000  0.00  0.00    +0.174 C 
ATOM     22  C   UNL     1      -0.079  -1.647   0.000  0.00  0.00    +0.077 C 
ATOM     23  O   UNL     1       0.636  -2.885   0.000  0.00  0.00    -0.291 OA
ENDBRANCH  19  21
BRANCH  15  25
ATOM     24  C   UNL     1       4.208  -1.647   0.000  0.00  0.00    +0.253 C 
ATOM     25  O   UNL     1       3.494  -2.060   0.000  0.00  0.00    -0.468 OA
ENDBRANCH  15  25
ENDBRANCH  14  16
ENDBRANCH   1  14
TORSDOF 7
