REMARK  Name = 
REMARK  1 active torsions:
REMARK  status: ('A' for Active; 'I' for Inactive)
REMARK    1  A    between atoms: C_6  and  C_7
REMARK                            x       y       z     vdW  Elec       q    Type
REMARK                         _______ _______ _______ _____ _____    ______ ____
ROOT
ATOM      1  O   UNL     1       0.715  -0.412   0.000  0.00  0.00    -0.273 OA
ATOM      2  C   UNL     1       0.715  -1.238   0.000  0.00  0.00    +0.245 C 
ATOM      3  C   UNL     1       0.047  -1.722   0.000  0.00  0.00    +0.104 C 
ATOM      4  C   UNL     1       0.302  -2.507   0.000  0.00  0.00    +0.037 C 
ATOM      5  C   UNL     1       1.127  -2.507   0.000  0.00  0.00    +0.116 C 
ATOM      6  N   UNL     1       1.382  -1.722   0.000  0.00  0.00    -0.205 NA
ENDROOT
BRANCH   3   7
ATOM      7  C   UNL     1      -0.738  -1.468   0.000  0.00  0.00    +0.005 A 
ATOM      8  C   UNL     1      -0.909  -0.660   0.000  0.00  0.00    +0.095 A 
ATOM      9  N   UNL     1      -1.694  -0.406   0.000  0.00  0.00    -0.243 NA
ATOM     10  C   UNL     1      -2.307  -0.958   0.000  0.00  0.00    +0.099 A 
ATOM     11  C   UNL     1      -2.135  -1.765   0.000  0.00  0.00    +0.020 A 
ATOM     12  C   UNL     1      -1.351  -2.019   0.000  0.00  0.00    -0.001 A 
ENDBRANCH   3   7
TORSDOF 1
