REMARK  Name = 
REMARK  5 active torsions:
REMARK  status: ('A' for Active; 'I' for Inactive)
REMARK    1  A    between atoms: C_2  and  C_5
REMARK    2  A    between atoms: C_5  and  C_6
REMARK    3  A    between atoms: C_5  and  N_13
REMARK    4  A    between atoms: C_6  and  C_7
REMARK    5  A    between atoms: N_13  and  C_14
REMARK                            x       y       z     vdW  Elec       q    Type
REMARK                         _______ _______ _______ _____ _____    ______ ____
ROOT
ATOM      1  C   UNL     1       3.744   1.841   0.000  0.00  0.00    +0.172 C 
ENDROOT
BRANCH   1   3
ATOM      2  F   UNL     1       4.872   2.143   0.000  0.00  0.00    -0.168 F 
ATOM      3  C   UNL     1       4.157   2.556   0.000  0.00  0.00    +0.412 C 
ATOM      4  F   UNL     1       4.569   3.270   0.000  0.00  0.00    -0.168 F 
ATOM      5  F   UNL     1       3.443   2.968   0.000  0.00  0.00    -0.168 F 
ENDBRANCH   1   3
BRANCH   1   6
ATOM      6  N   UNL     1       2.920   1.841   0.000  0.00  0.00    -0.212 NA
BRANCH   6   7
ATOM      7  C   UNL     1       2.507   1.127   0.000  0.00  0.00    +0.078 C 
ATOM      8  C   UNL     1       1.682   1.127   0.000  0.00  0.00    +0.046 C 
ATOM      9  C   UNL     1       1.270   0.412   0.000  0.00  0.00    +0.105 C 
ATOM     10  C   UNL     1       0.785   1.080   0.000  0.00  0.00    +0.085 C 
ATOM     11  S   UNL     1       0.000   0.825   0.000  0.00  0.00    -0.138 S 
ATOM     12  C   UNL     1       0.000   0.000   0.000  0.00  0.00    +0.060 C 
ATOM     13  C   UNL     1       0.785  -0.255   0.000  0.00  0.00    +0.040 C 
ATOM     14  O   UNL     1       1.682  -0.302   0.000  0.00  0.00    -0.358 OA
ATOM     15  C   UNL     1       2.507  -0.302   0.000  0.00  0.00    +0.143 C 
ATOM     16  C   UNL     1       2.920   0.412   0.000  0.00  0.00    +0.050 C 
ENDBRANCH   6   7
ENDBRANCH   1   6
BRANCH   1  17
ATOM     17  C   UNL     1       4.157   1.127   0.000  0.00  0.00    +0.053 C 
BRANCH  17  18
ATOM     18  C   UNL     1       4.982   1.127   0.000  0.00  0.00    -0.017 A 
ATOM     19  C   UNL     1       5.394   0.412   0.000  0.00  0.00    +0.016 A 
ATOM     20  C   UNL     1       6.220   0.412   0.000  0.00  0.00    +0.099 A 
ATOM     21  N   UNL     1       6.632   1.127   0.000  0.00  0.00    -0.242 NA
ATOM     22  C   UNL     1       6.220   1.841   0.000  0.00  0.00    +0.099 A 
ATOM     23  C   UNL     1       5.394   1.841   0.000  0.00  0.00    +0.016 A 
ENDBRANCH  17  18
ENDBRANCH   1  17
TORSDOF 5
