REMARK  Name = 
REMARK  5 active torsions:
REMARK  status: ('A' for Active; 'I' for Inactive)
REMARK    1  A    between atoms: C_2  and  N_3
REMARK    2  A    between atoms: C_2  and  C_10
REMARK    3  A    between atoms: N_12  and  C_13
REMARK    4  A    between atoms: C_13  and  C_14
REMARK    5  A    between atoms: C_14  and  N_15
REMARK                            x       y       z     vdW  Elec       q    Type
REMARK                         _______ _______ _______ _____ _____    ______ ____
ROOT
ATOM      1  C   UNL     1       3.878  -3.364   0.000  0.00  0.00    +0.256 C 
ATOM      2  N   UNL     1       4.592  -2.952   0.000  0.00  0.00    -0.202 NA
ATOM      3  O   UNL     1       3.878  -4.189   0.000  0.00  0.00    -0.272 OA
ENDROOT
BRANCH   1   5
ATOM      4  C   UNL     1       3.163  -2.127   0.000  0.00  0.00    +0.027 C 
ATOM      5  C   UNL     1       3.163  -2.952   0.000  0.00  0.00    +0.136 C 
BRANCH   5   6
ATOM      6  N   UNL     1       2.449  -3.364   0.000  0.00  0.00    -0.269 NA
ATOM      7  C   UNL     1       1.695  -3.029   0.000  0.00  0.00    +0.058 C 
ATOM      8  C   UNL     1       1.524  -2.222   0.000  0.00  0.00    +0.017 C 
ATOM      9  C   UNL     1       1.143  -3.642   0.000  0.00  0.00    +0.017 C 
ATOM     10  C   UNL     1       1.556  -4.356   0.000  0.00  0.00    +0.017 C 
ATOM     11  C   UNL     1       2.363  -4.185   0.000  0.00  0.00    +0.058 C 
ATOM     12  C   UNL     1       2.976  -4.737   0.000  0.00  0.00    +0.017 C 
ENDBRANCH   5   6
ENDBRANCH   1   5
BRANCH   2  13
ATOM     13  C   UNL     1       5.307  -3.364   0.000  0.00  0.00    +0.140 C 
BRANCH  13  14
ATOM     14  C   UNL     1       6.021  -2.952   0.000  0.00  0.00    +0.132 C 
BRANCH  14  15
ATOM     15  N   UNL     1       6.736  -3.364   0.000  0.00  0.00    -0.294 N 
ATOM     16  C   UNL     1       6.822  -4.185   0.000  0.00  0.00    +0.144 A 
ATOM     17  C   UNL     1       6.209  -4.737   0.000  0.00  0.00    +0.074 C 
ATOM     18  N   UNL     1       7.629  -4.356   0.000  0.00  0.00    -0.133 NA
ATOM     19  N   UNL     1       8.041  -3.642   0.000  0.00  0.00    -0.126 NA
ATOM     20  C   UNL     1       7.489  -3.029   0.000  0.00  0.00    +0.202 A 
ENDBRANCH  14  15
ENDBRANCH  13  14
ENDBRANCH   2  13
TORSDOF 5
