REMARK  Name = 
REMARK  7 active torsions:
REMARK  status: ('A' for Active; 'I' for Inactive)
REMARK    1  A    between atoms: N_3  and  C_11
REMARK    2  A    between atoms: C_11  and  C_21
REMARK    3  A    between atoms: C_16  and  C_17
REMARK    4  A    between atoms: C_16  and  C_30
REMARK    5  A    between atoms: C_21  and  C_26
REMARK    6  A    between atoms: O_24  and  C_25
REMARK    7  A    between atoms: O_24  and  C_26
REMARK                            x       y       z     vdW  Elec       q    Type
REMARK                         _______ _______ _______ _____ _____    ______ ____
ROOT
ATOM      1  C   UNL     1       3.312  -0.292   0.000  0.00  0.00    +0.157 A 
ATOM      2  N   UNL     1       2.504  -0.121   0.000  0.00  0.00    -0.264 N 
ATOM      3  C   UNL     1       2.250   0.667   0.000  0.00  0.00    +0.137 C 
ATOM      4  C   UNL     1       1.954  -0.733   0.000  0.00  0.00    +0.335 A 
ATOM      5  N   UNL     1       2.208  -1.517   0.000  0.00  0.00    -0.245 N 
ATOM      6  C   UNL     1       1.654  -2.129   0.000  0.00  0.00    +0.138 C 
ATOM      7  C   UNL     1       3.013  -1.688   0.000  0.00  0.00    +0.285 A 
ATOM      8  O   UNL     1       3.271  -2.475   0.000  0.00  0.00    -0.265 OA
ATOM      9  O   UNL     1       1.146  -0.562   0.000  0.00  0.00    -0.246 OA
ATOM     10  N   UNL     1       3.979   0.196   0.000  0.00  0.00    -0.236 N 
ATOM     11  C   UNL     1       4.646  -0.292   0.000  0.00  0.00    +0.453 A 
ATOM     12  N   UNL     1       4.392  -1.075   0.000  0.00  0.00    -0.156 NA
ATOM     13  N   UNL     1       5.429  -0.037   0.000  0.00  0.00    +0.120 N 
ATOM     14  O   UNL     1       6.046  -0.588   0.000  0.00  0.00    +0.045 OA
ATOM     15  O   UNL     1       5.604   0.771   0.000  0.00  0.00    -0.573 OA
ATOM     16  C   UNL     1       3.567  -1.075   0.000  0.00  0.00    +0.177 A 
ENDROOT
BRANCH  10  17
ATOM     17  C   UNL     1       3.979   1.021   0.000  0.00  0.00    +0.152 C 
BRANCH  17  18
ATOM     18  C   UNL     1       3.263   1.433   0.000  0.00  0.00    +0.218 C 
ATOM     19  O   UNL     1       3.263   2.258   0.000  0.00  0.00    -0.217 OA
BRANCH  18  20
ATOM     20  C   UNL     1       2.550   1.021   0.000  0.00  0.00    +0.240 C 
BRANCH  20  21
ATOM     21  O   UNL     1       1.833   1.433   0.000  0.00  0.00    -0.473 OA
BRANCH  21  22
ATOM     22  C   UNL     1       1.121   1.021   0.000  0.00  0.00    +0.139 A 
ATOM     23  C   UNL     1       0.408   1.433   0.000  0.00  0.00    +0.037 A 
ATOM     24  C   UNL     1      -0.308   1.021   0.000  0.00  0.00    +0.006 A 
ATOM     25  C   UNL     1      -0.308   0.196   0.000  0.00  0.00    +0.035 A 
ATOM     26  C   UNL     1       0.408  -0.217   0.000  0.00  0.00    +0.006 A 
ATOM     27  C   UNL     1       1.121   0.196   0.000  0.00  0.00    +0.037 A 
BRANCH  25  28
ATOM     28  C   UNL     1      -1.021  -0.217   0.000  0.00  0.00    +0.173 C 
ATOM     29  O   UNL     1      -1.738   0.196   0.000  0.00  0.00    -0.291 OA
BRANCH  28  30
ATOM     30  C   UNL     1      -1.021  -1.042   0.000  0.00  0.00    +0.069 C 
ATOM     31  C   UNL     1      -1.738  -1.454   0.000  0.00  0.00    +0.009 C 
ENDBRANCH  28  30
ENDBRANCH  25  28
ENDBRANCH  21  22
ENDBRANCH  20  21
ENDBRANCH  18  20
ENDBRANCH  17  18
ENDBRANCH  10  17
TORSDOF 7
