REMARK  Name = 
REMARK  5 active torsions:
REMARK  status: ('A' for Active; 'I' for Inactive)
REMARK    1  A    between atoms: C_1  and  C_2
REMARK    2  A    between atoms: C_1  and  N_10
REMARK    3  A    between atoms: C_2  and  O_3
REMARK    4  A    between atoms: O_3  and  C_4
REMARK    5  A    between atoms: C_4  and  C_5
REMARK                            x       y       z     vdW  Elec       q    Type
REMARK                         _______ _______ _______ _____ _____    ______ ____
ROOT
ATOM      1  C   UNL     1       4.287  -4.125   0.000  0.00  0.00    +0.147 C 
ENDROOT
BRANCH   1   2
ATOM      2  N   UNL     1       5.001  -3.712   0.000  0.00  0.00    -0.201 NA
ATOM      3  C   UNL     1       5.716  -4.125   0.000  0.00  0.00    +0.237 A 
ATOM      4  N   UNL     1       5.716  -4.950   0.000  0.00  0.00    -0.211 NA
ATOM      5  C   UNL     1       6.430  -5.362   0.000  0.00  0.00    +0.103 A 
ATOM      6  C   UNL     1       7.145  -4.950   0.000  0.00  0.00    +0.041 A 
ATOM      7  C   UNL     1       7.145  -4.125   0.000  0.00  0.00    +0.103 A 
ATOM      8  N   UNL     1       6.430  -3.712   0.000  0.00  0.00    -0.211 NA
ENDBRANCH   1   2
BRANCH   1   9
ATOM      9  C   UNL     1       3.572  -3.712   0.000  0.00  0.00    +0.166 C 
BRANCH   9  10
ATOM     10  O   UNL     1       2.858  -4.125   0.000  0.00  0.00    -0.352 OA
BRANCH  10  11
ATOM     11  C   UNL     1       2.143  -3.712   0.000  0.00  0.00    +0.145 C 
BRANCH  11  12
ATOM     12  C   UNL     1       1.429  -4.125   0.000  0.00  0.00    +0.062 C 
ATOM     13  C   UNL     1       0.675  -3.789   0.000  0.00  0.00    +0.145 C 
ATOM     14  O   UNL     1       0.123  -4.402   0.000  0.00  0.00    -0.354 OA
ATOM     15  C   UNL     1       0.536  -5.117   0.000  0.00  0.00    +0.142 C 
ATOM     16  C   UNL     1       1.343  -4.946   0.000  0.00  0.00    +0.037 C 
ENDBRANCH  11  12
ENDBRANCH  10  11
ENDBRANCH   9  10
ENDBRANCH   1   9
TORSDOF 5
