REMARK  Name = 
REMARK  2 active torsions:
REMARK  status: ('A' for Active; 'I' for Inactive)
REMARK    1  A    between atoms: C_2  and  N_4
REMARK    2  A    between atoms: C_7  and  N_8
REMARK                            x       y       z     vdW  Elec       q    Type
REMARK                         _______ _______ _______ _____ _____    ______ ____
ROOT
ATOM      1  N   UNL     1       1.854  -4.474   0.000  0.00  0.00    -0.179 NA
ATOM      2  C   UNL     1       1.033  -4.387   0.000  0.00  0.00    +0.345 C 
ATOM      3  N   UNL     1       0.548  -5.055   0.000  0.00  0.00    -0.142 NA
ATOM      4  C   UNL     1      -0.272  -4.969   0.000  0.00  0.00    +0.156 A 
ATOM      5  N   UNL     1      -0.608  -4.215   0.000  0.00  0.00    -0.225 NA
ATOM      6  C   UNL     1      -1.428  -4.129   0.000  0.00  0.00    +0.130 A 
ATOM      7  C   UNL     1      -1.913  -4.796   0.000  0.00  0.00    +0.159 A 
ATOM      8  F   UNL     1      -2.734  -4.710   0.000  0.00  0.00    -0.203 F 
ATOM      9  C   UNL     1      -1.577  -5.550   0.000  0.00  0.00    +0.034 A 
ATOM     10  C   UNL     1      -0.757  -5.636   0.000  0.00  0.00    +0.039 A 
ATOM     11  O   UNL     1       0.698  -3.634   0.000  0.00  0.00    -0.249 OA
ENDROOT
BRANCH   1  15
ATOM     12  N   UNL     1       2.751  -2.537   0.000  0.00  0.00    -0.280 N 
ATOM     13  C   UNL     1       2.084  -3.022   0.000  0.00  0.00    +0.246 C 
ATOM     14  O   UNL     1       1.299  -2.767   0.000  0.00  0.00    -0.273 OA
ATOM     15  C   UNL     1       2.339  -3.806   0.000  0.00  0.00    +0.175 C 
ATOM     16  C   UNL     1       3.164  -3.806   0.000  0.00  0.00    +0.053 C 
ATOM     17  C   UNL     1       3.419  -3.022   0.000  0.00  0.00    +0.096 C 
BRANCH  12  19
ATOM     18  C   UNL     1       3.466  -1.299   0.000  0.00  0.00    +0.022 C 
ATOM     19  C   UNL     1       2.751  -1.712   0.000  0.00  0.00    +0.075 C 
ATOM     20  C   UNL     1       2.037  -1.299   0.000  0.00  0.00    +0.022 C 
ENDBRANCH  12  19
ENDBRANCH   1  15
TORSDOF 2
