REMARK  Name = 
REMARK  5 active torsions:
REMARK  status: ('A' for Active; 'I' for Inactive)
REMARK    1  A    between atoms: C_5  and  N_8
REMARK    2  A    between atoms: N_11  and  C_12
REMARK    3  A    between atoms: C_15  and  O_16
REMARK    4  A    between atoms: O_16  and  C_17
REMARK    5  A    between atoms: C_17  and  C_18
REMARK                            x       y       z     vdW  Elec       q    Type
REMARK                         _______ _______ _______ _____ _____    ______ ____
ROOT
ATOM      1  C   UNL     1       1.429  -6.600   0.000  0.00  0.00    +0.094 A 
ATOM      2  C   UNL     1       0.715  -6.188   0.000  0.00  0.00    +0.119 A 
ATOM      3  N   UNL     1       0.000  -6.600   0.000  0.00  0.00    -0.209 NA
ATOM      4  C   UNL     1       0.000  -7.425   0.000  0.00  0.00    +0.225 A 
ATOM      5  C   UNL     1       0.715  -7.838   0.000  0.00  0.00    +0.059 A 
ATOM      6  C   UNL     1       1.429  -7.425   0.000  0.00  0.00    +0.023 A 
ENDROOT
BRANCH   1   9
ATOM      7  N   UNL     1       2.858  -4.950   0.000  0.00  0.00    -0.189 NA
ATOM      8  C   UNL     1       2.143  -5.362   0.000  0.00  0.00    +0.343 C 
ATOM      9  N   UNL     1       2.143  -6.188   0.000  0.00  0.00    -0.159 NA
ATOM     10  O   UNL     1       1.429  -4.950   0.000  0.00  0.00    -0.249 OA
BRANCH   7  15
ATOM     11  O   UNL     1       2.858  -1.650   0.000  0.00  0.00    -0.223 OA
ATOM     12  C   UNL     1       2.858  -2.475   0.000  0.00  0.00    +0.152 C 
ATOM     13  C   UNL     1       2.143  -2.888   0.000  0.00  0.00    +0.035 C 
ATOM     14  C   UNL     1       2.143  -3.712   0.000  0.00  0.00    +0.024 C 
ATOM     15  C   UNL     1       2.858  -4.125   0.000  0.00  0.00    +0.097 C 
ATOM     16  C   UNL     1       3.572  -3.712   0.000  0.00  0.00    +0.024 C 
ATOM     17  C   UNL     1       3.572  -2.888   0.000  0.00  0.00    +0.035 C 
ENDBRANCH   7  15
ENDBRANCH   1   9
BRANCH   4  18
ATOM     18  O   UNL     1      -0.715  -7.838   0.000  0.00  0.00    -0.451 OA
BRANCH  18  19
ATOM     19  C   UNL     1      -1.429  -7.425   0.000  0.00  0.00    +0.310 C 
BRANCH  19  20
ATOM     20  C   UNL     1      -2.143  -7.838   0.000  0.00  0.00    +0.438 C 
ATOM     21  F   UNL     1      -1.731  -8.552   0.000  0.00  0.00    -0.166 F 
ATOM     22  F   UNL     1      -2.556  -7.123   0.000  0.00  0.00    -0.166 F 
ATOM     23  F   UNL     1      -2.858  -8.250   0.000  0.00  0.00    -0.166 F 
ENDBRANCH  19  20
ENDBRANCH  18  19
ENDBRANCH   4  18
TORSDOF 5
