REMARK  Name = 
REMARK  4 active torsions:
REMARK  status: ('A' for Active; 'I' for Inactive)
REMARK    1  A    between atoms: C_2  and  C_4
REMARK    2  A    between atoms: C_4  and  N_5
REMARK    3  A    between atoms: C_8  and  C_9
REMARK    4  A    between atoms: N_12  and  C_13
REMARK                            x       y       z     vdW  Elec       q    Type
REMARK                         _______ _______ _______ _____ _____    ______ ____
ROOT
ATOM      1  N   UNL     1       1.841   4.014   0.000  0.00  0.00    -0.239 N 
ATOM      2  C   UNL     1       1.841   3.189   0.000  0.00  0.00    +0.334 A 
ATOM      3  O   UNL     1       1.127   2.777   0.000  0.00  0.00    -0.246 OA
ATOM      4  N   UNL     1       2.556   2.777   0.000  0.00  0.00    -0.281 N 
ATOM      5  C   UNL     1       3.270   3.189   0.000  0.00  0.00    +0.095 A 
ATOM      6  C   UNL     1       3.270   4.014   0.000  0.00  0.00    +0.142 A 
ATOM      7  C   UNL     1       2.556   4.427   0.000  0.00  0.00    +0.276 A 
ATOM      8  O   UNL     1       2.556   5.252   0.000  0.00  0.00    -0.266 OA
ENDROOT
BRANCH   4   9
ATOM      9  C   UNL     1       2.556   1.952   0.000  0.00  0.00    +0.090 C 
ATOM     10  C   UNL     1       2.143   1.238   0.000  0.00  0.00    +0.025 C 
ATOM     11  C   UNL     1       2.968   1.238   0.000  0.00  0.00    +0.025 C 
ENDBRANCH   4   9
BRANCH   6  12
ATOM     12  C   UNL     1       3.985   4.427   0.000  0.00  0.00    +0.107 C 
ATOM     13  N   UNL     1       4.699   4.840   0.000  0.00  0.00    -0.191 NA
ENDBRANCH   6  12
BRANCH   1  14
ATOM     14  C   UNL     1       1.127   4.427   0.000  0.00  0.00    +0.202 C 
BRANCH  14  16
ATOM     15  N   UNL     1      -0.302   4.427   0.000  0.00  0.00    -0.086 NA
ATOM     16  C   UNL     1       0.412   4.014   0.000  0.00  0.00    +0.284 C 
ATOM     17  O   UNL     1       0.412   3.189   0.000  0.00  0.00    -0.270 OA
ENDBRANCH  14  16
ENDBRANCH   1  14
TORSDOF 4
