REMARK  Name = 
REMARK  3 active torsions:
REMARK  status: ('A' for Active; 'I' for Inactive)
REMARK    1  A    between atoms: C_2  and  C_5
REMARK    2  A    between atoms: N_11  and  C_12
REMARK    3  A    between atoms: C_17  and  C_18
REMARK                            x       y       z     vdW  Elec       q    Type
REMARK                         _______ _______ _______ _____ _____    ______ ____
ROOT
ATOM      1  C   UNL     1       1.322  -2.537   0.000  0.00  0.00    +0.155 A 
ATOM      2  O   UNL     1       0.655  -3.022   0.000  0.00  0.00    -0.356 OA
ATOM      3  N   UNL     1       0.910  -3.806   0.000  0.00  0.00    -0.060 NA
ATOM      4  C   UNL     1       1.735  -3.806   0.000  0.00  0.00    +0.197 A 
ATOM      5  N   UNL     1       2.220  -4.474   0.000  0.00  0.00    -0.139 NA
ATOM      6  C   UNL     1       1.884  -5.227   0.000  0.00  0.00    +0.345 C 
ATOM      7  N   UNL     1       1.064  -5.314   0.000  0.00  0.00    -0.189 NA
ATOM      8  O   UNL     1       2.369  -5.895   0.000  0.00  0.00    -0.249 OA
ATOM      9  C   UNL     1       1.990  -3.022   0.000  0.00  0.00    +0.075 A 
ENDROOT
BRANCH   7  10
ATOM     10  C   UNL     1       0.728  -6.067   0.000  0.00  0.00    +0.099 C 
ATOM     11  C   UNL     1      -0.092  -6.153   0.000  0.00  0.00    +0.053 C 
ATOM     12  C   UNL     1      -0.428  -6.907   0.000  0.00  0.00    +0.004 C 
ATOM     13  C   UNL     1       0.057  -7.574   0.000  0.00  0.00    +0.000 C 
ATOM     14  C   UNL     1       0.877  -7.488   0.000  0.00  0.00    +0.002 C 
ATOM     15  C   UNL     1       1.213  -6.735   0.000  0.00  0.00    +0.022 C 
BRANCH  11  16
ATOM     16  C   UNL     1      -0.577  -5.486   0.000  0.00  0.00    +0.184 C 
ATOM     17  O   UNL     1      -0.242  -4.732   0.000  0.00  0.00    -0.220 OA
ENDBRANCH  11  16
ENDBRANCH   7  10
BRANCH   1  19
ATOM     18  C   UNL     1       1.322  -0.887   0.000  0.00  0.00    +0.008 C 
ATOM     19  C   UNL     1       1.322  -1.712   0.000  0.00  0.00    +0.054 C 
ATOM     20  C   UNL     1       2.147  -1.712   0.000  0.00  0.00    +0.008 C 
ATOM     21  C   UNL     1       0.497  -1.712   0.000  0.00  0.00    +0.008 C 
ENDBRANCH   1  19
TORSDOF 3
