REMARK  Name = 
REMARK  5 active torsions:
REMARK  status: ('A' for Active; 'I' for Inactive)
REMARK    1  A    between atoms: C_4  and  C_5
REMARK    2  A    between atoms: C_5  and  S_6
REMARK    3  A    between atoms: S_6  and  N_9
REMARK    4  A    between atoms: N_9  and  C_10
REMARK    5  A    between atoms: C_10  and  C_11
REMARK                            x       y       z     vdW  Elec       q    Type
REMARK                         _______ _______ _______ _____ _____    ______ ____
ROOT
ATOM      1  S   UNL     1       3.313  -6.052   0.000  0.00  0.00    +0.065 S 
ATOM      2  O   UNL     1       4.067  -6.388   0.000  0.00  0.00    -0.156 OA
ATOM      3  O   UNL     1       2.559  -5.717   0.000  0.00  0.00    -0.156 OA
ENDROOT
BRANCH   1   4
ATOM      4  C   UNL     1       3.649  -5.299   0.000  0.00  0.00    +0.237 C 
BRANCH   4   9
ATOM      5  C   UNL     1       2.751  -2.537   0.000  0.00  0.00    +0.056 C 
ATOM      6  C   UNL     1       2.751  -3.362   0.000  0.00  0.00    +0.101 A 
ATOM      7  N   UNL     1       2.084  -3.846   0.000  0.00  0.00    -0.082 NA
ATOM      8  O   UNL     1       2.339  -4.631   0.000  0.00  0.00    -0.356 OA
ATOM      9  C   UNL     1       3.164  -4.631   0.000  0.00  0.00    +0.180 A 
ATOM     10  C   UNL     1       3.419  -3.846   0.000  0.00  0.00    +0.055 A 
ENDBRANCH   4   9
ENDBRANCH   1   4
BRANCH   1  11
ATOM     11  N   UNL     1       2.978  -6.806   0.000  0.00  0.00    -0.082 NA
BRANCH  11  12
ATOM     12  C   UNL     1       3.462  -7.473   0.000  0.00  0.00    +0.115 C 
BRANCH  12  13
ATOM     13  C   UNL     1       3.127  -8.227   0.000  0.00  0.00    +0.019 C 
ATOM     14  C   UNL     1       2.306  -8.313   0.000  0.00  0.00    +0.001 C 
ATOM     15  C   UNL     1       1.971  -9.067   0.000  0.00  0.00    +0.000 C 
ATOM     16  C   UNL     1       2.456  -9.734   0.000  0.00  0.00    +0.000 C 
ATOM     17  C   UNL     1       3.276  -9.648   0.000  0.00  0.00    +0.000 C 
ATOM     18  C   UNL     1       3.612  -8.895   0.000  0.00  0.00    +0.001 C 
ENDBRANCH  12  13
ENDBRANCH  11  12
ENDBRANCH   1  11
TORSDOF 5
