REMARK  Name = 
REMARK  3 active torsions:
REMARK  status: ('A' for Active; 'I' for Inactive)
REMARK    1  A    between atoms: C_2  and  C_3
REMARK    2  A    between atoms: C_2  and  N_5
REMARK    3  A    between atoms: C_2  and  C_14
REMARK                            x       y       z     vdW  Elec       q    Type
REMARK                         _______ _______ _______ _____ _____    ______ ____
ROOT
ATOM      1  C   UNL     1       4.593  -1.601   0.000  0.00  0.00    +0.024 C 
ATOM      2  C   UNL     1       4.180  -0.887   0.000  0.00  0.00    +0.111 C 
ENDROOT
BRANCH   2   3
ATOM      3  N   UNL     1       3.466  -1.299   0.000  0.00  0.00    -0.188 NA
ATOM      4  C   UNL     1       3.466  -2.124   0.000  0.00  0.00    +0.345 C 
ATOM      5  N   UNL     1       2.751  -2.537   0.000  0.00  0.00    -0.134 NA
ATOM      6  C   UNL     1       2.751  -3.362   0.000  0.00  0.00    +0.209 A 
ATOM      7  S   UNL     1       2.084  -3.846   0.000  0.00  0.00    -0.027 S 
ATOM      8  C   UNL     1       2.339  -4.631   0.000  0.00  0.00    +0.161 A 
ATOM      9  N   UNL     1       3.164  -4.631   0.000  0.00  0.00    -0.137 NA
ATOM     10  N   UNL     1       3.419  -3.846   0.000  0.00  0.00    -0.123 NA
ATOM     11  O   UNL     1       4.180  -2.537   0.000  0.00  0.00    -0.249 OA
ENDBRANCH   2   3
BRANCH   2  12
ATOM     12  C   UNL     1       4.895  -0.474   0.000  0.00  0.00    +0.021 C 
ATOM     13  C   UNL     1       5.609  -0.887   0.000  0.00  0.00    +0.002 C 
ATOM     14  C   UNL     1       6.324  -0.474   0.000  0.00  0.00    +0.000 C 
ATOM     15  C   UNL     1       6.324   0.351   0.000  0.00  0.00    +0.000 C 
ATOM     16  C   UNL     1       5.609   0.763   0.000  0.00  0.00    +0.000 C 
ATOM     17  C   UNL     1       4.895   0.351   0.000  0.00  0.00    +0.002 C 
ENDBRANCH   2  12
BRANCH   2  18
ATOM     18  C   UNL     1       3.768  -0.172   0.000  0.00  0.00    +0.202 C 
ATOM     19  O   UNL     1       4.180   0.542   0.000  0.00  0.00    -0.219 OA
ENDBRANCH   2  18
TORSDOF 3
