REMARK  Name = 
REMARK  3 active torsions:
REMARK  status: ('A' for Active; 'I' for Inactive)
REMARK    1  A    between atoms: C_2  and  N_3
REMARK    2  A    between atoms: N_4  and  C_12
REMARK    3  A    between atoms: C_12  and  C_16
REMARK                            x       y       z     vdW  Elec       q    Type
REMARK                         _______ _______ _______ _____ _____    ______ ____
ROOT
ATOM      1  C   UNL     1       4.067   0.954   0.000  0.00  0.00    +0.149 A 
ATOM      2  N   UNL     1       3.279   1.208   0.000  0.00  0.00    -0.219 NA
ATOM      3  C   UNL     1       2.796   0.542   0.000  0.00  0.00    +0.180 A 
ATOM      4  N   UNL     1       3.279  -0.125   0.000  0.00  0.00    -0.292 N 
ATOM      5  C   UNL     1       4.067   0.129   0.000  0.00  0.00    +0.167 A 
ATOM      6  N   UNL     1       4.779  -0.283   0.000  0.00  0.00    -0.205 NA
ATOM      7  C   UNL     1       5.492   0.129   0.000  0.00  0.00    +0.201 A 
ATOM      8  N   UNL     1       5.492   0.954   0.000  0.00  0.00    -0.207 NA
ATOM      9  C   UNL     1       4.779   1.367   0.000  0.00  0.00    +0.154 A 
ENDROOT
BRANCH   9  10
ATOM     10  N   UNL     1       4.779   2.192   0.000  0.00  0.00    -0.287 N 
ATOM     11  C   UNL     1       5.492   2.604   0.000  0.00  0.00    +0.124 C 
ATOM     12  C   UNL     1       5.492   3.429   0.000  0.00  0.00    +0.163 C 
ATOM     13  O   UNL     1       4.779   3.842   0.000  0.00  0.00    -0.353 OA
ATOM     14  C   UNL     1       4.067   3.429   0.000  0.00  0.00    +0.136 C 
ATOM     15  C   UNL     1       3.350   3.842   0.000  0.00  0.00    +0.049 C 
ATOM     16  C   UNL     1       2.638   3.429   0.000  0.00  0.00    +0.075 C 
ATOM     17  N   UNL     1       2.638   2.604   0.000  0.00  0.00    -0.270 NA
ATOM     18  C   UNL     1       1.921   2.192   0.000  0.00  0.00    +0.090 C 
ATOM     19  C   UNL     1       3.350   2.192   0.000  0.00  0.00    +0.095 C 
ATOM     20  C   UNL     1       4.067   2.604   0.000  0.00  0.00    +0.117 C 
ENDBRANCH   9  10
BRANCH   4  21
ATOM     21  C   UNL     1       3.025  -0.912   0.000  0.00  0.00    +0.139 C 
BRANCH  21  22
ATOM     22  C   UNL     1       3.579  -1.525   0.000  0.00  0.00    +0.152 C 
ATOM     23  O   UNL     1       2.879  -1.962   0.000  0.00  0.00    -0.223 OA
ATOM     24  C   UNL     1       4.083  -0.875   0.000  0.00  0.00    +0.064 C 
ATOM     25  C   UNL     1       4.900  -0.988   0.000  0.00  0.00    +0.145 C 
ATOM     26  O   UNL     1       5.213  -1.754   0.000  0.00  0.00    -0.354 OA
ATOM     27  C   UNL     1       4.704  -2.404   0.000  0.00  0.00    +0.145 C 
ATOM     28  C   UNL     1       3.888  -2.288   0.000  0.00  0.00    +0.064 C 
ENDBRANCH  21  22
ENDBRANCH   4  21
TORSDOF 3
