REMARK  Name = 
REMARK  5 active torsions:
REMARK  status: ('A' for Active; 'I' for Inactive)
REMARK    1  A    between atoms: C_3  and  C_5
REMARK    2  A    between atoms: C_5  and  N_6
REMARK    3  A    between atoms: C_7  and  C_9
REMARK    4  A    between atoms: C_9  and  N_10
REMARK    5  A    between atoms: C_12  and  C_17
REMARK                            x       y       z     vdW  Elec       q    Type
REMARK                         _______ _______ _______ _____ _____    ______ ____
ROOT
ATOM      1  N   UNL     1       5.716  -4.125   0.000  0.00  0.00    -0.285 N 
ATOM      2  C   UNL     1       5.716  -4.950   0.000  0.00  0.00    +0.261 A 
ATOM      3  O   UNL     1       5.001  -5.362   0.000  0.00  0.00    -0.267 OA
ATOM      4  C   UNL     1       6.430  -5.362   0.000  0.00  0.00    +0.061 A 
ATOM      5  C   UNL     1       7.145  -4.950   0.000  0.00  0.00    +0.010 A 
ATOM      6  C   UNL     1       7.145  -4.125   0.000  0.00  0.00    +0.089 A 
ATOM      7  C   UNL     1       6.430  -3.712   0.000  0.00  0.00    +0.083 A 
ENDROOT
BRANCH   6   8
ATOM      8  C   UNL     1       7.859  -3.712   0.000  0.00  0.00    +0.420 C 
ATOM      9  F   UNL     1       7.447  -2.998   0.000  0.00  0.00    -0.166 F 
ATOM     10  F   UNL     1       8.272  -4.427   0.000  0.00  0.00    -0.166 F 
ATOM     11  F   UNL     1       8.574  -3.300   0.000  0.00  0.00    -0.166 F 
ENDBRANCH   6   8
BRANCH   1  12
ATOM     12  C   UNL     1       5.001  -3.712   0.000  0.00  0.00    +0.196 C 
BRANCH  12  14
ATOM     13  N   UNL     1       3.572  -3.712   0.000  0.00  0.00    -0.194 NA
ATOM     14  C   UNL     1       4.287  -4.125   0.000  0.00  0.00    +0.265 C 
ATOM     15  O   UNL     1       4.287  -4.950   0.000  0.00  0.00    -0.271 OA
BRANCH  13  16
ATOM     16  C   UNL     1       2.858  -4.125   0.000  0.00  0.00    +0.201 C 
BRANCH  16  19
ATOM     17  C   UNL     1       0.715  -3.712   0.000  0.00  0.00    +0.139 C 
ATOM     18  N   UNL     1       1.429  -4.125   0.000  0.00  0.00    -0.202 NA
ATOM     19  C   UNL     1       2.143  -3.712   0.000  0.00  0.00    +0.264 C 
ATOM     20  O   UNL     1       2.143  -2.888   0.000  0.00  0.00    -0.271 OA
ENDBRANCH  16  19
ENDBRANCH  13  16
ENDBRANCH  12  14
ENDBRANCH   1  12
TORSDOF 5
