REMARK  Name = 
REMARK  7 active torsions:
REMARK  status: ('A' for Active; 'I' for Inactive)
REMARK    1  A    between atoms: N_1  and  C_7
REMARK    2  A    between atoms: C_5  and  N_8
REMARK    3  A    between atoms: N_8  and  C_15
REMARK    4  A    between atoms: C_11  and  C_17
REMARK    5  A    between atoms: C_11  and  C_18
REMARK    6  A    between atoms: C_15  and  C_16
REMARK    7  A    between atoms: C_16  and  O_19
REMARK                            x       y       z     vdW  Elec       q    Type
REMARK                         _______ _______ _______ _____ _____    ______ ____
ROOT
ATOM      1  N   UNL     1       1.779  -0.254   0.000  0.00  0.00    -0.296 N 
ATOM      2  C   UNL     1       1.292   0.412   0.000  0.00  0.00    +0.180 A 
ATOM      3  N   UNL     1       1.779   1.083   0.000  0.00  0.00    -0.219 NA
ATOM      4  C   UNL     1       2.563   0.825   0.000  0.00  0.00    +0.149 A 
ATOM      5  C   UNL     1       3.275   1.238   0.000  0.00  0.00    +0.154 A 
ATOM      6  N   UNL     1       3.992   0.825   0.000  0.00  0.00    -0.207 NA
ATOM      7  C   UNL     1       3.992   0.000   0.000  0.00  0.00    +0.201 A 
ATOM      8  N   UNL     1       3.275  -0.412   0.000  0.00  0.00    -0.205 NA
ATOM      9  C   UNL     1       2.563   0.000   0.000  0.00  0.00    +0.167 A 
ENDROOT
BRANCH   1  10
ATOM     10  C   UNL     1       1.521  -1.038   0.000  0.00  0.00    +0.089 C 
ATOM     11  C   UNL     1       0.788  -1.413   0.000  0.00  0.00    +0.028 C 
ATOM     12  C   UNL     1       1.163  -2.146   0.000  0.00  0.00    +0.065 C 
ATOM     13  C   UNL     1       1.896  -1.771   0.000  0.00  0.00    +0.028 C 
BRANCH  12  14
ATOM     14  C   UNL     1       0.429  -2.521   0.000  0.00  0.00    +0.185 C 
ATOM     15  O   UNL     1      -0.267  -2.071   0.000  0.00  0.00    -0.220 OA
ENDBRANCH  12  14
BRANCH  12  16
ATOM     16  C   UNL     1       1.538  -2.884   0.000  0.00  0.00    +0.185 C 
ATOM     17  O   UNL     1       2.363  -2.925   0.000  0.00  0.00    -0.220 OA
ENDBRANCH  12  16
ENDBRANCH   1  10
BRANCH   5  18
ATOM     18  N   UNL     1       3.275   2.063   0.000  0.00  0.00    -0.288 N 
ATOM     19  C   UNL     1       2.563   2.475   0.000  0.00  0.00    +0.114 C 
BRANCH  18  20
ATOM     20  C   UNL     1       3.992   2.475   0.000  0.00  0.00    +0.119 C 
BRANCH  20  21
ATOM     21  C   UNL     1       3.992   3.300   0.000  0.00  0.00    +0.111 C 
ATOM     22  C   UNL     1       4.817   3.300   0.000  0.00  0.00    +0.031 C 
ATOM     23  C   UNL     1       3.167   3.300   0.000  0.00  0.00    +0.031 C 
BRANCH  21  24
ATOM     24  O   UNL     1       3.992   4.125   0.000  0.00  0.00    -0.354 OA
ATOM     25  C   UNL     1       4.705   4.534   0.000  0.00  0.00    +0.174 C 
ENDBRANCH  21  24
ENDBRANCH  20  21
ENDBRANCH  18  20
ENDBRANCH   5  18
TORSDOF 7
