REMARK  Name = 
REMARK  4 active torsions:
REMARK  status: ('A' for Active; 'I' for Inactive)
REMARK    1  A    between atoms: C_2  and  C_3
REMARK    2  A    between atoms: C_3  and  C_4
REMARK    3  A    between atoms: C_3  and  N_14
REMARK    4  A    between atoms: C_4  and  N_5
REMARK                            x       y       z     vdW  Elec       q    Type
REMARK                         _______ _______ _______ _____ _____    ______ ____
ROOT
ATOM      1  C   UNL     1       1.754  -0.627   0.000  0.00  0.00    +0.133 C 
ENDROOT
BRANCH   1   2
ATOM      2  N   UNL     1       2.469  -1.040   0.000  0.00  0.00    -0.185 NA
ATOM      3  C   UNL     1       3.183  -0.627   0.000  0.00  0.00    +0.345 C 
ATOM      4  N   UNL     1       3.897  -1.040   0.000  0.00  0.00    -0.134 NA
ATOM      5  C   UNL     1       4.612  -0.627   0.000  0.00  0.00    +0.209 A 
ATOM      6  S   UNL     1       5.366  -0.963   0.000  0.00  0.00    -0.027 S 
ATOM      7  C   UNL     1       5.918  -0.349   0.000  0.00  0.00    +0.161 A 
ATOM      8  N   UNL     1       5.505   0.365   0.000  0.00  0.00    -0.137 NA
ATOM      9  N   UNL     1       4.698   0.193   0.000  0.00  0.00    -0.123 NA
ATOM     10  O   UNL     1       3.183   0.198   0.000  0.00  0.00    -0.249 OA
ENDBRANCH   1   2
BRANCH   1  11
ATOM     11  C   UNL     1       1.040  -1.040   0.000  0.00  0.00    +0.079 C 
BRANCH  11  12
ATOM     12  N   UNL     1       0.325  -0.627   0.000  0.00  0.00    -0.272 NA
ATOM     13  C   UNL     1       0.239   0.193   0.000  0.00  0.00    +0.072 C 
ATOM     14  C   UNL     1      -0.568   0.365   0.000  0.00  0.00    +0.019 C 
ATOM     15  C   UNL     1      -0.981  -0.349   0.000  0.00  0.00    +0.019 C 
ATOM     16  C   UNL     1      -0.429  -0.963   0.000  0.00  0.00    +0.072 C 
ENDBRANCH  11  12
BRANCH  11  18
ATOM     17  C   UNL     1       0.325  -2.277   0.000  0.00  0.00    +0.001 C 
ATOM     18  C   UNL     1       1.040  -1.865   0.000  0.00  0.00    +0.018 C 
ENDBRANCH  11  18
ENDBRANCH   1  11
TORSDOF 4
