REMARK  Name = 
REMARK  7 active torsions:
REMARK  status: ('A' for Active; 'I' for Inactive)
REMARK    1  A    between atoms: O_2  and  C_3
REMARK    2  A    between atoms: C_3  and  C_4
REMARK    3  A    between atoms: C_4  and  N_5
REMARK    4  A    between atoms: C_7  and  N_8
REMARK    5  A    between atoms: C_9  and  C_11
REMARK    6  A    between atoms: C_11  and  O_12
REMARK    7  A    between atoms: O_12  and  C_13
REMARK                            x       y       z     vdW  Elec       q    Type
REMARK                         _______ _______ _______ _____ _____    ______ ____
ROOT
ATOM      1  N   UNL     1       0.715  -2.888   0.000  0.00  0.00    -0.176 NA
ATOM      2  C   UNL     1       1.429  -2.475   0.000  0.00  0.00    +0.276 C 
ATOM      3  O   UNL     1       1.429  -1.650   0.000  0.00  0.00    -0.270 OA
ENDROOT
BRANCH   1   9
ATOM      4  N   UNL     1      -0.715  -1.238   0.000  0.00  0.00    -0.290 N 
ATOM      5  C   UNL     1      -1.429  -1.650   0.000  0.00  0.00    +0.261 A 
ATOM      6  O   UNL     1      -2.143  -1.238   0.000  0.00  0.00    -0.267 OA
ATOM      7  C   UNL     1      -1.429  -2.475   0.000  0.00  0.00    +0.062 A 
ATOM      8  C   UNL     1      -0.715  -2.888   0.000  0.00  0.00    +0.023 A 
ATOM      9  C   UNL     1       0.000  -2.475   0.000  0.00  0.00    +0.091 A 
ATOM     10  C   UNL     1       0.000  -1.650   0.000  0.00  0.00    +0.095 A 
BRANCH   4  11
ATOM     11  C   UNL     1      -0.715  -0.412   0.000  0.00  0.00    +0.141 C 
BRANCH  11  12
ATOM     12  C   UNL     1      -1.429   0.000   0.000  0.00  0.00    +0.167 C 
BRANCH  12  14
ATOM     13  C   UNL     1      -2.143   1.238   0.000  0.00  0.00    +0.174 C 
ATOM     14  O   UNL     1      -1.429   0.825   0.000  0.00  0.00    -0.349 OA
ENDBRANCH  12  14
ENDBRANCH  11  12
ENDBRANCH   4  11
ENDBRANCH   1   9
BRANCH   2  15
ATOM     15  C   UNL     1       2.143  -2.888   0.000  0.00  0.00    +0.229 C 
BRANCH  15  16
ATOM     16  O   UNL     1       2.858  -2.475   0.000  0.00  0.00    -0.347 OA
BRANCH  16  17
ATOM     17  C   UNL     1       3.572  -2.888   0.000  0.00  0.00    +0.116 C 
ATOM     18  C   UNL     1       3.572  -3.712   0.000  0.00  0.00    +0.027 C 
ATOM     19  C   UNL     1       2.858  -4.125   0.000  0.00  0.00    +0.002 C 
ATOM     20  C   UNL     1       4.287  -4.125   0.000  0.00  0.00    +0.002 C 
ATOM     21  C   UNL     1       5.001  -3.712   0.000  0.00  0.00    +0.000 C 
ATOM     22  C   UNL     1       5.001  -2.888   0.000  0.00  0.00    +0.002 C 
ATOM     23  C   UNL     1       4.287  -2.475   0.000  0.00  0.00    +0.030 C 
ENDBRANCH  16  17
ENDBRANCH  15  16
ENDBRANCH   2  15
TORSDOF 7
