REMARK  Name = 
REMARK  3 active torsions:
REMARK  status: ('A' for Active; 'I' for Inactive)
REMARK    1  A    between atoms: N_3  and  C_4
REMARK    2  A    between atoms: N_15  and  C_16
REMARK    3  A    between atoms: C_19  and  C_22
REMARK                            x       y       z     vdW  Elec       q    Type
REMARK                         _______ _______ _______ _____ _____    ______ ____
ROOT
ATOM      1  O   UNL     1       4.726   2.264   0.000  0.00  0.00    -0.249 OA
ATOM      2  C   UNL     1       3.915   2.417   0.000  0.00  0.00    +0.344 C 
ATOM      3  N   UNL     1       3.642   3.196   0.000  0.00  0.00    -0.158 NA
ATOM      4  N   UNL     1       3.377   1.792   0.000  0.00  0.00    -0.189 NA
ENDROOT
BRANCH   4   5
ATOM      5  C   UNL     1       3.650   1.013   0.000  0.00  0.00    +0.101 C 
ATOM      6  C   UNL     1       3.292   0.269   0.000  0.00  0.00    +0.044 C 
ATOM      7  C   UNL     1       2.614   0.739   0.000  0.00  0.00    +0.004 C 
ATOM      8  C   UNL     1       1.958   0.239   0.000  0.00  0.00    +0.000 C 
ATOM      9  C   UNL     1       2.231  -0.540   0.000  0.00  0.00    +0.000 C 
ATOM     10  C   UNL     1       3.055  -0.521   0.000  0.00  0.00    +0.004 C 
ATOM     11  C   UNL     1       4.036  -0.088   0.000  0.00  0.00    +0.118 C 
ATOM     12  O   UNL     1       4.632  -0.658   0.000  0.00  0.00    -0.356 OA
ATOM     13  C   UNL     1       5.359  -0.267   0.000  0.00  0.00    +0.142 C 
ATOM     14  C   UNL     1       5.211   0.545   0.000  0.00  0.00    +0.036 C 
ATOM     15  C   UNL     1       4.394   0.655   0.000  0.00  0.00    +0.050 C 
ENDBRANCH   4   5
BRANCH   3  16
ATOM     16  C   UNL     1       4.180   3.821   0.000  0.00  0.00    +0.113 A 
ATOM     17  C   UNL     1       4.991   3.668   0.000  0.00  0.00    +0.118 A 
ATOM     18  N   UNL     1       5.529   4.294   0.000  0.00  0.00    -0.228 NA
ATOM     19  C   UNL     1       5.256   5.072   0.000  0.00  0.00    +0.139 A 
ATOM     20  N   UNL     1       4.445   5.225   0.000  0.00  0.00    -0.228 NA
ATOM     21  C   UNL     1       3.908   4.600   0.000  0.00  0.00    +0.118 A 
BRANCH  19  22
ATOM     22  C   UNL     1       5.794   5.698   0.000  0.00  0.00    +0.059 C 
ATOM     23  C   UNL     1       6.572   5.971   0.000  0.00  0.00    +0.008 C 
ATOM     24  C   UNL     1       5.947   6.508   0.000  0.00  0.00    +0.008 C 
ENDBRANCH  19  22
ENDBRANCH   3  16
TORSDOF 3
