REMARK  Name = 
REMARK  7 active torsions:
REMARK  status: ('A' for Active; 'I' for Inactive)
REMARK    1  A    between atoms: O_2  and  C_3
REMARK    2  A    between atoms: C_3  and  C_4
REMARK    3  A    between atoms: C_4  and  O_5
REMARK    4  A    between atoms: O_5  and  C_6
REMARK    5  A    between atoms: C_9  and  C_10
REMARK    6  A    between atoms: C_10  and  N_11
REMARK    7  A    between atoms: C_12  and  C_14
REMARK                            x       y       z     vdW  Elec       q    Type
REMARK                         _______ _______ _______ _____ _____    ______ ____
ROOT
ATOM      1  C   UNL     1       5.716  -4.125   0.000  0.00  0.00    +0.143 C 
ENDROOT
BRANCH   1   5
ATOM      2  C   UNL     1       3.572  -2.888   0.000  0.00  0.00    +0.225 A 
ATOM      3  N   UNL     1       3.572  -3.712   0.000  0.00  0.00    -0.210 NA
ATOM      4  C   UNL     1       4.287  -4.125   0.000  0.00  0.00    +0.099 A 
ATOM      5  C   UNL     1       5.001  -3.712   0.000  0.00  0.00    +0.019 A 
ATOM      6  C   UNL     1       5.001  -2.888   0.000  0.00  0.00    +0.004 A 
ATOM      7  C   UNL     1       4.287  -2.475   0.000  0.00  0.00    +0.057 A 
BRANCH   2   8
ATOM      8  O   UNL     1       2.858  -2.475   0.000  0.00  0.00    -0.457 OA
BRANCH   8   9
ATOM      9  C   UNL     1       2.143  -2.888   0.000  0.00  0.00    +0.239 C 
BRANCH   9  10
ATOM     10  C   UNL     1       1.429  -2.475   0.000  0.00  0.00    +0.189 C 
BRANCH  10  12
ATOM     11  C   UNL     1       0.000  -2.475   0.000  0.00  0.00    +0.174 C 
ATOM     12  O   UNL     1       0.715  -2.888   0.000  0.00  0.00    -0.347 OA
ENDBRANCH  10  12
ENDBRANCH   9  10
ENDBRANCH   8   9
ENDBRANCH   2   8
ENDBRANCH   1   5
BRANCH   1  13
ATOM     13  N   UNL     1       6.430  -3.712   0.000  0.00  0.00    -0.199 NA
ATOM     14  C   UNL     1       7.145  -4.125   0.000  0.00  0.00    +0.260 C 
ATOM     15  O   UNL     1       7.145  -4.950   0.000  0.00  0.00    -0.272 OA
BRANCH  14  16
ATOM     16  C   UNL     1       7.859  -3.712   0.000  0.00  0.00    +0.154 C 
ATOM     17  N   UNL     1       8.613  -4.048   0.000  0.00  0.00    -0.273 N 
ATOM     18  C   UNL     1       8.784  -4.855   0.000  0.00  0.00    +0.226 C 
ATOM     19  C   UNL     1       8.171  -5.407   0.000  0.00  0.00    +0.095 C 
ATOM     20  O   UNL     1       9.569  -5.110   0.000  0.00  0.00    -0.275 OA
ATOM     21  C   UNL     1       9.165  -3.435   0.000  0.00  0.00    +0.094 C 
ATOM     22  C   UNL     1       8.752  -2.720   0.000  0.00  0.00    +0.024 C 
ATOM     23  C   UNL     1       7.945  -2.892   0.000  0.00  0.00    +0.031 C 
ENDBRANCH  14  16
ENDBRANCH   1  13
TORSDOF 7
