REMARK  Name = 
REMARK  5 active torsions:
REMARK  status: ('A' for Active; 'I' for Inactive)
REMARK    1  A    between atoms: N_2  and  C_11
REMARK    2  A    between atoms: C_9  and  C_18
REMARK    3  A    between atoms: C_11  and  C_15
REMARK    4  A    between atoms: C_15  and  C_19
REMARK    5  A    between atoms: C_16  and  C_18
REMARK                            x       y       z     vdW  Elec       q    Type
REMARK                         _______ _______ _______ _____ _____    ______ ____
ROOT
ATOM      1  C   UNL     1       1.921  -0.283   0.000  0.00  0.00    +0.149 A 
ATOM      2  C   UNL     1       2.638   0.129   0.000  0.00  0.00    +0.154 A 
ATOM      3  N   UNL     1       3.350  -0.283   0.000  0.00  0.00    -0.207 NA
ATOM      4  C   UNL     1       3.350  -1.108   0.000  0.00  0.00    +0.201 A 
ATOM      5  N   UNL     1       2.638  -1.521   0.000  0.00  0.00    -0.205 NA
ATOM      6  N   UNL     1       2.638   0.954   0.000  0.00  0.00    -0.287 N 
ATOM      7  C   UNL     1       3.221   1.538   0.000  0.00  0.00    +0.125 C 
ATOM      8  C   UNL     1       2.638   2.121   0.000  0.00  0.00    +0.177 C 
ATOM      9  O   UNL     1       2.054   2.704   0.000  0.00  0.00    -0.221 OA
ATOM     10  C   UNL     1       2.054   1.538   0.000  0.00  0.00    +0.125 C 
ATOM     11  N   UNL     1       1.138  -0.029   0.000  0.00  0.00    -0.219 NA
ATOM     12  C   UNL     1       0.650  -0.696   0.000  0.00  0.00    +0.180 A 
ATOM     13  N   UNL     1       1.138  -1.363   0.000  0.00  0.00    -0.292 N 
ATOM     14  C   UNL     1       1.921  -1.108   0.000  0.00  0.00    +0.167 A 
ENDROOT
BRANCH   8  15
ATOM     15  C   UNL     1       3.221   2.704   0.000  0.00  0.00    +0.139 C 
BRANCH  15  16
ATOM     16  C   UNL     1       3.005   3.500   0.000  0.00  0.00    +0.076 C 
ATOM     17  N   UNL     1       2.792   4.296   0.000  0.00  0.00    -0.196 NA
ENDBRANCH  15  16
ENDBRANCH   8  15
BRANCH  13  18
ATOM     18  C   UNL     1       0.883  -2.150   0.000  0.00  0.00    +0.144 C 
BRANCH  18  19
ATOM     19  C   UNL     1       1.433  -2.763   0.000  0.00  0.00    +0.201 C 
ATOM     20  O   UNL     1       2.242  -2.588   0.000  0.00  0.00    -0.218 OA
BRANCH  19  21
ATOM     21  C   UNL     1       1.179  -3.546   0.000  0.00  0.00    +0.147 C 
ATOM     22  C   UNL     1       1.663  -4.213   0.000  0.00  0.00    +0.035 C 
ATOM     23  C   UNL     1       1.179  -4.880   0.000  0.00  0.00    +0.035 C 
ATOM     24  C   UNL     1       0.396  -4.625   0.000  0.00  0.00    +0.142 C 
ATOM     25  O   UNL     1       0.396  -3.800   0.000  0.00  0.00    -0.354 OA
ENDBRANCH  19  21
ENDBRANCH  18  19
ENDBRANCH  13  18
TORSDOF 5
