REMARK  Name = 
REMARK  7 active torsions:
REMARK  status: ('A' for Active; 'I' for Inactive)
REMARK    1  A    between atoms: O_2  and  C_3
REMARK    2  A    between atoms: C_8  and  C_9
REMARK    3  A    between atoms: C_9  and  O_10
REMARK    4  A    between atoms: O_10  and  C_11
REMARK    5  A    between atoms: C_11  and  C_12
REMARK    6  A    between atoms: C_12  and  C_14
REMARK    7  A    between atoms: C_14  and  N_15
REMARK                            x       y       z     vdW  Elec       q    Type
REMARK                         _______ _______ _______ _____ _____    ______ ____
ROOT
ATOM      1  C   UNL     1       7.710  -0.851   0.000  0.00  0.00    +0.204 C 
ATOM      2  O   UNL     1       7.710  -0.026   0.000  0.00  0.00    -0.218 OA
ENDROOT
BRANCH   1   3
ATOM      3  C   UNL     1       8.425  -1.264   0.000  0.00  0.00    +0.143 C 
BRANCH   3   4
ATOM      4  N   UNL     1       9.139  -0.851   0.000  0.00  0.00    -0.306 N 
ATOM      5  C   UNL     1       9.893  -1.187   0.000  0.00  0.00    +0.081 A 
ATOM      6  C   UNL     1      10.445  -0.574   0.000  0.00  0.00    +0.101 A 
ATOM      7  C   UNL     1      11.252  -0.745   0.000  0.00  0.00    +0.053 A 
ATOM      8  C   UNL     1      11.507  -1.530   0.000  0.00  0.00    +0.169 A 
ATOM      9  C   UNL     1      10.955  -2.143   0.000  0.00  0.00    +0.169 A 
ATOM     10  F   UNL     1      11.210  -2.928   0.000  0.00  0.00    -0.202 F 
ATOM     11  F   UNL     1      12.314  -1.701   0.000  0.00  0.00    -0.202 F 
ATOM     12  N   UNL     1      10.033   0.141   0.000  0.00  0.00    -0.224 NA
ATOM     13  C   UNL     1      10.148  -1.971   0.000  0.00  0.00    +0.051 A 
ATOM     14  C   UNL     1       9.226  -0.031   0.000  0.00  0.00    +0.179 A 
ENDBRANCH   3   4
ENDBRANCH   1   3
BRANCH   1  15
ATOM     15  C   UNL     1       6.996  -1.264   0.000  0.00  0.00    +0.177 C 
BRANCH  15  16
ATOM     16  O   UNL     1       6.282  -0.851   0.000  0.00  0.00    -0.346 OA
BRANCH  16  17
ATOM     17  C   UNL     1       5.567  -1.264   0.000  0.00  0.00    +0.172 C 
BRANCH  17  19
ATOM     18  C   UNL     1       4.138  -1.264   0.000  0.00  0.00    +0.137 A 
ATOM     19  C   UNL     1       4.853  -0.851   0.000  0.00  0.00    +0.041 A 
ATOM     20  C   UNL     1       4.853  -0.026   0.000  0.00  0.00    +0.001 A 
ATOM     21  C   UNL     1       4.138   0.386   0.000  0.00  0.00    -0.000 A 
ATOM     22  C   UNL     1       3.424  -0.026   0.000  0.00  0.00    +0.003 A 
ATOM     23  C   UNL     1       3.424  -0.851   0.000  0.00  0.00    +0.037 A 
BRANCH  18  25
ATOM     24  C   UNL     1       3.424  -2.501   0.000  0.00  0.00    +0.252 C 
ATOM     25  O   UNL     1       4.138  -2.089   0.000  0.00  0.00    -0.472 OA
ENDBRANCH  18  25
ENDBRANCH  17  19
ENDBRANCH  16  17
ENDBRANCH  15  16
ENDBRANCH   1  15
TORSDOF 7
