REMARK  Name = 
REMARK  4 active torsions:
REMARK  status: ('A' for Active; 'I' for Inactive)
REMARK    1  A    between atoms: C_3  and  C_5
REMARK    2  A    between atoms: N_13  and  C_14
REMARK    3  A    between atoms: C_14  and  C_15
REMARK    4  A    between atoms: C_15  and  C_16
REMARK                            x       y       z     vdW  Elec       q    Type
REMARK                         _______ _______ _______ _____ _____    ______ ____
ROOT
ATOM      1  C   UNL     1      -1.429   1.650   0.000  0.00  0.00    +0.082 C 
ATOM      2  C   UNL     1      -0.715   1.238   0.000  0.00  0.00    +0.031 C 
ATOM      3  C   UNL     1       0.000   1.650   0.000  0.00  0.00    +0.095 C 
ATOM      4  N   UNL     1       0.000   2.475   0.000  0.00  0.00    -0.263 N 
ATOM      5  C   UNL     1       0.715   2.888   0.000  0.00  0.00    +0.323 C 
ATOM      6  N   UNL     1       1.429   2.475   0.000  0.00  0.00    -0.188 NA
ATOM      7  O   UNL     1       0.715   3.712   0.000  0.00  0.00    -0.251 OA
ATOM      8  C   UNL     1      -0.715   2.888   0.000  0.00  0.00    +0.095 C 
ATOM      9  C   UNL     1      -1.429   2.475   0.000  0.00  0.00    +0.031 C 
ENDROOT
BRANCH   1  12
ATOM     10  C   UNL     1      -2.858   0.000   0.000  0.00  0.00    +0.138 C 
ATOM     11  N   UNL     1      -2.143   0.412   0.000  0.00  0.00    -0.204 NA
ATOM     12  C   UNL     1      -2.143   1.238   0.000  0.00  0.00    +0.241 C 
ATOM     13  O   UNL     1      -2.858   1.650   0.000  0.00  0.00    -0.273 OA
ENDBRANCH   1  12
BRANCH   6  14
ATOM     14  C   UNL     1       2.143   2.888   0.000  0.00  0.00    +0.122 C 
BRANCH  14  15
ATOM     15  C   UNL     1       2.858   2.475   0.000  0.00  0.00    +0.053 C 
BRANCH  15  16
ATOM     16  C   UNL     1       3.572   2.888   0.000  0.00  0.00    +0.019 A 
ATOM     17  C   UNL     1       4.326   2.552   0.000  0.00  0.00    +0.092 A 
ATOM     18  N   UNL     1       4.878   3.165   0.000  0.00  0.00    -0.248 N 
ATOM     19  C   UNL     1       5.699   3.079   0.000  0.00  0.00    +0.154 C 
ATOM     20  N   UNL     1       4.466   3.880   0.000  0.00  0.00    -0.168 NA
ATOM     21  C   UNL     1       3.659   3.708   0.000  0.00  0.00    +0.117 A 
ENDBRANCH  15  16
ENDBRANCH  14  15
ENDBRANCH   6  14
TORSDOF 4
