REMARK  Name = 
REMARK  4 active torsions:
REMARK  status: ('A' for Active; 'I' for Inactive)
REMARK    1  A    between atoms: C_2  and  C_3
REMARK    2  A    between atoms: C_2  and  N_9
REMARK    3  A    between atoms: C_3  and  N_4
REMARK    4  A    between atoms: C_10  and  C_12
REMARK                            x       y       z     vdW  Elec       q    Type
REMARK                         _______ _______ _______ _____ _____    ______ ____
ROOT
ATOM      1  C   UNL     1       2.102  -1.171   0.000  0.00  0.00    +0.026 C 
ATOM      2  C   UNL     1       2.102  -1.996   0.000  0.00  0.00    +0.120 C 
ENDROOT
BRANCH   2   3
ATOM      3  N   UNL     1       2.816  -2.408   0.000  0.00  0.00    -0.205 NA
ATOM      4  C   UNL     1       3.530  -1.996   0.000  0.00  0.00    +0.241 C 
ATOM      5  O   UNL     1       3.530  -1.171   0.000  0.00  0.00    -0.273 OA
BRANCH   4   6
ATOM      6  C   UNL     1       4.245  -2.408   0.000  0.00  0.00    +0.078 C 
ATOM      7  C   UNL     1       4.331  -3.229   0.000  0.00  0.00    +0.009 C 
ATOM      8  C   UNL     1       5.138  -3.400   0.000  0.00  0.00    +0.001 C 
ATOM      9  C   UNL     1       5.551  -2.686   0.000  0.00  0.00    +0.001 C 
ATOM     10  C   UNL     1       4.999  -2.073   0.000  0.00  0.00    +0.009 C 
ENDBRANCH   4   6
ENDBRANCH   2   3
BRANCH   2  11
ATOM     11  C   UNL     1       1.387  -2.408   0.000  0.00  0.00    +0.149 C 
BRANCH  11  12
ATOM     12  N   UNL     1       0.672  -1.996   0.000  0.00  0.00    -0.248 N 
ATOM     13  N   UNL     1       0.586  -1.175   0.000  0.00  0.00    -0.168 NA
ATOM     14  C   UNL     1      -0.221  -1.004   0.000  0.00  0.00    +0.122 A 
ATOM     15  C   UNL     1      -0.633  -1.718   0.000  0.00  0.00    +0.043 A 
ATOM     16  C   UNL     1      -0.081  -2.331   0.000  0.00  0.00    +0.097 A 
ENDBRANCH  11  12
ENDBRANCH   2  11
TORSDOF 4
