REMARK  Name = 
REMARK  3 active torsions:
REMARK  status: ('A' for Active; 'I' for Inactive)
REMARK    1  A    between atoms: C_7  and  N_8
REMARK    2  A    between atoms: N_8  and  C_9
REMARK    3  A    between atoms: C_9  and  C_10
REMARK                            x       y       z     vdW  Elec       q    Type
REMARK                         _______ _______ _______ _____ _____    ______ ____
ROOT
ATOM      1  N   UNL     1       0.000  -2.475   0.000  0.00  0.00    -0.228 NA
ENDROOT
BRANCH   1   4
ATOM      2 CL   UNL     1       1.429  -1.650   0.000  0.00  0.00    -0.079 Cl
ATOM      3  C   UNL     1       1.429  -2.475   0.000  0.00  0.00    +0.092 A 
ATOM      4  C   UNL     1       0.715  -2.888   0.000  0.00  0.00    +0.079 A 
ATOM      5  C   UNL     1       0.715  -3.712   0.000  0.00  0.00    +0.038 A 
ATOM      6  C   UNL     1       1.429  -4.125   0.000  0.00  0.00    +0.100 A 
ATOM      7  N   UNL     1       2.143  -3.712   0.000  0.00  0.00    -0.241 NA
ATOM      8  C   UNL     1       2.143  -2.888   0.000  0.00  0.00    +0.112 A 
ENDBRANCH   1   4
BRANCH   1   9
ATOM      9  C   UNL     1      -0.715  -2.888   0.000  0.00  0.00    +0.179 C 
BRANCH   9  10
ATOM     10  C   UNL     1      -1.429  -2.475   0.000  0.00  0.00    +0.175 C 
ATOM     11  O   UNL     1      -1.429  -1.650   0.000  0.00  0.00    -0.471 OA
ATOM     12  C   UNL     1      -2.143  -1.238   0.000  0.00  0.00    +0.252 C 
ATOM     13  C   UNL     1      -2.858  -1.650   0.000  0.00  0.00    +0.253 C 
ATOM     14  O   UNL     1      -2.858  -2.475   0.000  0.00  0.00    -0.466 OA
ATOM     15  C   UNL     1      -2.143  -2.888   0.000  0.00  0.00    +0.206 C 
ENDBRANCH   9  10
ENDBRANCH   1   9
TORSDOF 3
