REMARK  Name = 
REMARK  4 active torsions:
REMARK  status: ('A' for Active; 'I' for Inactive)
REMARK    1  A    between atoms: N_2  and  C_10
REMARK    2  A    between atoms: C_10  and  C_15
REMARK    3  A    between atoms: C_15  and  C_21
REMARK    4  A    between atoms: C_15  and  C_24
REMARK                            x       y       z     vdW  Elec       q    Type
REMARK                         _______ _______ _______ _____ _____    ______ ____
ROOT
ATOM      1  C   UNL     1       3.742   1.842   0.000  0.00  0.00    +0.149 A 
ATOM      2  C   UNL     1       2.917   1.842   0.000  0.00  0.00    +0.154 A 
ATOM      3  N   UNL     1       2.504   2.558   0.000  0.00  0.00    -0.207 NA
ATOM      4  C   UNL     1       2.917   3.271   0.000  0.00  0.00    +0.201 A 
ATOM      5  N   UNL     1       3.742   3.271   0.000  0.00  0.00    -0.205 NA
ATOM      6  N   UNL     1       2.504   1.129   0.000  0.00  0.00    -0.292 N 
ATOM      7  C   UNL     1       2.917   0.412   0.000  0.00  0.00    +0.092 C 
ATOM      8  C   UNL     1       2.504  -0.300   0.000  0.00  0.00    +0.022 C 
ATOM      9  C   UNL     1       1.679  -0.300   0.000  0.00  0.00    +0.006 C 
ATOM     10  C   UNL     1       1.267   0.412   0.000  0.00  0.00    +0.047 C 
ATOM     11  C   UNL     1       0.783  -0.254   0.000  0.00  0.00    +0.117 C 
ATOM     12  N   UNL     1       0.000   0.000   0.000  0.00  0.00    -0.205 NA
ATOM     13  C   UNL     1       0.000   0.825   0.000  0.00  0.00    +0.241 C 
ATOM     14  O   UNL     1      -0.671   1.312   0.000  0.00  0.00    -0.273 OA
ATOM     15  C   UNL     1       0.783   1.083   0.000  0.00  0.00    +0.090 C 
ATOM     16  C   UNL     1       1.679   1.129   0.000  0.00  0.00    +0.094 C 
ATOM     17  N   UNL     1       4.296   1.229   0.000  0.00  0.00    -0.219 NA
ATOM     18  C   UNL     1       5.050   1.567   0.000  0.00  0.00    +0.180 A 
ATOM     19  N   UNL     1       4.963   2.388   0.000  0.00  0.00    -0.294 N 
ATOM     20  C   UNL     1       4.154   2.558   0.000  0.00  0.00    +0.167 A 
ENDROOT
BRANCH  19  21
ATOM     21  C   UNL     1       5.575   2.938   0.000  0.00  0.00    +0.112 C 
BRANCH  21  22
ATOM     22  C   UNL     1       5.404   3.746   0.000  0.00  0.00    +0.058 C 
BRANCH  22  23
ATOM     23  C   UNL     1       6.017   4.292   0.000  0.00  0.00    +0.037 C 
ATOM     24  C   UNL     1       5.929   5.112   0.000  0.00  0.00    +0.035 C 
ATOM     25  C   UNL     1       6.683   5.450   0.000  0.00  0.00    +0.142 C 
ATOM     26  O   UNL     1       7.237   4.838   0.000  0.00  0.00    -0.354 OA
ATOM     27  C   UNL     1       6.825   4.121   0.000  0.00  0.00    +0.142 C 
ENDBRANCH  22  23
BRANCH  22  28
ATOM     28  C   UNL     1       4.621   4.000   0.000  0.00  0.00    +0.184 C 
ATOM     29  O   UNL     1       4.446   4.804   0.000  0.00  0.00    -0.220 OA
ENDBRANCH  22  28
ENDBRANCH  21  22
ENDBRANCH  19  21
TORSDOF 4
