REMARK  Name = 
REMARK  6 active torsions:
REMARK  status: ('A' for Active; 'I' for Inactive)
REMARK    1  A    between atoms: C_6  and  C_7
REMARK    2  A    between atoms: C_7  and  C_8
REMARK    3  A    between atoms: C_8  and  N_9
REMARK    4  A    between atoms: C_10  and  C_12
REMARK    5  A    between atoms: C_12  and  C_13
REMARK    6  A    between atoms: C_12  and  N_16
REMARK                            x       y       z     vdW  Elec       q    Type
REMARK                         _______ _______ _______ _____ _____    ______ ____
ROOT
ATOM      1  N   UNL     1       4.592  -2.952   0.000  0.00  0.00    -0.204 NA
ATOM      2  C   UNL     1       5.307  -3.364   0.000  0.00  0.00    +0.256 C 
ATOM      3  O   UNL     1       5.307  -4.189   0.000  0.00  0.00    -0.272 OA
ENDROOT
BRANCH   1   4
ATOM      4  C   UNL     1       3.878  -3.364   0.000  0.00  0.00    +0.123 C 
BRANCH   4   5
ATOM      5  C   UNL     1       3.163  -2.952   0.000  0.00  0.00    +0.087 C 
BRANCH   5   8
ATOM      6  C   UNL     1       2.976  -4.737   0.000  0.00  0.00    +0.132 C 
ATOM      7  N   UNL     1       2.363  -4.185   0.000  0.00  0.00    -0.312 N 
ATOM      8  C   UNL     1       2.449  -3.364   0.000  0.00  0.00    +0.122 A 
ATOM      9  N   UNL     1       1.695  -3.029   0.000  0.00  0.00    -0.229 NA
ATOM     10  C   UNL     1       1.143  -3.642   0.000  0.00  0.00    +0.119 A 
ATOM     11  C   UNL     1       1.556  -4.356   0.000  0.00  0.00    +0.098 A 
ENDBRANCH   5   8
ENDBRANCH   4   5
ENDBRANCH   1   4
BRANCH   2  12
ATOM     12  C   UNL     1       6.021  -2.952   0.000  0.00  0.00    +0.136 C 
BRANCH  12  13
ATOM     13  N   UNL     1       6.736  -3.364   0.000  0.00  0.00    -0.267 NA
ATOM     14  C   UNL     1       6.822  -4.185   0.000  0.00  0.00    +0.073 C 
ATOM     15  C   UNL     1       7.629  -4.356   0.000  0.00  0.00    +0.019 C 
ATOM     16  C   UNL     1       8.041  -3.642   0.000  0.00  0.00    +0.019 C 
ATOM     17  C   UNL     1       7.489  -3.029   0.000  0.00  0.00    +0.073 C 
ENDBRANCH  12  13
BRANCH  12  18
ATOM     18  C   UNL     1       6.021  -2.127   0.000  0.00  0.00    +0.024 C 
ATOM     19  C   UNL     1       6.434  -1.412   0.000  0.00  0.00    +0.002 C 
ATOM     20  C   UNL     1       5.609  -1.412   0.000  0.00  0.00    +0.002 C 
ENDBRANCH  12  18
ENDBRANCH   2  12
TORSDOF 6
