REMARK  Name = 
REMARK  6 active torsions:
REMARK  status: ('A' for Active; 'I' for Inactive)
REMARK    1  A    between atoms: N_1  and  C_3
REMARK    2  A    between atoms: C_13  and  O_19
REMARK    3  A    between atoms: O_19  and  C_21
REMARK    4  A    between atoms: C_21  and  C_22
REMARK    5  A    between atoms: C_22  and  C_24
REMARK    6  A    between atoms: C_23  and  C_24
REMARK                            x       y       z     vdW  Elec       q    Type
REMARK                         _______ _______ _______ _____ _____    ______ ____
ROOT
ATOM      1  N   UNL     1       9.287  -6.188   0.000  0.00  0.00    -0.251 N 
ATOM      2  C   UNL     1       8.571  -6.600   0.000  0.00  0.00    +0.115 A 
ATOM      3  C   UNL     1       7.858  -6.188   0.000  0.00  0.00    +0.191 A 
ATOM      4  F   UNL     1       7.142  -6.600   0.000  0.00  0.00    -0.200 F 
ATOM      5  C   UNL     1       7.858  -5.362   0.000  0.00  0.00    +0.191 A 
ATOM      6  N   UNL     1       8.571  -4.950   0.000  0.00  0.00    -0.173 NA
ATOM      7  N   UNL     1       7.142  -4.950   0.000  0.00  0.00    -0.121 NA
ATOM      8  C   UNL     1       6.429  -5.362   0.000  0.00  0.00    +0.427 C 
ATOM      9  O   UNL     1       6.429  -6.188   0.000  0.00  0.00    -0.224 OA
ATOM     10  C   UNL     1       9.287  -5.362   0.000  0.00  0.00    +0.353 A 
ATOM     11  O   UNL     1      10.000  -4.950   0.000  0.00  0.00    -0.244 OA
ENDROOT
BRANCH   1  12
ATOM     12  C   UNL     1      10.000  -6.600   0.000  0.00  0.00    +0.242 C 
ATOM     13  O   UNL     1      10.754  -6.263   0.000  0.00  0.00    -0.333 OA
ATOM     14  C   UNL     1      11.304  -6.875   0.000  0.00  0.00    +0.150 C 
ATOM     15  C   UNL     1      10.892  -7.592   0.000  0.00  0.00    +0.214 C 
ATOM     16  O   UNL     1      11.229  -8.342   0.000  0.00  0.00    -0.218 OA
ATOM     17  C   UNL     1      12.125  -6.787   0.000  0.00  0.00    +0.035 C 
ATOM     18  C   UNL     1      10.088  -7.417   0.000  0.00  0.00    +0.234 C 
ATOM     19  O   UNL     1       9.475  -7.971   0.000  0.00  0.00    -0.216 OA
ENDBRANCH   1  12
BRANCH   8  20
ATOM     20  O   UNL     1       5.713  -4.950   0.000  0.00  0.00    -0.433 OA
BRANCH  20  21
ATOM     21  C   UNL     1       5.000  -5.362   0.000  0.00  0.00    +0.210 C 
BRANCH  21  22
ATOM     22  C   UNL     1       4.283  -4.950   0.000  0.00  0.00    +0.048 C 
BRANCH  22  23
ATOM     23  C   UNL     1       3.571  -5.362   0.000  0.00  0.00    +0.004 C 
BRANCH  23  24
ATOM     24  C   UNL     1       2.854  -4.950   0.000  0.00  0.00    +0.000 C 
ATOM     25  C   UNL     1       2.142  -5.362   0.000  0.00  0.00    +0.000 C 
ENDBRANCH  23  24
ENDBRANCH  22  23
ENDBRANCH  21  22
ENDBRANCH  20  21
ENDBRANCH   8  20
TORSDOF 6
