REMARK  Name = 
REMARK  6 active torsions:
REMARK  status: ('A' for Active; 'I' for Inactive)
REMARK    1  A    between atoms: S_2  and  N_5
REMARK    2  A    between atoms: N_5  and  C_6
REMARK    3  A    between atoms: C_6  and  C_7
REMARK    4  A    between atoms: C_7  and  C_8
REMARK    5  A    between atoms: N_10  and  C_11
REMARK    6  A    between atoms: C_11  and  C_12
REMARK                            x       y       z     vdW  Elec       q    Type
REMARK                         _______ _______ _______ _____ _____    ______ ____
ROOT
ATOM      1  C   UNL     1       3.572  -5.362   0.000  0.00  0.00    +0.019 A 
ATOM      2  C   UNL     1       3.572  -6.188   0.000  0.00  0.00    +0.098 A 
ATOM      3  N   UNL     1       4.287  -6.600   0.000  0.00  0.00    -0.229 NA
ATOM      4  C   UNL     1       5.001  -6.188   0.000  0.00  0.00    +0.132 A 
ATOM      5  N   UNL     1       5.716  -6.600   0.000  0.00  0.00    -0.288 N 
ATOM      6  C   UNL     1       5.716  -7.425   0.000  0.00  0.00    +0.124 C 
ATOM      7  C   UNL     1       6.430  -7.838   0.000  0.00  0.00    +0.164 C 
ATOM      8  O   UNL     1       7.145  -7.425   0.000  0.00  0.00    -0.350 OA
ATOM      9  C   UNL     1       7.145  -6.600   0.000  0.00  0.00    +0.164 C 
ATOM     10  C   UNL     1       6.430  -6.188   0.000  0.00  0.00    +0.124 C 
ATOM     11  C   UNL     1       5.001  -5.362   0.000  0.00  0.00    +0.034 A 
ATOM     12  C   UNL     1       4.287  -4.950   0.000  0.00  0.00    +0.002 A 
ENDROOT
BRANCH   1  13
ATOM     13  C   UNL     1       2.858  -4.950   0.000  0.00  0.00    +0.143 C 
BRANCH  13  15
ATOM     14  C   UNL     1       1.429  -4.950   0.000  0.00  0.00    +0.243 C 
ATOM     15  N   UNL     1       2.143  -5.362   0.000  0.00  0.00    -0.200 NA
ATOM     16  O   UNL     1       1.429  -4.125   0.000  0.00  0.00    -0.273 OA
BRANCH  14  17
ATOM     17  C   UNL     1       0.715  -5.362   0.000  0.00  0.00    +0.108 C 
BRANCH  17  18
ATOM     18  C   UNL     1       0.000  -4.950   0.000  0.00  0.00    +0.125 C 
BRANCH  18  19
ATOM     19  N   UNL     1      -0.715  -5.362   0.000  0.00  0.00    -0.081 NA
BRANCH  19  21
ATOM     20  C   UNL     1      -2.143  -4.537   0.000  0.00  0.00    +0.197 C 
ATOM     21  S   UNL     1      -1.429  -4.950   0.000  0.00  0.00    +0.059 S 
ATOM     22  O   UNL     1      -1.016  -4.236   0.000  0.00  0.00    -0.156 OA
ATOM     23  O   UNL     1      -1.841  -5.665   0.000  0.00  0.00    -0.156 OA
ENDBRANCH  19  21
ENDBRANCH  18  19
ENDBRANCH  17  18
ENDBRANCH  14  17
ENDBRANCH  13  15
ENDBRANCH   1  13
TORSDOF 6
