REMARK  Name = 
REMARK  5 active torsions:
REMARK  status: ('A' for Active; 'I' for Inactive)
REMARK    1  A    between atoms: C_2  and  C_3
REMARK    2  A    between atoms: C_2  and  C_15
REMARK    3  A    between atoms: C_3  and  N_4
REMARK    4  A    between atoms: N_7  and  C_8
REMARK    5  A    between atoms: C_8  and  C_9
REMARK                            x       y       z     vdW  Elec       q    Type
REMARK                         _______ _______ _______ _____ _____    ______ ____
ROOT
ATOM      1  N   UNL     1       1.202  -1.240   0.000  0.00  0.00    -0.187 NA
ATOM      2  C   UNL     1       1.917  -1.653   0.000  0.00  0.00    +0.339 C 
ATOM      3  N   UNL     1       2.631  -1.240   0.000  0.00  0.00    -0.185 NA
ATOM      4  O   UNL     1       1.917  -2.478   0.000  0.00  0.00    -0.249 OA
ENDROOT
BRANCH   1   5
ATOM      5  C   UNL     1       0.487  -1.653   0.000  0.00  0.00    +0.123 C 
BRANCH   5   7
ATOM      6  C   UNL     1      -0.227  -0.415   0.000  0.00  0.00    +0.009 C 
ATOM      7  C   UNL     1      -0.227  -1.240   0.000  0.00  0.00    +0.068 C 
BRANCH   7   8
ATOM      8  C   UNL     1      -0.941  -1.653   0.000  0.00  0.00    +0.089 A 
ATOM      9  S   UNL     1      -1.695  -1.317   0.000  0.00  0.00    -0.075 S 
ATOM     10  C   UNL     1      -2.247  -1.930   0.000  0.00  0.00    +0.028 A 
ATOM     11  C   UNL     1      -3.068  -1.844   0.000  0.00  0.00    +0.040 C 
ATOM     12  C   UNL     1      -1.835  -2.645   0.000  0.00  0.00    +0.101 A 
ATOM     13  N   UNL     1      -1.028  -2.473   0.000  0.00  0.00    -0.241 NA
ENDBRANCH   7   8
ENDBRANCH   5   7
ENDBRANCH   1   5
BRANCH   3  14
ATOM     14  C   UNL     1       3.345  -1.653   0.000  0.00  0.00    +0.144 C 
BRANCH  14  15
ATOM     15  C   UNL     1       4.060  -1.240   0.000  0.00  0.00    +0.113 C 
ATOM     16  O   UNL     1       4.845  -0.985   0.000  0.00  0.00    -0.357 OA
ATOM     17  C   UNL     1       4.845  -0.160   0.000  0.00  0.00    +0.142 C 
ATOM     18  C   UNL     1       4.060   0.095   0.000  0.00  0.00    +0.035 C 
ATOM     19  C   UNL     1       3.575  -0.573   0.000  0.00  0.00    +0.032 C 
ATOM     20  C   UNL     1       4.395  -1.994   0.000  0.00  0.00    +0.031 C 
ENDBRANCH  14  15
ENDBRANCH   3  14
TORSDOF 5
