REMARK  Name = 
REMARK  4 active torsions:
REMARK  status: ('A' for Active; 'I' for Inactive)
REMARK    1  A    between atoms: CA_2  and  C_3
REMARK    2  A    between atoms: CA_2  and  N_5
REMARK    3  A    between atoms: N_8  and  C_9
REMARK    4  A    between atoms: C_9  and  C_10
REMARK                            x       y       z     vdW  Elec       q    Type
REMARK                         _______ _______ _______ _____ _____    ______ ____
ROOT
ATOM      1  C   UNK A   0       5.716  -6.600   0.000  0.00  0.00    +0.019 A 
ATOM      2  C   UNK A   0       5.716  -7.425   0.000  0.00  0.00    +0.098 A 
ATOM      3  N   UNK A   0       6.430  -7.838   0.000  0.00  0.00    -0.229 NA
ATOM      4  C   UNK A   0       7.145  -7.425   0.000  0.00  0.00    +0.132 A 
ATOM      5  N   UNK A   0       7.859  -7.838   0.000  0.00  0.00    -0.288 N 
ATOM      6  C   UNK A   0       7.859  -8.662   0.000  0.00  0.00    +0.122 C 
ATOM      7  C   UNK A   0       8.574  -9.075   0.000  0.00  0.00    +0.135 C 
ATOM      8  C   UNK A   0       8.574  -9.900   0.000  0.00  0.00    +0.034 C 
ATOM      9  O   UNK A   0       9.288  -8.662   0.000  0.00  0.00    -0.355 OA
ATOM     10  C   UNK A   0       9.288  -7.838   0.000  0.00  0.00    +0.135 C 
ATOM     11  C   UNK A   0      10.003  -7.425   0.000  0.00  0.00    +0.034 C 
ATOM     12  C   UNK A   0       8.574  -7.425   0.000  0.00  0.00    +0.122 C 
ATOM     13  C   UNK A   0       7.145  -6.600   0.000  0.00  0.00    +0.034 A 
ATOM     14  C   UNK A   0       6.430  -6.188   0.000  0.00  0.00    +0.002 A 
ENDROOT
BRANCH   1  15
ATOM     15  C   UNK A   0       5.001  -6.188   0.000  0.00  0.00    +0.145 C 
BRANCH  15  18
ATOM     16  N   ALA A   1       2.858  -6.600   0.000  0.00  0.00    -0.186 NA
ATOM     17  C   UNK A   0       3.572  -6.188   0.000  0.00  0.00    +0.340 C 
ATOM     18  N   UNK A   0       4.287  -6.600   0.000  0.00  0.00    -0.182 NA
ATOM     19  O   UNK A   0       3.572  -5.362   0.000  0.00  0.00    -0.249 OA
BRANCH  16  21
ATOM     20  CB  ALA A   1       2.143  -5.362   0.000  0.00  0.00    +0.026 C 
ATOM     21  CA  ALA A   1       2.143  -6.188   0.000  0.00  0.00    +0.130 C 
BRANCH  21  22
ATOM     22  C   ALA A   1       1.429  -6.600   0.000  0.00  0.00    +0.204 C 
ATOM     23  O   ALA A   1       0.715  -6.188   0.000  0.00  0.00    -0.219 OA
ENDBRANCH  21  22
ENDBRANCH  16  21
ENDBRANCH  15  18
ENDBRANCH   1  15
TORSDOF 4
