REMARK  Name = 
REMARK  7 active torsions:
REMARK  status: ('A' for Active; 'I' for Inactive)
REMARK    1  A    between atoms: C_2  and  C_5
REMARK    2  A    between atoms: C_9  and  N_10
REMARK    3  A    between atoms: N_10  and  C_11
REMARK    4  A    between atoms: C_11  and  C_12
REMARK    5  A    between atoms: C_12  and  O_13
REMARK    6  A    between atoms: O_13  and  C_14
REMARK    7  A    between atoms: C_14  and  C_15
REMARK                            x       y       z     vdW  Elec       q    Type
REMARK                         _______ _______ _______ _____ _____    ______ ____
ROOT
ATOM      1  C   UNL     1       0.715  -0.412   0.000  0.00  0.00    +0.154 A 
ATOM      2  N   UNL     1       1.429   0.000   0.000  0.00  0.00    -0.225 NA
ATOM      3  C   UNL     1       1.429   0.825   0.000  0.00  0.00    +0.147 A 
ATOM      4  C   UNL     1       0.715   1.238   0.000  0.00  0.00    +0.036 A 
ATOM      5  C   UNL     1       0.000   0.825   0.000  0.00  0.00    +0.004 A 
ATOM      6  C   UNL     1       0.000   0.000   0.000  0.00  0.00    +0.023 A 
ENDROOT
BRANCH   1   8
ATOM      7  F   UNL     1       0.715  -2.062   0.000  0.00  0.00    -0.164 F 
ATOM      8  C   UNL     1       0.715  -1.238   0.000  0.00  0.00    +0.435 C 
ATOM      9  F   UNL     1      -0.111  -1.238   0.000  0.00  0.00    -0.164 F 
ATOM     10  F   UNL     1       1.540  -1.238   0.000  0.00  0.00    -0.164 F 
ENDBRANCH   1   8
BRANCH   3  11
ATOM     11  N   UNL     1       2.143   1.238   0.000  0.00  0.00    -0.218 NA
BRANCH  11  12
ATOM     12  C   UNL     1       2.858   0.825   0.000  0.00  0.00    +0.146 C 
BRANCH  12  13
ATOM     13  C   UNL     1       3.572   1.238   0.000  0.00  0.00    +0.166 C 
BRANCH  13  14
ATOM     14  O   UNL     1       4.287   0.825   0.000  0.00  0.00    -0.349 OA
BRANCH  14  15
ATOM     15  C   UNL     1       5.001   1.238   0.000  0.00  0.00    +0.172 C 
BRANCH  15  16
ATOM     16  C   UNL     1       5.716   0.825   0.000  0.00  0.00    +0.145 C 
ATOM     17  O   UNL     1       5.802   0.004   0.000  0.00  0.00    -0.354 OA
ATOM     18  C   UNL     1       6.609  -0.167   0.000  0.00  0.00    +0.142 C 
ATOM     19  C   UNL     1       7.021   0.547   0.000  0.00  0.00    +0.035 C 
ATOM     20  C   UNL     1       6.469   1.161   0.000  0.00  0.00    +0.035 C 
ENDBRANCH  15  16
ENDBRANCH  14  15
ENDBRANCH  13  14
ENDBRANCH  12  13
ENDBRANCH  11  12
ENDBRANCH   3  11
TORSDOF 7
