REMARK  Name = 
REMARK  6 active torsions:
REMARK  status: ('A' for Active; 'I' for Inactive)
REMARK    1  A    between atoms: C_7  and  O_8
REMARK    2  A    between atoms: O_8  and  C_9
REMARK    3  A    between atoms: C_9  and  C_10
REMARK    4  A    between atoms: N_12  and  C_13
REMARK    5  A    between atoms: C_18  and  O_19
REMARK    6  A    between atoms: O_19  and  C_20
REMARK                            x       y       z     vdW  Elec       q    Type
REMARK                         _______ _______ _______ _____ _____    ______ ____
ROOT
ATOM      1  C   UNL     1       0.715  -2.062   0.000  0.00  0.00    +0.277 C 
ATOM      2  N   UNL     1       1.429  -2.475   0.000  0.00  0.00    -0.155 NA
ATOM      3  O   UNL     1       0.715  -1.238   0.000  0.00  0.00    -0.270 OA
ENDROOT
BRANCH   2   4
ATOM      4  C   UNL     1       2.143  -2.062   0.000  0.00  0.00    +0.189 A 
ATOM      5  C   UNL     1       2.858  -2.475   0.000  0.00  0.00    +0.177 A 
ATOM      6  C   UNL     1       3.572  -2.062   0.000  0.00  0.00    +0.042 A 
ATOM      7  C   UNL     1       3.572  -1.238   0.000  0.00  0.00    +0.024 A 
ATOM      8  C   UNL     1       2.858  -0.825   0.000  0.00  0.00    +0.101 A 
ATOM      9  N   UNL     1       2.143  -1.238   0.000  0.00  0.00    -0.225 NA
BRANCH   5  10
ATOM     10  O   UNL     1       2.858  -3.300   0.000  0.00  0.00    -0.421 OA
BRANCH  10  11
ATOM     11  C   UNL     1       3.572  -3.712   0.000  0.00  0.00    +0.509 C 
ATOM     12  F   UNL     1       3.572  -4.537   0.000  0.00  0.00    -0.155 F 
ATOM     13  F   UNL     1       4.287  -3.300   0.000  0.00  0.00    -0.155 F 
ENDBRANCH  10  11
ENDBRANCH   5  10
ENDBRANCH   2   4
BRANCH   1  14
ATOM     14  C   UNL     1       0.000  -2.475   0.000  0.00  0.00    +0.229 C 
BRANCH  14  15
ATOM     15  O   UNL     1      -0.715  -2.062   0.000  0.00  0.00    -0.347 OA
BRANCH  15  18
ATOM     16  C   UNL     1      -0.715  -3.712   0.000  0.00  0.00    +0.002 C 
ATOM     17  C   UNL     1      -1.429  -3.300   0.000  0.00  0.00    +0.027 C 
ATOM     18  C   UNL     1      -1.429  -2.475   0.000  0.00  0.00    +0.116 C 
ATOM     19  C   UNL     1      -2.143  -2.062   0.000  0.00  0.00    +0.030 C 
ATOM     20  C   UNL     1      -2.858  -2.475   0.000  0.00  0.00    +0.002 C 
ATOM     21  C   UNL     1      -2.858  -3.300   0.000  0.00  0.00    +0.000 C 
ATOM     22  C   UNL     1      -2.143  -3.712   0.000  0.00  0.00    +0.002 C 
ENDBRANCH  15  18
ENDBRANCH  14  15
ENDBRANCH   1  14
TORSDOF 6
