REMARK  Name = 
REMARK  5 active torsions:
REMARK  status: ('A' for Active; 'I' for Inactive)
REMARK    1  A    between atoms: N_2  and  C_9
REMARK    2  A    between atoms: C_8  and  C_10
REMARK    3  A    between atoms: N_13  and  C_15
REMARK    4  A    between atoms: C_14  and  C_23
REMARK    5  A    between atoms: C_14  and  C_24
REMARK                            x       y       z     vdW  Elec       q    Type
REMARK                         _______ _______ _______ _____ _____    ______ ____
ROOT
ATOM      1  C   UNL     1       1.921  -0.283   0.000  0.00  0.00    +0.149 A 
ATOM      2  N   UNL     1       1.137  -0.029   0.000  0.00  0.00    -0.219 NA
ATOM      3  C   UNL     1       0.650  -0.696   0.000  0.00  0.00    +0.180 A 
ATOM      4  N   UNL     1       1.137  -1.363   0.000  0.00  0.00    -0.296 N 
ATOM      5  C   UNL     1       2.638   0.129   0.000  0.00  0.00    +0.155 A 
ATOM      6  N   UNL     1       3.350  -0.283   0.000  0.00  0.00    -0.207 NA
ATOM      7  C   UNL     1       3.350  -1.108   0.000  0.00  0.00    +0.201 A 
ATOM      8  N   UNL     1       2.638  -1.521   0.000  0.00  0.00    -0.205 NA
ATOM      9  N   UNL     1       2.638   0.954   0.000  0.00  0.00    -0.286 N 
ATOM     10  C   UNL     1       1.967   1.438   0.000  0.00  0.00    +0.093 C 
ATOM     11  C   UNL     1       2.225   2.225   0.000  0.00  0.00    +0.024 C 
ATOM     12  C   UNL     1       3.050   2.225   0.000  0.00  0.00    +0.031 C 
ATOM     13  C   UNL     1       3.304   1.438   0.000  0.00  0.00    +0.153 C 
ATOM     14  C   UNL     1       1.921  -1.108   0.000  0.00  0.00    +0.167 A 
ENDROOT
BRANCH   4  15
ATOM     15  C   UNL     1       0.883  -2.150   0.000  0.00  0.00    +0.089 C 
ATOM     16  C   UNL     1       0.146  -2.521   0.000  0.00  0.00    +0.028 C 
ATOM     17  C   UNL     1       0.521  -3.258   0.000  0.00  0.00    +0.065 C 
ATOM     18  C   UNL     1       1.254  -2.883   0.000  0.00  0.00    +0.028 C 
BRANCH  17  19
ATOM     19  C   UNL     1      -0.212  -3.633   0.000  0.00  0.00    +0.185 C 
ATOM     20  O   UNL     1      -0.904  -3.183   0.000  0.00  0.00    -0.220 OA
ENDBRANCH  17  19
BRANCH  17  21
ATOM     21  C   UNL     1       0.896  -3.992   0.000  0.00  0.00    +0.185 C 
ATOM     22  O   UNL     1       1.721  -4.037   0.000  0.00  0.00    -0.220 OA
ENDBRANCH  17  21
ENDBRANCH   4  15
BRANCH  13  23
ATOM     23  C   UNL     1       4.088   1.183   0.000  0.00  0.00    +0.259 C 
ATOM     24  O   UNL     1       4.258   0.379   0.000  0.00  0.00    -0.272 OA
ATOM     25  N   UNL     1       4.700   1.738   0.000  0.00  0.00    -0.206 NA
BRANCH  25  26
ATOM     26  C   UNL     1       5.487   1.479   0.000  0.00  0.00    +0.095 C 
ATOM     27  C   UNL     1       6.037   0.867   0.000  0.00  0.00    +0.023 C 
ATOM     28  C   UNL     1       6.292   1.654   0.000  0.00  0.00    +0.023 C 
ENDBRANCH  25  26
ENDBRANCH  13  23
TORSDOF 5
