REMARK  Name = 
REMARK  6 active torsions:
REMARK  status: ('A' for Active; 'I' for Inactive)
REMARK    1  A    between atoms: C_2  and  C_3
REMARK    2  A    between atoms: C_3  and  C_4
REMARK    3  A    between atoms: C_4  and  C_5
REMARK    4  A    between atoms: C_5  and  N_6
REMARK    5  A    between atoms: C_7  and  C_9
REMARK    6  A    between atoms: C_9  and  N_10
REMARK                            x       y       z     vdW  Elec       q    Type
REMARK                         _______ _______ _______ _____ _____    ______ ____
ROOT
ATOM      1  N   UNL     1       7.083  -3.908   0.000  0.00  0.00    -0.204 NA
ATOM      2  C   UNL     1       7.798  -4.321   0.000  0.00  0.00    +0.266 C 
ATOM      3  O   UNL     1       7.798  -5.146   0.000  0.00  0.00    -0.271 OA
ENDROOT
BRANCH   2   4
ATOM      4  C   UNL     1       8.512  -3.908   0.000  0.00  0.00    +0.217 C 
BRANCH   4   5
ATOM      5  N   UNL     1       9.227  -4.321   0.000  0.00  0.00    -0.200 N 
ATOM      6  C   UNL     1       9.313  -5.141   0.000  0.00  0.00    +0.311 A 
ATOM      7  O   UNL     1       8.700  -5.693   0.000  0.00  0.00    -0.258 OA
ATOM      8  S   UNL     1      10.120  -5.312   0.000  0.00  0.00    +0.013 S 
ATOM      9  C   UNL     1      10.532  -4.598   0.000  0.00  0.00    +0.223 A 
ATOM     10  N   UNL     1      11.353  -4.512   0.000  0.00  0.00    -0.098 NA
ATOM     11  N   UNL     1       9.980  -3.985   0.000  0.00  0.00    -0.141 NA
ENDBRANCH   4   5
ENDBRANCH   2   4
BRANCH   1  12
ATOM     12  C   UNL     1       6.369  -4.321   0.000  0.00  0.00    +0.115 C 
BRANCH  12  13
ATOM     13  C   UNL     1       5.654  -3.908   0.000  0.00  0.00    +0.023 C 
BRANCH  13  14
ATOM     14  C   UNL     1       4.940  -4.321   0.000  0.00  0.00    +0.002 C 
BRANCH  14  16
ATOM     15  C   UNL     1       3.511  -4.321   0.000  0.00  0.00    +0.000 C 
ATOM     16  C   UNL     1       4.225  -3.908   0.000  0.00  0.00    +0.000 C 
ENDBRANCH  14  16
ENDBRANCH  13  14
ENDBRANCH  12  13
ENDBRANCH   1  12
TORSDOF 6
