REMARK  Name = 
REMARK  5 active torsions:
REMARK  status: ('A' for Active; 'I' for Inactive)
REMARK    1  A    between atoms: O_2  and  C_3
REMARK    2  A    between atoms: C_3  and  C_6
REMARK    3  A    between atoms: C_6  and  N_7
REMARK    4  A    between atoms: C_8  and  C_10
REMARK    5  A    between atoms: C_10  and  C_11
REMARK                            x       y       z     vdW  Elec       q    Type
REMARK                         _______ _______ _______ _____ _____    ______ ____
ROOT
ATOM      1  N   UNL     1      -0.147   3.177   0.000  0.00  0.00    -0.203 NA
ATOM      2  C   UNL     1      -0.147   2.352   0.000  0.00  0.00    +0.248 C 
ATOM      3  O   UNL     1      -0.861   1.939   0.000  0.00  0.00    -0.273 OA
ENDROOT
BRANCH   1   4
ATOM      4  C   UNL     1      -0.861   3.589   0.000  0.00  0.00    +0.142 C 
BRANCH   4   5
ATOM      5  C   UNL     1      -0.861   4.414   0.000  0.00  0.00    +0.113 C 
ATOM      6  C   UNL     1      -0.036   4.414   0.000  0.00  0.00    +0.031 C 
ATOM      7  C   UNL     1      -1.686   4.414   0.000  0.00  0.00    +0.031 C 
BRANCH   5   9
ATOM      8  C   UNL     1      -1.576   5.652   0.000  0.00  0.00    +0.174 C 
ATOM      9  O   UNL     1      -0.861   5.239   0.000  0.00  0.00    -0.354 OA
ENDBRANCH   5   9
ENDBRANCH   4   5
ENDBRANCH   1   4
BRANCH   2  10
ATOM     10  C   UNL     1       0.568   1.939   0.000  0.00  0.00    +0.134 C 
BRANCH  10  11
ATOM     11  C   UNL     1       0.568   1.114   0.000  0.00  0.00    +0.091 A 
ATOM     12  N   UNL     1      -0.100   0.629   0.000  0.00  0.00    -0.152 NA
ATOM     13  N   UNL     1       0.155  -0.155   0.000  0.00  0.00    -0.153 NA
ATOM     14  C   UNL     1       0.980  -0.155   0.000  0.00  0.00    +0.082 A 
ATOM     15  C   UNL     1       1.465  -0.823   0.000  0.00  0.00    +0.054 C 
ATOM     16  C   UNL     1       1.235   0.629   0.000  0.00  0.00    +0.033 A 
ENDBRANCH  10  11
ENDBRANCH   2  10
TORSDOF 5
