REMARK  Name = 
REMARK  6 active torsions:
REMARK  status: ('A' for Active; 'I' for Inactive)
REMARK    1  A    between atoms: C_2  and  C_3
REMARK    2  A    between atoms: C_3  and  N_4
REMARK    3  A    between atoms: N_7  and  C_8
REMARK    4  A    between atoms: C_13  and  N_14
REMARK    5  A    between atoms: N_20  and  C_21
REMARK    6  A    between atoms: C_21  and  C_22
REMARK                            x       y       z     vdW  Elec       q    Type
REMARK                         _______ _______ _______ _____ _____    ______ ____
ROOT
ATOM      1  C   UNL     1       2.143  -2.888   0.000  0.00  0.00    +0.106 A 
ATOM      2  C   UNL     1       1.429  -3.300   0.000  0.00  0.00    +0.147 A 
ATOM      3  N   UNL     1       1.429  -4.125   0.000  0.00  0.00    -0.228 NA
ATOM      4  C   UNL     1       2.143  -4.537   0.000  0.00  0.00    +0.100 A 
ATOM      5  C   UNL     1       2.858  -4.125   0.000  0.00  0.00    +0.022 A 
ATOM      6  C   UNL     1       2.858  -3.300   0.000  0.00  0.00    +0.021 A 
ENDROOT
BRANCH   2   7
ATOM      7  N   UNL     1       0.715  -2.888   0.000  0.00  0.00    -0.292 N 
ATOM      8  C   UNL     1       0.715  -2.062   0.000  0.00  0.00    +0.092 C 
ATOM      9  C   UNL     1       0.000  -1.650   0.000  0.00  0.00    +0.022 C 
ATOM     10  C   UNL     1      -0.715  -2.062   0.000  0.00  0.00    +0.004 C 
ATOM     11  C   UNL     1      -0.715  -2.888   0.000  0.00  0.00    +0.022 C 
ATOM     12  C   UNL     1       0.000  -3.300   0.000  0.00  0.00    +0.092 C 
ENDBRANCH   2   7
BRANCH   1  15
ATOM     13  N   UNL     1       3.572  -2.062   0.000  0.00  0.00    -0.177 NA
ATOM     14  C   UNL     1       2.858  -1.650   0.000  0.00  0.00    +0.344 C 
ATOM     15  N   UNL     1       2.143  -2.062   0.000  0.00  0.00    -0.158 NA
ATOM     16  O   UNL     1       2.858  -0.825   0.000  0.00  0.00    -0.249 OA
BRANCH  13  17
ATOM     17  C   UNL     1       4.287  -1.650   0.000  0.00  0.00    +0.203 C 
BRANCH  17  19
ATOM     18  O   UNL     1       5.001  -2.888   0.000  0.00  0.00    -0.271 OA
ATOM     19  C   UNL     1       5.001  -2.062   0.000  0.00  0.00    +0.264 C 
ATOM     20  N   UNL     1       5.716  -1.650   0.000  0.00  0.00    -0.189 NA
BRANCH  20  21
ATOM     21  C   UNL     1       6.430  -2.062   0.000  0.00  0.00    +0.191 C 
BRANCH  21  22
ATOM     22  C   UNL     1       7.145  -1.650   0.000  0.00  0.00    -0.054 C 
ATOM     23  C   UNL     1       7.859  -1.238   0.000  0.00  0.00    -0.012 C 
ENDBRANCH  21  22
ENDBRANCH  20  21
ENDBRANCH  17  19
ENDBRANCH  13  17
ENDBRANCH   1  15
TORSDOF 6
