REMARK  Name = 
REMARK  4 active torsions:
REMARK  status: ('A' for Active; 'I' for Inactive)
REMARK    1  A    between atoms: C_2  and  C_4
REMARK    2  A    between atoms: N_7  and  C_8
REMARK    3  A    between atoms: C_8  and  C_9
REMARK    4  A    between atoms: N_11  and  C_12
REMARK                            x       y       z     vdW  Elec       q    Type
REMARK                         _______ _______ _______ _____ _____    ______ ____
ROOT
ATOM      1  C   UNL     1       0.640   6.320   0.000  0.00  0.00    +0.080 A 
ATOM      2  N   UNL     1       1.192   5.707   0.000  0.00  0.00    -0.173 NA
ATOM      3  N   UNL     1       1.945   6.043   0.000  0.00  0.00    -0.240 N 
ATOM      4  C   UNL     1       1.859   6.863   0.000  0.00  0.00    +0.097 A 
ATOM      5  C   UNL     1       1.052   7.035   0.000  0.00  0.00    +0.037 A 
ENDROOT
BRANCH   1   7
ATOM      6  C   UNL     1      -0.666   6.901   0.000  0.00  0.00    +0.006 C 
ATOM      7  C   UNL     1      -0.181   6.234   0.000  0.00  0.00    +0.042 C 
ATOM      8  C   UNL     1      -0.516   5.480   0.000  0.00  0.00    +0.006 C 
ENDBRANCH   1   7
BRANCH   3   9
ATOM      9  C   UNL     1       2.660   5.630   0.000  0.00  0.00    +0.214 C 
BRANCH   9  10
ATOM     10  C   UNL     1       2.660   4.805   0.000  0.00  0.00    +0.266 C 
ATOM     11  N   UNL     1       3.374   4.393   0.000  0.00  0.00    -0.206 NA
ATOM     12  O   UNL     1       1.945   4.393   0.000  0.00  0.00    -0.271 OA
BRANCH  11  13
ATOM     13  C   UNL     1       3.374   3.568   0.000  0.00  0.00    +0.095 C 
ATOM     14  C   UNL     1       2.962   2.853   0.000  0.00  0.00    +0.023 C 
ATOM     15  C   UNL     1       3.787   2.853   0.000  0.00  0.00    +0.023 C 
ENDBRANCH  11  13
ENDBRANCH   9  10
ENDBRANCH   3   9
TORSDOF 4
