REMARK  Name = 
REMARK  6 active torsions:
REMARK  status: ('A' for Active; 'I' for Inactive)
REMARK    1  A    between atoms: N_2  and  C_9
REMARK    2  A    between atoms: C_3  and  N_6
REMARK    3  A    between atoms: C_8  and  C_9
REMARK    4  A    between atoms: C_13  and  C_21
REMARK    5  A    between atoms: C_21  and  C_25
REMARK    6  A    between atoms: O_23  and  C_25
REMARK                            x       y       z     vdW  Elec       q    Type
REMARK                         _______ _______ _______ _____ _____    ______ ____
ROOT
ATOM      1  C   UNL     1       2.562   0.825   0.000  0.00  0.00    +0.149 A 
ATOM      2  N   UNL     1       1.779   1.083   0.000  0.00  0.00    -0.219 NA
ATOM      3  C   UNL     1       1.292   0.412   0.000  0.00  0.00    +0.180 A 
ATOM      4  N   UNL     1       1.779  -0.254   0.000  0.00  0.00    -0.292 N 
ATOM      5  C   UNL     1       2.562   0.000   0.000  0.00  0.00    +0.167 A 
ATOM      6  N   UNL     1       3.275  -0.412   0.000  0.00  0.00    -0.205 NA
ATOM      7  C   UNL     1       3.992   0.000   0.000  0.00  0.00    +0.201 A 
ATOM      8  N   UNL     1       3.992   0.825   0.000  0.00  0.00    -0.207 NA
ATOM      9  C   UNL     1       3.275   1.238   0.000  0.00  0.00    +0.154 A 
ENDROOT
BRANCH   9  10
ATOM     10  N   UNL     1       3.275   2.062   0.000  0.00  0.00    -0.288 N 
ATOM     11  C   UNL     1       3.992   2.475   0.000  0.00  0.00    +0.124 C 
ATOM     12  C   UNL     1       3.992   3.300   0.000  0.00  0.00    +0.164 C 
ATOM     13  O   UNL     1       3.275   3.712   0.000  0.00  0.00    -0.350 OA
ATOM     14  C   UNL     1       2.562   3.300   0.000  0.00  0.00    +0.162 C 
ATOM     15  C   UNL     1       2.562   2.475   0.000  0.00  0.00    +0.106 C 
BRANCH  15  16
ATOM     16  C   UNL     1       1.850   2.062   0.000  0.00  0.00    +0.054 C 
BRANCH  16  17
ATOM     17  C   UNL     1       1.133   2.475   0.000  0.00  0.00    +0.144 C 
BRANCH  17  18
ATOM     18  O   UNL     1       0.421   2.062   0.000  0.00  0.00    -0.351 OA
ATOM     19  C   UNL     1      -0.296   2.475   0.000  0.00  0.00    +0.174 C 
ENDBRANCH  17  18
ENDBRANCH  16  17
ENDBRANCH  15  16
ENDBRANCH   9  10
BRANCH   4  20
ATOM     20  C   UNL     1       1.521  -1.038   0.000  0.00  0.00    +0.142 C 
BRANCH  20  21
ATOM     21  C   UNL     1       2.075  -1.650   0.000  0.00  0.00    +0.174 C 
ATOM     22  O   UNL     1       1.408  -2.138   0.000  0.00  0.00    -0.221 OA
ATOM     23  C   UNL     1       2.625  -1.038   0.000  0.00  0.00    +0.067 C 
ATOM     24  C   UNL     1       3.379  -1.375   0.000  0.00  0.00    +0.145 C 
ATOM     25  O   UNL     1       3.296  -2.192   0.000  0.00  0.00    -0.354 OA
ATOM     26  C   UNL     1       2.487  -2.367   0.000  0.00  0.00    +0.145 C 
ATOM     27  C   UNL     1       2.150  -3.117   0.000  0.00  0.00    +0.035 C 
ENDBRANCH  20  21
ENDBRANCH   4  20
TORSDOF 6
