REMARK  Name = 
REMARK  6 active torsions:
REMARK  status: ('A' for Active; 'I' for Inactive)
REMARK    1  A    between atoms: N_2  and  C_11
REMARK    2  A    between atoms: C_5  and  N_6
REMARK    3  A    between atoms: C_10  and  C_11
REMARK    4  A    between atoms: C_10  and  C_23
REMARK    5  A    between atoms: N_16  and  C_21
REMARK    6  A    between atoms: C_18  and  C_21
REMARK                            x       y       z     vdW  Elec       q    Type
REMARK                         _______ _______ _______ _____ _____    ______ ____
ROOT
ATOM      1  C   UNL     1       2.562   0.825   0.000  0.00  0.00    +0.149 A 
ATOM      2  C   UNL     1       3.275   1.238   0.000  0.00  0.00    +0.154 A 
ATOM      3  N   UNL     1       3.992   0.825   0.000  0.00  0.00    -0.207 NA
ATOM      4  C   UNL     1       3.992   0.000   0.000  0.00  0.00    +0.201 A 
ATOM      5  N   UNL     1       3.275  -0.412   0.000  0.00  0.00    -0.205 NA
ATOM      6  N   UNL     1       1.779   1.083   0.000  0.00  0.00    -0.219 NA
ATOM      7  C   UNL     1       1.292   0.412   0.000  0.00  0.00    +0.180 A 
ATOM      8  N   UNL     1       1.779  -0.254   0.000  0.00  0.00    -0.294 N 
ATOM      9  C   UNL     1       2.562   0.000   0.000  0.00  0.00    +0.167 A 
ENDROOT
BRANCH   2  10
ATOM     10  N   UNL     1       3.275   2.062   0.000  0.00  0.00    -0.292 N 
ATOM     11  C   UNL     1       3.992   2.475   0.000  0.00  0.00    +0.092 C 
ATOM     12  C   UNL     1       3.992   3.300   0.000  0.00  0.00    +0.022 C 
ATOM     13  C   UNL     1       3.275   3.712   0.000  0.00  0.00    +0.005 C 
ATOM     14  C   UNL     1       2.562   3.300   0.000  0.00  0.00    +0.042 C 
ATOM     15  C   UNL     1       2.562   2.475   0.000  0.00  0.00    +0.094 C 
BRANCH  14  16
ATOM     16  C   UNL     1       1.850   3.712   0.000  0.00  0.00    +0.117 C 
BRANCH  16  17
ATOM     17  N   UNL     1       1.850   4.533   0.000  0.00  0.00    -0.205 NA
ATOM     18  C   UNL     1       1.133   4.950   0.000  0.00  0.00    +0.242 C 
ATOM     19  C   UNL     1       1.133   5.775   0.000  0.00  0.00    +0.096 C 
ATOM     20  O   UNL     1       0.421   4.533   0.000  0.00  0.00    -0.273 OA
ENDBRANCH  16  17
ENDBRANCH  14  16
ENDBRANCH   2  10
BRANCH   8  21
ATOM     21  C   UNL     1       1.521  -1.038   0.000  0.00  0.00    +0.116 C 
BRANCH  21  22
ATOM     22  C   UNL     1       2.075  -1.650   0.000  0.00  0.00    +0.106 C 
ATOM     23  C   UNL     1       2.688  -1.100   0.000  0.00  0.00    +0.149 C 
ATOM     24  O   UNL     1       3.242  -1.712   0.000  0.00  0.00    -0.353 OA
ATOM     25  C   UNL     1       2.625  -2.263   0.000  0.00  0.00    +0.149 C 
BRANCH  22  26
ATOM     26  C   UNL     1       1.462  -2.204   0.000  0.00  0.00    +0.189 C 
ATOM     27  O   UNL     1       1.633  -3.008   0.000  0.00  0.00    -0.220 OA
ENDBRANCH  22  26
ENDBRANCH  21  22
ENDBRANCH   8  21
TORSDOF 6
