REMARK  Name = 
REMARK  2 active torsions:
REMARK  status: ('A' for Active; 'I' for Inactive)
REMARK    1  A    between atoms: C_7  and  C_8
REMARK    2  A    between atoms: C_8  and  C_9
REMARK                            x       y       z     vdW  Elec       q    Type
REMARK                         _______ _______ _______ _____ _____    ______ ____
ROOT
ATOM      1 CL   UNL     1       0.000   0.000   0.000  0.00  0.00    +0.000 Cl
ENDROOT
TORSDOF 0
REMARK  Name = 
REMARK  2 active torsions:
REMARK  status: ('A' for Active; 'I' for Inactive)
REMARK    1  A    between atoms: C_7  and  C_8
REMARK    2  A    between atoms: C_8  and  C_9
REMARK                            x       y       z     vdW  Elec       q    Type
REMARK                         _______ _______ _______ _____ _____    ______ ____
ROOT
ATOM      1  C   UNL     1       4.765   0.992   0.000  0.00  0.00    +0.053 C 
ATOM      2  C   UNL     1       4.765   0.167   0.000  0.00  0.00    +0.075 A 
ATOM      3  C   UNL     1       4.098  -0.318   0.000  0.00  0.00    +0.076 A 
ATOM      4  N   UNL     1       4.353  -1.102   0.000  0.00  0.00    -0.227 NA
ATOM      5  C   UNL     1       5.178  -1.102   0.000  0.00  0.00    +0.198 A 
ATOM      6  N   UNL     1       5.433  -0.318   0.000  0.00  0.00    -0.227 NA
ENDROOT
BRANCH   3   7
ATOM      7  C   UNL     1       3.313  -0.063   0.000  0.00  0.00    +0.068 C 
BRANCH   7   8
ATOM      8  C   UNL     1       3.142   0.744   0.000  0.00  0.00    +0.116 C 
ATOM      9  N   UNL     1       2.357   0.999   0.000  0.00  0.00    -0.131 NA
ENDBRANCH   7   8
ENDBRANCH   3   7
TORSDOF 2
