REMARK  Name = 
REMARK  4 active torsions:
REMARK  status: ('A' for Active; 'I' for Inactive)
REMARK    1  A    between atoms: O_2  and  C_3
REMARK    2  A    between atoms: C_9  and  N_10
REMARK    3  A    between atoms: N_13  and  C_14
REMARK    4  A    between atoms: N_17  and  C_20
REMARK                            x       y       z     vdW  Elec       q    Type
REMARK                         _______ _______ _______ _____ _____    ______ ____
ROOT
ATOM      1  N   UNL     1       0.000   8.004   0.000  0.00  0.00    -0.139 NA
ATOM      2  C   UNL     1       0.000   7.179   0.000  0.00  0.00    +0.345 C 
ATOM      3  N   UNL     1       0.715   6.766   0.000  0.00  0.00    -0.189 NA
ATOM      4  O   UNL     1      -0.715   6.766   0.000  0.00  0.00    -0.249 OA
ENDROOT
BRANCH   1   6
ATOM      5  C   UNL     1      -1.429   8.004   0.000  0.00  0.00    +0.172 A 
ATOM      6  C   UNL     1      -0.715   8.416   0.000  0.00  0.00    +0.190 A 
ATOM      7  N   UNL     1      -0.715   9.241   0.000  0.00  0.00    -0.230 NA
ATOM      8  C   UNL     1      -1.429   9.654   0.000  0.00  0.00    +0.061 A 
ATOM      9  C   UNL     1      -1.429  10.479   0.000  0.00  0.00    +0.052 C 
ATOM     10  C   UNL     1      -2.143   9.241   0.000  0.00  0.00    +0.018 A 
ATOM     11  C   UNL     1      -2.143   8.416   0.000  0.00  0.00    +0.041 A 
BRANCH   5  13
ATOM     12  C   UNL     1      -2.143   6.766   0.000  0.00  0.00    +0.253 C 
ATOM     13  O   UNL     1      -1.429   7.179   0.000  0.00  0.00    -0.469 OA
ENDBRANCH   5  13
ENDBRANCH   1   6
BRANCH   3  14
ATOM     14  C   UNL     1       0.715   5.941   0.000  0.00  0.00    +0.100 C 
ATOM     15  C   UNL     1       0.000   5.529   0.000  0.00  0.00    +0.039 C 
ATOM     16  C   UNL     1       0.000   4.704   0.000  0.00  0.00    +0.074 C 
ATOM     17  N   UNL     1       0.715   4.291   0.000  0.00  0.00    -0.274 NA
ATOM     18  C   UNL     1       1.429   4.704   0.000  0.00  0.00    +0.074 C 
ATOM     19  C   UNL     1       1.429   5.529   0.000  0.00  0.00    +0.039 C 
BRANCH  17  20
ATOM     20  C   UNL     1       0.715   3.466   0.000  0.00  0.00    +0.058 C 
ATOM     21  C   UNL     1       0.047   2.981   0.000  0.00  0.00    +0.016 C 
ATOM     22  C   UNL     1       0.302   2.196   0.000  0.00  0.00    +0.001 C 
ATOM     23  C   UNL     1       1.127   2.196   0.000  0.00  0.00    +0.001 C 
ATOM     24  C   UNL     1       1.382   2.981   0.000  0.00  0.00    +0.016 C 
ENDBRANCH  17  20
ENDBRANCH   3  14
TORSDOF 4
