REMARK  Name = 
REMARK  5 active torsions:
REMARK  status: ('A' for Active; 'I' for Inactive)
REMARK    1  A    between atoms: C_2  and  O_3
REMARK    2  A    between atoms: O_3  and  C_4
REMARK    3  A    between atoms: C_6  and  N_7
REMARK    4  A    between atoms: C_8  and  C_10
REMARK    5  A    between atoms: C_10  and  C_11
REMARK                            x       y       z     vdW  Elec       q    Type
REMARK                         _______ _______ _______ _____ _____    ______ ____
ROOT
ATOM      1  C   UNL     1       0.412  -0.171   0.000  0.00  0.00    +0.118 C 
ATOM      2  C   UNL     1       0.996   0.412   0.000  0.00  0.00    +0.044 C 
ATOM      3  C   UNL     1       1.481  -0.255   0.000  0.00  0.00    +0.004 C 
ATOM      4  C   UNL     1       2.265   0.000   0.000  0.00  0.00    +0.000 C 
ATOM      5  C   UNL     1       2.265   0.825   0.000  0.00  0.00    +0.000 C 
ATOM      6  C   UNL     1       1.481   1.080   0.000  0.00  0.00    +0.004 C 
ATOM      7  C   UNL     1       0.412   0.996   0.000  0.00  0.00    +0.100 C 
ATOM      8  C   UNL     1      -0.171   0.412   0.000  0.00  0.00    +0.051 C 
ENDROOT
BRANCH   7   9
ATOM      9  N   UNL     1       0.412   1.821   0.000  0.00  0.00    -0.207 NA
ATOM     10  C   UNL     1      -0.302   2.233   0.000  0.00  0.00    +0.246 C 
ATOM     11  O   UNL     1      -1.016   1.821   0.000  0.00  0.00    -0.273 OA
BRANCH  10  12
ATOM     12  C   UNL     1      -0.302   3.058   0.000  0.00  0.00    +0.116 C 
BRANCH  12  13
ATOM     13  C   UNL     1      -1.016   3.471   0.000  0.00  0.00    +0.027 A 
ATOM     14  C   UNL     1      -1.103   4.291   0.000  0.00  0.00    +0.093 A 
ATOM     15  N   UNL     1      -1.910   4.463   0.000  0.00  0.00    -0.248 N 
ATOM     16  C   UNL     1      -2.245   5.216   0.000  0.00  0.00    +0.154 C 
ATOM     17  N   UNL     1      -2.322   3.748   0.000  0.00  0.00    -0.168 NA
ATOM     18  C   UNL     1      -1.770   3.135   0.000  0.00  0.00    +0.118 A 
ENDBRANCH  12  13
ENDBRANCH  10  12
ENDBRANCH   7   9
BRANCH   1  19
ATOM     19  O   UNL     1       0.412  -0.996   0.000  0.00  0.00    -0.356 OA
BRANCH  19  21
ATOM     20  C   UNL     1       1.127  -2.233   0.000  0.00  0.00    +0.035 C 
ATOM     21  C   UNL     1       1.127  -1.408   0.000  0.00  0.00    +0.142 C 
ENDBRANCH  19  21
ENDBRANCH   1  19
TORSDOF 5
