REMARK  Name = 
REMARK  6 active torsions:
REMARK  status: ('A' for Active; 'I' for Inactive)
REMARK    1  A    between atoms: C_2  and  C_3
REMARK    2  A    between atoms: C_3  and  C_4
REMARK    3  A    between atoms: C_4  and  N_5
REMARK    4  A    between atoms: N_16  and  C_17
REMARK    5  A    between atoms: C_17  and  C_18
REMARK    6  A    between atoms: C_18  and  C_19
REMARK                            x       y       z     vdW  Elec       q    Type
REMARK                         _______ _______ _______ _____ _____    ______ ____
ROOT
ATOM      1  C   UNL     1       2.944  -2.020   0.000  0.00  0.00    +0.109 C 
ENDROOT
BRANCH   1   3
ATOM      2  O   UNL     1       3.658  -3.258   0.000  0.00  0.00    -0.273 OA
ATOM      3  C   UNL     1       3.658  -2.433   0.000  0.00  0.00    +0.243 C 
ATOM      4  N   UNL     1       4.373  -2.020   0.000  0.00  0.00    -0.205 NA
BRANCH   4   5
ATOM      5  C   UNL     1       5.087  -2.433   0.000  0.00  0.00    +0.121 C 
BRANCH   5   6
ATOM      6  C   UNL     1       5.802  -2.020   0.000  0.00  0.00    +0.069 C 
BRANCH   6   7
ATOM      7  C   UNL     1       6.516  -2.433   0.000  0.00  0.00    +0.061 A 
ATOM      8  N   UNL     1       6.516  -3.258   0.000  0.00  0.00    -0.248 NA
ATOM      9  C   UNL     1       7.231  -3.670   0.000  0.00  0.00    +0.098 A 
ATOM     10  C   UNL     1       7.945  -3.258   0.000  0.00  0.00    +0.021 A 
ATOM     11  C   UNL     1       7.945  -2.433   0.000  0.00  0.00    +0.003 A 
ATOM     12  C   UNL     1       7.231  -2.020   0.000  0.00  0.00    +0.015 A 
ENDBRANCH   6   7
ENDBRANCH   5   6
ENDBRANCH   4   5
ENDBRANCH   1   3
BRANCH   1  13
ATOM     13  C   UNL     1       2.229  -2.433   0.000  0.00  0.00    +0.110 C 
BRANCH  13  14
ATOM     14  N   UNL     1       1.515  -2.020   0.000  0.00  0.00    -0.229 N 
ATOM     15  C   UNL     1       1.429  -1.200   0.000  0.00  0.00    +0.231 C 
ATOM     16  O   UNL     1       2.042  -0.648   0.000  0.00  0.00    -0.274 OA
ATOM     17  C   UNL     1       0.622  -1.028   0.000  0.00  0.00    +0.086 C 
ATOM     18  C   UNL     1       0.209  -1.743   0.000  0.00  0.00    +0.086 C 
ATOM     19  C   UNL     1      -0.616  -1.743   0.000  0.00  0.00    +0.010 C 
ATOM     20  C   UNL     1      -1.028  -1.028   0.000  0.00  0.00    +0.001 C 
ATOM     21  C   UNL     1      -0.616  -0.314   0.000  0.00  0.00    +0.001 C 
ATOM     22  C   UNL     1       0.209  -0.314   0.000  0.00  0.00    +0.010 C 
ATOM     23  C   UNL     1       0.761  -2.356   0.000  0.00  0.00    +0.231 C 
ATOM     24  O   UNL     1       0.590  -3.163   0.000  0.00  0.00    -0.274 OA
ENDBRANCH  13  14
ENDBRANCH   1  13
TORSDOF 6
