REMARK  Name = 
REMARK  4 active torsions:
REMARK  status: ('A' for Active; 'I' for Inactive)
REMARK    1  A    between atoms: C_2  and  C_12
REMARK    2  A    between atoms: N_3  and  C_4
REMARK    3  A    between atoms: C_4  and  C_5
REMARK    4  A    between atoms: C_5  and  C_6
REMARK                            x       y       z     vdW  Elec       q    Type
REMARK                         _______ _______ _______ _____ _____    ______ ____
ROOT
ATOM      1  C   UNL     1       0.715  -2.888   0.000  0.00  0.00    +0.072 A 
ATOM      2  C   UNL     1       0.715  -2.062   0.000  0.00  0.00    +0.009 A 
ATOM      3  C   UNL     1       0.000  -1.650   0.000  0.00  0.00    +0.039 A 
ATOM      4  C   UNL     1      -0.715  -2.062   0.000  0.00  0.00    +0.164 A 
ATOM      5  N   UNL     1      -0.715  -2.888   0.000  0.00  0.00    -0.308 N 
ATOM      6  C   UNL     1      -1.429  -3.300   0.000  0.00  0.00    +0.135 C 
ATOM      7  C   UNL     1      -2.143  -2.888   0.000  0.00  0.00    +0.201 C 
ATOM      8  S   UNL     1      -2.143  -2.062   0.000  0.00  0.00    +0.084 S 
ATOM      9  O   UNL     1      -2.426  -1.287   0.000  0.00  0.00    -0.151 OA
ATOM     10  O   UNL     1      -2.956  -2.206   0.000  0.00  0.00    -0.151 OA
ATOM     11  N   UNL     1      -1.429  -1.650   0.000  0.00  0.00    -0.114 NA
ATOM     12  C   UNL     1       0.000  -3.300   0.000  0.00  0.00    +0.082 A 
ENDROOT
BRANCH   1  14
ATOM     13  O   UNL     1       1.429  -4.125   0.000  0.00  0.00    -0.268 OA
ATOM     14  C   UNL     1       1.429  -3.300   0.000  0.00  0.00    +0.266 C 
ATOM     15  N   UNL     1       2.143  -2.888   0.000  0.00  0.00    -0.201 NA
BRANCH  15  16
ATOM     16  C   UNL     1       2.858  -3.300   0.000  0.00  0.00    +0.120 C 
BRANCH  16  17
ATOM     17  C   UNL     1       3.572  -2.888   0.000  0.00  0.00    +0.051 C 
BRANCH  17  18
ATOM     18  C   UNL     1       4.287  -3.300   0.000  0.00  0.00    -0.001 A 
ATOM     19  C   UNL     1       4.287  -4.125   0.000  0.00  0.00    +0.095 A 
ATOM     20  N   UNL     1       5.001  -4.537   0.000  0.00  0.00    -0.243 NA
ATOM     21  C   UNL     1       5.716  -4.125   0.000  0.00  0.00    +0.099 A 
ATOM     22  C   UNL     1       5.716  -3.300   0.000  0.00  0.00    +0.020 A 
ATOM     23  C   UNL     1       5.001  -2.888   0.000  0.00  0.00    -0.001 A 
ENDBRANCH  17  18
ENDBRANCH  16  17
ENDBRANCH  15  16
ENDBRANCH   1  14
TORSDOF 4
