REMARK  Name = 
REMARK  6 active torsions:
REMARK  status: ('A' for Active; 'I' for Inactive)
REMARK    1  A    between atoms: C_2  and  C_3
REMARK    2  A    between atoms: C_3  and  C_4
REMARK    3  A    between atoms: C_6  and  N_7
REMARK    4  A    between atoms: C_8  and  C_10
REMARK    5  A    between atoms: C_10  and  C_11
REMARK    6  A    between atoms: C_19  and  O_20
REMARK                            x       y       z     vdW  Elec       q    Type
REMARK                         _______ _______ _______ _____ _____    ______ ____
ROOT
ATOM      1  C   UNL     1       3.479  -1.705   0.000  0.00  0.00    +0.044 C 
ATOM      2  C   UNL     1       2.896  -2.288   0.000  0.00  0.00    +0.118 C 
ATOM      3  C   UNL     1       3.479  -2.872   0.000  0.00  0.00    +0.047 C 
ATOM      4  C   UNL     1       3.479  -3.697   0.000  0.00  0.00    +0.004 C 
ATOM      5  C   UNL     1       4.062  -2.288   0.000  0.00  0.00    +0.100 C 
ENDROOT
BRANCH   5   6
ATOM      6  N   UNL     1       4.887  -2.288   0.000  0.00  0.00    -0.207 NA
ATOM      7  C   UNL     1       5.300  -3.003   0.000  0.00  0.00    +0.247 C 
ATOM      8  O   UNL     1       4.887  -3.717   0.000  0.00  0.00    -0.273 OA
BRANCH   7   9
ATOM      9  C   UNL     1       6.125  -3.003   0.000  0.00  0.00    +0.134 C 
BRANCH   9  10
ATOM     10  C   UNL     1       6.537  -3.717   0.000  0.00  0.00    +0.091 A 
ATOM     11  N   UNL     1       6.202  -4.471   0.000  0.00  0.00    -0.152 NA
ATOM     12  N   UNL     1       6.815  -5.023   0.000  0.00  0.00    -0.153 NA
ATOM     13  C   UNL     1       7.529  -4.611   0.000  0.00  0.00    +0.082 A 
ATOM     14  C   UNL     1       8.283  -4.946   0.000  0.00  0.00    +0.054 C 
ATOM     15  C   UNL     1       7.358  -3.804   0.000  0.00  0.00    +0.033 A 
ENDBRANCH   9  10
ENDBRANCH   7   9
ENDBRANCH   5   6
BRANCH   1  17
ATOM     16  C   UNL     1       4.859  -1.335   0.000  0.00  0.00    +0.000 C 
ATOM     17  C   UNL     1       4.062  -1.122   0.000  0.00  0.00    +0.004 C 
ENDBRANCH   1  17
BRANCH   2  18
ATOM     18  O   UNL     1       2.071  -2.288   0.000  0.00  0.00    -0.353 OA
ATOM     19  C   UNL     1       1.658  -3.003   0.000  0.00  0.00    +0.174 C 
ENDBRANCH   2  18
BRANCH   1  20
ATOM     20  C   UNL     1       2.896  -1.122   0.000  0.00  0.00    +0.004 C 
ATOM     21  C   UNL     1       2.099  -1.335   0.000  0.00  0.00    +0.000 C 
ENDBRANCH   1  20
TORSDOF 6
