REMARK  Name = 
REMARK  3 active torsions:
REMARK  status: ('A' for Active; 'I' for Inactive)
REMARK    1  A    between atoms: C_6  and  C_7
REMARK    2  A    between atoms: C_7  and  C_8
REMARK    3  A    between atoms: N_10  and  C_11
REMARK                            x       y       z     vdW  Elec       q    Type
REMARK                         _______ _______ _______ _____ _____    ______ ____
ROOT
ATOM      1  C   UNL     1      -0.821   8.478   0.000  0.00  0.00    +0.074 C 
ATOM      2  C   UNL     1      -0.107   8.065   0.000  0.00  0.00    +0.142 A 
ATOM      3  N   UNL     1      -0.107   7.240   0.000  0.00  0.00    -0.193 NA
ATOM      4  C   UNL     1       0.608   6.828   0.000  0.00  0.00    +0.278 A 
ATOM      5  O   UNL     1       0.608   6.003   0.000  0.00  0.00    -0.265 OA
ATOM      6  C   UNL     1       1.322   7.240   0.000  0.00  0.00    +0.058 A 
ATOM      7  C   UNL     1       1.322   8.065   0.000  0.00  0.00    +0.062 A 
ATOM      8  C   UNL     1       2.037   8.478   0.000  0.00  0.00    +0.052 C 
ATOM      9  N   UNL     1       0.608   8.478   0.000  0.00  0.00    -0.235 NA
ENDROOT
BRANCH   6  10
ATOM     10  C   UNL     1       2.037   6.828   0.000  0.00  0.00    +0.119 C 
BRANCH  10  11
ATOM     11  C   UNL     1       2.037   6.003   0.000  0.00  0.00    +0.246 C 
ATOM     12  N   UNL     1       2.751   5.590   0.000  0.00  0.00    -0.207 NA
ATOM     13  O   UNL     1       1.322   5.590   0.000  0.00  0.00    -0.273 OA
BRANCH  12  14
ATOM     14  C   UNL     1       2.751   4.765   0.000  0.00  0.00    +0.095 C 
ATOM     15  C   UNL     1       2.084   4.280   0.000  0.00  0.00    +0.022 C 
ATOM     16  C   UNL     1       2.339   3.496   0.000  0.00  0.00    +0.002 C 
ATOM     17  C   UNL     1       3.164   3.496   0.000  0.00  0.00    +0.002 C 
ATOM     18  C   UNL     1       3.419   4.280   0.000  0.00  0.00    +0.022 C 
ENDBRANCH  12  14
ENDBRANCH  10  11
ENDBRANCH   6  10
TORSDOF 3
