REMARK  Name = 
REMARK  1 active torsions:
REMARK  status: ('A' for Active; 'I' for Inactive)
REMARK    1  A    between atoms: N_8  and  C_9
REMARK                            x       y       z     vdW  Elec       q    Type
REMARK                         _______ _______ _______ _____ _____    ______ ____
ROOT
ATOM      1  C   UNL     1       2.002  -2.196   0.000  0.00  0.00    +0.075 C 
ATOM      2  C   UNL     1       2.002  -3.021   0.000  0.00  0.00    +0.156 A 
ATOM      3  O   UNL     1       1.334  -3.506   0.000  0.00  0.00    -0.356 OA
ATOM      4  N   UNL     1       1.589  -4.290   0.000  0.00  0.00    -0.060 NA
ATOM      5  C   UNL     1       2.414  -4.290   0.000  0.00  0.00    +0.197 A 
ATOM      6  N   UNL     1       2.899  -4.958   0.000  0.00  0.00    -0.139 NA
ATOM      7  C   UNL     1       2.564  -5.712   0.000  0.00  0.00    +0.345 C 
ATOM      8  N   UNL     1       3.049  -6.379   0.000  0.00  0.00    -0.179 NA
ATOM      9  O   UNL     1       1.743  -5.798   0.000  0.00  0.00    -0.249 OA
ATOM     10  C   UNL     1       2.669  -3.506   0.000  0.00  0.00    +0.075 A 
ENDROOT
BRANCH   8  11
ATOM     11  C   UNL     1       2.713  -7.133   0.000  0.00  0.00    +0.174 C 
ATOM     12  C   UNL     1       1.888  -7.157   0.000  0.00  0.00    +0.261 C 
ATOM     13  O   UNL     1       1.508  -6.425   0.000  0.00  0.00    -0.271 OA
ATOM     14  N   UNL     1       1.394  -7.817   0.000  0.00  0.00    -0.204 NA
ATOM     15  C   UNL     1       1.601  -8.616   0.000  0.00  0.00    +0.115 C 
ATOM     16  C   UNL     1       2.355  -8.951   0.000  0.00  0.00    +0.024 C 
ATOM     17  C   UNL     1       3.087  -8.571   0.000  0.00  0.00    +0.004 C 
ATOM     18  C   UNL     1       3.247  -7.762   0.000  0.00  0.00    +0.031 C 
ENDBRANCH   8  11
TORSDOF 1
