REMARK  Name = 
REMARK  6 active torsions:
REMARK  status: ('A' for Active; 'I' for Inactive)
REMARK    1  A    between atoms: C_2  and  C_5
REMARK    2  A    between atoms: C_5  and  N_6
REMARK    3  A    between atoms: C_9  and  N_12
REMARK    4  A    between atoms: C_14  and  C_19
REMARK    5  A    between atoms: N_21  and  C_22
REMARK    6  A    between atoms: C_22  and  C_23
REMARK                            x       y       z     vdW  Elec       q    Type
REMARK                         _______ _______ _______ _____ _____    ______ ____
ROOT
ATOM      1  N   UNL     1      -3.572   2.062   0.000  0.00  0.00    -0.287 N 
ATOM      2  C   UNL     1      -4.287   1.650   0.000  0.00  0.00    +0.261 A 
ATOM      3  O   UNL     1      -5.001   2.062   0.000  0.00  0.00    -0.267 OA
ATOM      4  C   UNL     1      -4.287   0.825   0.000  0.00  0.00    +0.061 A 
ATOM      5  C   UNL     1      -3.572   0.412   0.000  0.00  0.00    +0.011 A 
ATOM      6  C   UNL     1      -2.858   0.825   0.000  0.00  0.00    +0.072 A 
ATOM      7  C   UNL     1      -2.858   1.650   0.000  0.00  0.00    +0.083 A 
ENDROOT
BRANCH   1  11
ATOM      8  N   UNL     1      -3.985   4.157   0.000  0.00  0.00    -0.270 N 
ATOM      9  C   UNL     1      -4.240   3.372   0.000  0.00  0.00    +0.247 C 
ATOM     10  O   UNL     1      -5.024   3.118   0.000  0.00  0.00    -0.273 OA
ATOM     11  C   UNL     1      -3.572   2.888   0.000  0.00  0.00    +0.166 C 
ATOM     12  C   UNL     1      -2.905   3.372   0.000  0.00  0.00    +0.054 C 
ATOM     13  C   UNL     1      -3.160   4.157   0.000  0.00  0.00    +0.096 C 
BRANCH   8  14
ATOM     14  C   UNL     1      -4.470   4.824   0.000  0.00  0.00    +0.197 C 
BRANCH  14  16
ATOM     15  F   UNL     1      -3.799   6.332   0.000  0.00  0.00    -0.168 F 
ATOM     16  C   UNL     1      -4.134   5.578   0.000  0.00  0.00    +0.416 C 
ATOM     17  F   UNL     1      -3.381   5.243   0.000  0.00  0.00    -0.168 F 
ATOM     18  F   UNL     1      -4.888   5.914   0.000  0.00  0.00    -0.168 F 
ENDBRANCH  14  16
ENDBRANCH   8  14
ENDBRANCH   1  11
BRANCH   6  19
ATOM     19  C   UNL     1      -2.143   0.412   0.000  0.00  0.00    +0.267 C 
ATOM     20  N   UNL     1      -1.429   0.825   0.000  0.00  0.00    -0.187 NA
ATOM     21  O   UNL     1      -2.143  -0.412   0.000  0.00  0.00    -0.268 OA
BRANCH  20  22
ATOM     22  C   UNL     1      -0.715   0.412   0.000  0.00  0.00    +0.192 C 
BRANCH  22  23
ATOM     23  C   UNL     1       0.000   0.825   0.000  0.00  0.00    -0.054 C 
ATOM     24  C   UNL     1       0.715   1.238   0.000  0.00  0.00    -0.012 C 
ENDBRANCH  22  23
ENDBRANCH  20  22
ENDBRANCH   6  19
TORSDOF 6
