REMARK  Name = 
REMARK  2 active torsions:
REMARK  status: ('A' for Active; 'I' for Inactive)
REMARK    1  A    between atoms: C_2  and  C_3
REMARK    2  A    between atoms: C_8  and  N_10
REMARK                            x       y       z     vdW  Elec       q    Type
REMARK                         _______ _______ _______ _____ _____    ______ ____
ROOT
ATOM      1  C   UNL     1       3.595  -0.786   0.000  0.00  0.00    +0.226 C 
ATOM      2  N   UNL     1       3.595  -1.611   0.000  0.00  0.00    -0.278 N 
ATOM      3  C   UNL     1       2.928  -2.096   0.000  0.00  0.00    +0.115 C 
ATOM      4  C   UNL     1       3.182  -2.881   0.000  0.00  0.00    +0.118 C 
ATOM      5  C   UNL     1       4.007  -2.881   0.000  0.00  0.00    +0.045 C 
ATOM      6  C   UNL     1       4.262  -2.096   0.000  0.00  0.00    +0.095 C 
ATOM      7  O   UNL     1       2.880  -0.374   0.000  0.00  0.00    -0.275 OA
ENDROOT
BRANCH   4   8
ATOM      8  N   UNL     1       2.697  -3.548   0.000  0.00  0.00    -0.187 NA
ATOM      9  C   UNL     1       1.877  -3.462   0.000  0.00  0.00    +0.347 C 
ATOM     10  N   UNL     1       1.392  -4.130   0.000  0.00  0.00    -0.108 NA
ATOM     11  C   UNL     1       0.572  -4.043   0.000  0.00  0.00    +0.317 A 
ATOM     12  O   UNL     1       0.159  -3.329   0.000  0.00  0.00    -0.419 OA
ATOM     13  C   UNL     1      -0.648  -3.500   0.000  0.00  0.00    +0.204 A 
ATOM     14  C   UNL     1      -0.734  -4.321   0.000  0.00  0.00    +0.144 A 
ATOM     15  N   UNL     1       0.020  -4.656   0.000  0.00  0.00    -0.191 NA
ATOM     16  O   UNL     1       1.541  -2.708   0.000  0.00  0.00    -0.249 OA
ENDBRANCH   4   8
BRANCH   1  18
ATOM     17  C   UNL     1       4.309   0.451   0.000  0.00  0.00    +0.010 C 
ATOM     18  C   UNL     1       4.309  -0.374   0.000  0.00  0.00    +0.085 C 
ENDBRANCH   1  18
TORSDOF 2
