REMARK  Name = 
REMARK  4 active torsions:
REMARK  status: ('A' for Active; 'I' for Inactive)
REMARK    1  A    between atoms: C_6  and  C_7
REMARK    2  A    between atoms: C_7  and  C_8
REMARK    3  A    between atoms: C_8  and  N_9
REMARK    4  A    between atoms: C_10  and  C_12
REMARK                            x       y       z     vdW  Elec       q    Type
REMARK                         _______ _______ _______ _____ _____    ______ ____
ROOT
ATOM      1  N   UNL     1       2.143  -2.888   0.000  0.00  0.00    -0.205 NA
ATOM      2  C   UNL     1       2.858  -2.475   0.000  0.00  0.00    +0.241 C 
ATOM      3  O   UNL     1       2.858  -1.650   0.000  0.00  0.00    -0.273 OA
ENDROOT
BRANCH   2   4
ATOM      4  C   UNL     1       3.572  -2.888   0.000  0.00  0.00    +0.079 C 
ATOM      5  C   UNL     1       3.572  -3.712   0.000  0.00  0.00    +0.015 C 
ATOM      6  C   UNL     1       4.287  -4.125   0.000  0.00  0.00    +0.067 C 
ATOM      7  C   UNL     1       5.001  -3.712   0.000  0.00  0.00    +0.264 C 
ATOM      8  F   UNL     1       5.284  -4.488   0.000  0.00  0.00    -0.204 F 
ATOM      9  F   UNL     1       5.814  -3.569   0.000  0.00  0.00    -0.204 F 
ATOM     10  C   UNL     1       5.001  -2.888   0.000  0.00  0.00    +0.067 C 
ATOM     11  C   UNL     1       4.287  -2.475   0.000  0.00  0.00    +0.015 C 
ENDBRANCH   2   4
BRANCH   1  12
ATOM     12  C   UNL     1       1.429  -2.475   0.000  0.00  0.00    +0.121 C 
BRANCH  12  13
ATOM     13  C   UNL     1       0.715  -2.888   0.000  0.00  0.00    +0.069 C 
BRANCH  13  16
ATOM     14  C   UNL     1      -0.925  -3.618   0.000  0.00  0.00    +0.132 C 
ATOM     15  N   UNL     1      -0.754  -2.811   0.000  0.00  0.00    -0.310 N 
ATOM     16  C   UNL     1       0.000  -2.475   0.000  0.00  0.00    +0.059 A 
ATOM     17  C   UNL     1      -0.086  -1.655   0.000  0.00  0.00    +0.113 A 
ATOM     18  N   UNL     1      -0.893  -1.483   0.000  0.00  0.00    -0.223 NA
ATOM     19  C   UNL     1      -1.306  -2.197   0.000  0.00  0.00    +0.178 A 
ENDBRANCH  13  16
ENDBRANCH  12  13
ENDBRANCH   1  12
TORSDOF 4
