REMARK  Name = 
REMARK  2 active torsions:
REMARK  status: ('A' for Active; 'I' for Inactive)
REMARK    1  A    between atoms: C_3  and  C_5
REMARK    2  A    between atoms: C_7  and  C_10
REMARK                            x       y       z     vdW  Elec       q    Type
REMARK                         _______ _______ _______ _____ _____    ______ ____
ROOT
ATOM      1 CL   UNL     1       0.000   0.000   0.000  0.00  0.00    +0.000 Cl
ENDROOT
TORSDOF 0
REMARK  Name = 
REMARK  2 active torsions:
REMARK  status: ('A' for Active; 'I' for Inactive)
REMARK    1  A    between atoms: C_3  and  C_5
REMARK    2  A    between atoms: C_7  and  C_10
REMARK                            x       y       z     vdW  Elec       q    Type
REMARK                         _______ _______ _______ _____ _____    ______ ____
ROOT
ATOM      1  C   UNL     1       3.072   1.131   0.000  0.00  0.00    +0.160 A 
ATOM      2  N   UNL     1       2.404   0.646   0.000  0.00  0.00    -0.144 NA
ATOM      3  N   UNL     1       2.659  -0.138   0.000  0.00  0.00    -0.152 NA
ATOM      4  C   UNL     1       3.484  -0.138   0.000  0.00  0.00    +0.083 A 
ATOM      5  C   UNL     1       3.739   0.646   0.000  0.00  0.00    +0.042 A 
ENDROOT
BRANCH   4   6
ATOM      6  C   UNL     1       3.969  -0.806   0.000  0.00  0.00    +0.060 C 
ATOM      7  C   UNL     1       3.634  -1.560   0.000  0.00  0.00    +0.095 C 
ATOM      8  N   UNL     1       4.118  -2.227   0.000  0.00  0.00    -0.218 NA
ATOM      9  C   UNL     1       4.939  -2.141   0.000  0.00  0.00    +0.089 C 
ATOM     10  C   UNL     1       5.274  -1.387   0.000  0.00  0.00    +0.019 C 
ATOM     11  C   UNL     1       4.790  -0.720   0.000  0.00  0.00    +0.009 C 
ENDBRANCH   4   6
BRANCH   1  13
ATOM     12  N   UNL     1       2.357   2.369   0.000  0.00  0.00    -0.082 NA
ATOM     13  C   UNL     1       3.072   1.956   0.000  0.00  0.00    +0.304 C 
ATOM     14  O   UNL     1       3.786   2.369   0.000  0.00  0.00    -0.265 OA
ENDBRANCH   1  13
TORSDOF 2
