REMARK  Name = 
REMARK  2 active torsions:
REMARK  status: ('A' for Active; 'I' for Inactive)
REMARK    1  A    between atoms: C_2  and  C_4
REMARK    2  A    between atoms: C_6  and  C_11
REMARK                            x       y       z     vdW  Elec       q    Type
REMARK                         _______ _______ _______ _____ _____    ______ ____
ROOT
ATOM      1  C   UNL     1      -2.143   5.941   0.000  0.00  0.00    +0.062 A 
ATOM      2  N   UNL     1      -2.858   5.529   0.000  0.00  0.00    -0.212 NA
ATOM      3  C   UNL     1      -2.858   4.704   0.000  0.00  0.00    +0.279 A 
ATOM      4  O   UNL     1      -3.572   4.291   0.000  0.00  0.00    -0.265 OA
ATOM      5  C   UNL     1      -2.143   4.291   0.000  0.00  0.00    +0.067 A 
ATOM      6  C   UNL     1      -1.429   4.704   0.000  0.00  0.00    +0.062 A 
ATOM      7  C   UNL     1      -1.429   5.529   0.000  0.00  0.00    +0.020 A 
ENDROOT
BRANCH   6   8
ATOM      8  C   UNL     1      -0.715   4.291   0.000  0.00  0.00    +0.271 C 
ATOM      9  N   UNL     1      -0.715   3.466   0.000  0.00  0.00    -0.165 N 
ATOM     10  O   UNL     1      -1.382   2.981   0.000  0.00  0.00    -0.263 OA
ATOM     11  C   UNL     1      -1.127   2.196   0.000  0.00  0.00    +0.173 C 
ATOM     12  C   UNL     1      -0.302   2.196   0.000  0.00  0.00    +0.059 C 
ATOM     13  C   UNL     1      -0.047   2.981   0.000  0.00  0.00    +0.127 C 
ATOM     14  O   UNL     1       0.000   4.704   0.000  0.00  0.00    -0.268 OA
ENDBRANCH   6   8
BRANCH   1  16
ATOM     15  C   UNL     1      -2.858   7.179   0.000  0.00  0.00    +0.006 C 
ATOM     16  C   UNL     1      -2.143   6.766   0.000  0.00  0.00    +0.040 C 
ATOM     17  C   UNL     1      -1.429   7.179   0.000  0.00  0.00    +0.006 C 
ENDBRANCH   1  16
TORSDOF 2
