REMARK  Name = 
REMARK  2 active torsions:
REMARK  status: ('A' for Active; 'I' for Inactive)
REMARK    1  A    between atoms: C_2  and  C_3
REMARK    2  A    between atoms: C_3  and  C_4
REMARK                            x       y       z     vdW  Elec       q    Type
REMARK                         _______ _______ _______ _____ _____    ______ ____
ROOT
ATOM      1  C   UNL     1       1.429  -2.475   0.000  0.00  0.00    +0.077 A 
ATOM      2  N   UNL     1       0.761  -2.960   0.000  0.00  0.00    -0.228 NA
ATOM      3  C   UNL     1       1.016  -3.744   0.000  0.00  0.00    +0.170 A 
ATOM      4  N   UNL     1       0.531  -4.412   0.000  0.00  0.00    -0.220 N 
ATOM      5  C   UNL     1      -0.293  -4.412   0.000  0.00  0.00    +0.329 C 
ATOM      6  O   UNL     1      -0.778  -3.744   0.000  0.00  0.00    -0.250 OA
ATOM      7  N   UNL     1      -0.548  -5.197   0.000  0.00  0.00    -0.186 NA
ATOM      8  C   UNL     1       0.119  -5.681   0.000  0.00  0.00    +0.139 C 
ATOM      9  C   UNL     1       0.786  -5.197   0.000  0.00  0.00    +0.125 C 
ATOM     10  S   UNL     1       1.841  -3.744   0.000  0.00  0.00    -0.051 S 
ATOM     11  C   UNL     1       2.096  -2.960   0.000  0.00  0.00    +0.053 A 
ENDROOT
BRANCH   1  12
ATOM     12  C   UNL     1       1.429  -1.650   0.000  0.00  0.00    +0.131 C 
BRANCH  12  14
ATOM     13  O   UNL     1       0.000  -1.650   0.000  0.00  0.00    -0.274 OA
ATOM     14  C   UNL     1       0.715  -1.238   0.000  0.00  0.00    +0.232 C 
ATOM     15  N   UNL     1       0.715  -0.412   0.000  0.00  0.00    -0.279 N 
ATOM     16  C   UNL     1       1.429   0.000   0.000  0.00  0.00    +0.093 C 
ATOM     17  C   UNL     1       1.429   0.825   0.000  0.00  0.00    +0.022 C 
ATOM     18  C   UNL     1       0.715   1.238   0.000  0.00  0.00    +0.004 C 
ATOM     19  C   UNL     1       0.000   0.825   0.000  0.00  0.00    +0.022 C 
ATOM     20  C   UNL     1       0.000   0.000   0.000  0.00  0.00    +0.093 C 
ENDBRANCH  12  14
ENDBRANCH   1  12
TORSDOF 2
