REMARK  Name = 
REMARK  4 active torsions:
REMARK  status: ('A' for Active; 'I' for Inactive)
REMARK    1  A    between atoms: N_2  and  C_9
REMARK    2  A    between atoms: C_4  and  N_6
REMARK    3  A    between atoms: C_13  and  C_22
REMARK    4  A    between atoms: C_13  and  C_23
REMARK                            x       y       z     vdW  Elec       q    Type
REMARK                         _______ _______ _______ _____ _____    ______ ____
ROOT
ATOM      1  C   UNL     1       2.783  -1.521   0.000  0.00  0.00    +0.149 A 
ATOM      2  N   UNL     1       1.996  -1.267   0.000  0.00  0.00    -0.219 NA
ATOM      3  C   UNL     1       1.512  -1.933   0.000  0.00  0.00    +0.180 A 
ATOM      4  N   UNL     1       1.996  -2.600   0.000  0.00  0.00    -0.296 N 
ATOM      5  C   UNL     1       3.496  -1.108   0.000  0.00  0.00    +0.154 A 
ATOM      6  N   UNL     1       4.213  -1.521   0.000  0.00  0.00    -0.207 NA
ATOM      7  C   UNL     1       4.213  -2.346   0.000  0.00  0.00    +0.201 A 
ATOM      8  N   UNL     1       3.496  -2.758   0.000  0.00  0.00    -0.205 NA
ATOM      9  C   UNL     1       2.783  -2.346   0.000  0.00  0.00    +0.167 A 
ENDROOT
BRANCH   5  10
ATOM     10  N   UNL     1       3.496  -0.283   0.000  0.00  0.00    -0.293 N 
ATOM     11  C   UNL     1       4.213   0.129   0.000  0.00  0.00    +0.092 C 
ATOM     12  C   UNL     1       4.213   0.954   0.000  0.00  0.00    +0.022 C 
ATOM     13  C   UNL     1       3.496   1.367   0.000  0.00  0.00    +0.005 C 
ATOM     14  C   UNL     1       2.783   0.954   0.000  0.00  0.00    +0.034 C 
ATOM     15  C   UNL     1       2.067   1.367   0.000  0.00  0.00    +0.074 C 
ATOM     16  N   UNL     1       1.354   0.954   0.000  0.00  0.00    -0.271 NA
ATOM     17  C   UNL     1       1.354   0.129   0.000  0.00  0.00    +0.074 C 
ATOM     18  C   UNL     1       2.067  -0.283   0.000  0.00  0.00    +0.037 C 
ATOM     19  C   UNL     1       0.637   1.367   0.000  0.00  0.00    +0.090 C 
ATOM     20  C   UNL     1       2.783   0.129   0.000  0.00  0.00    +0.077 C 
ENDBRANCH   5  10
BRANCH   4  21
ATOM     21  C   UNL     1       1.742  -3.388   0.000  0.00  0.00    +0.089 C 
ATOM     22  C   UNL     1       1.008  -3.758   0.000  0.00  0.00    +0.028 C 
ATOM     23  C   UNL     1       1.383  -4.496   0.000  0.00  0.00    +0.065 C 
ATOM     24  C   UNL     1       2.117  -4.121   0.000  0.00  0.00    +0.028 C 
BRANCH  23  25
ATOM     25  C   UNL     1       0.646  -4.871   0.000  0.00  0.00    +0.185 C 
ATOM     26  O   UNL     1      -0.046  -4.421   0.000  0.00  0.00    -0.220 OA
ENDBRANCH  23  25
BRANCH  23  27
ATOM     27  C   UNL     1       1.758  -5.229   0.000  0.00  0.00    +0.185 C 
ATOM     28  O   UNL     1       2.579  -5.275   0.000  0.00  0.00    -0.220 OA
ENDBRANCH  23  27
ENDBRANCH   4  21
TORSDOF 4
