REMARK  Name = 
REMARK  2 active torsions:
REMARK  status: ('A' for Active; 'I' for Inactive)
REMARK    1  A    between atoms: N_10  and  C_11
REMARK    2  A    between atoms: C_11  and  C_12
REMARK                            x       y       z     vdW  Elec       q    Type
REMARK                         _______ _______ _______ _____ _____    ______ ____
ROOT
ATOM      1  C   UNL     1       4.067   2.348   0.000  0.00  0.00    +0.138 C 
ATOM      2  N   UNL     1       3.352   1.935   0.000  0.00  0.00    -0.245 N 
ATOM      3  C   UNL     1       2.638   2.348   0.000  0.00  0.00    +0.283 A 
ATOM      4  O   UNL     1       2.638   3.173   0.000  0.00  0.00    -0.265 OA
ATOM      5  C   UNL     1       1.923   1.935   0.000  0.00  0.00    +0.153 A 
ATOM      6  C   UNL     1       1.923   1.110   0.000  0.00  0.00    +0.170 A 
ATOM      7  N   UNL     1       1.139   0.856   0.000  0.00  0.00    -0.206 NA
ATOM      8  C   UNL     1       0.654   1.523   0.000  0.00  0.00    +0.180 A 
ATOM      9  N   UNL     1       2.638   0.698   0.000  0.00  0.00    -0.263 N 
ATOM     10  C   UNL     1       2.638  -0.127   0.000  0.00  0.00    +0.137 C 
ATOM     11  N   UNL     1       1.139   2.190   0.000  0.00  0.00    -0.301 N 
ATOM     12  C   UNL     1       3.352   1.110   0.000  0.00  0.00    +0.335 A 
ATOM     13  O   UNL     1       4.067   0.698   0.000  0.00  0.00    -0.246 OA
ENDROOT
BRANCH  11  14
ATOM     14  C   UNL     1       0.884   2.975   0.000  0.00  0.00    +0.143 C 
BRANCH  14  15
ATOM     15  C   UNL     1       1.436   3.588   0.000  0.00  0.00    +0.206 C 
ATOM     16  O   UNL     1       1.181   4.373   0.000  0.00  0.00    -0.218 OA
ENDBRANCH  14  15
ENDBRANCH  11  14
TORSDOF 2
