REMARK  Name = 
REMARK  5 active torsions:
REMARK  status: ('A' for Active; 'I' for Inactive)
REMARK    1  A    between atoms: S_2  and  C_3
REMARK    2  A    between atoms: C_8  and  N_9
REMARK    3  A    between atoms: N_12  and  C_13
REMARK    4  A    between atoms: C_13  and  C_14
REMARK    5  A    between atoms: C_14  and  C_15
REMARK                            x       y       z     vdW  Elec       q    Type
REMARK                         _______ _______ _______ _____ _____    ______ ____
ROOT
ATOM      1  N   UNL     1       2.143  -0.412   0.000  0.00  0.00    -0.188 NA
ATOM      2  C   UNL     1       2.858  -0.825   0.000  0.00  0.00    +0.339 C 
ATOM      3  N   UNL     1       3.572  -0.412   0.000  0.00  0.00    -0.187 NA
ATOM      4  O   UNL     1       2.858  -1.650   0.000  0.00  0.00    -0.249 OA
ENDROOT
BRANCH   1   6
ATOM      5  C   UNL     1       1.429  -1.650   0.000  0.00  0.00    +0.068 C 
ATOM      6  C   UNL     1       1.429  -0.825   0.000  0.00  0.00    +0.107 C 
ATOM      7  C   UNL     1       0.715  -0.412   0.000  0.00  0.00    +0.023 C 
ATOM      8  C   UNL     1       0.000  -0.825   0.000  0.00  0.00    +0.002 C 
ATOM      9  C   UNL     1       0.000  -1.650   0.000  0.00  0.00    +0.001 C 
ATOM     10  C   UNL     1       0.715  -2.062   0.000  0.00  0.00    +0.013 C 
BRANCH   5  12
ATOM     11  C   UNL     1       2.143  -2.888   0.000  0.00  0.00    +0.069 C 
ATOM     12  S   UNL     1       2.143  -2.062   0.000  0.00  0.00    -0.138 S 
ENDBRANCH   5  12
ENDBRANCH   1   6
BRANCH   3  13
ATOM     13  C   UNL     1       4.287  -0.825   0.000  0.00  0.00    +0.127 C 
BRANCH  13  14
ATOM     14  C   UNL     1       5.001  -0.412   0.000  0.00  0.00    +0.111 C 
BRANCH  14  15
ATOM     15  C   UNL     1       5.716  -0.825   0.000  0.00  0.00    +0.238 A 
ATOM     16  O   UNL     1       5.802  -1.645   0.000  0.00  0.00    -0.337 OA
ATOM     17  N   UNL     1       6.609  -1.817   0.000  0.00  0.00    -0.061 NA
ATOM     18  C   UNL     1       7.021  -1.103   0.000  0.00  0.00    +0.181 A 
ATOM     19  C   UNL     1       7.842  -1.016   0.000  0.00  0.00    +0.077 C 
ATOM     20  N   UNL     1       6.469  -0.489   0.000  0.00  0.00    -0.195 NA
ENDBRANCH  14  15
ENDBRANCH  13  14
ENDBRANCH   3  13
TORSDOF 5
