REMARK  Name = 
REMARK  1 active torsions:
REMARK  status: ('A' for Active; 'I' for Inactive)
REMARK    1  A    between atoms: N_9  and  C_10
REMARK                            x       y       z     vdW  Elec       q    Type
REMARK                         _______ _______ _______ _____ _____    ______ ____
ROOT
ATOM      1  F   UNL     1      -1.265   5.492   0.000  0.00  0.00    -0.203 F 
ATOM      2  C   UNL     1      -1.265   4.667   0.000  0.00  0.00    +0.159 A 
ATOM      3  C   UNL     1      -1.980   4.254   0.000  0.00  0.00    +0.130 A 
ATOM      4  N   UNL     1      -1.980   3.429   0.000  0.00  0.00    -0.225 NA
ATOM      5  C   UNL     1      -1.265   3.017   0.000  0.00  0.00    +0.156 A 
ATOM      6  N   UNL     1      -1.265   2.192   0.000  0.00  0.00    -0.142 NA
ATOM      7  C   UNL     1      -0.551   1.779   0.000  0.00  0.00    +0.345 C 
ATOM      8  N   UNL     1      -0.551   0.954   0.000  0.00  0.00    -0.186 NA
ATOM      9  O   UNL     1       0.164   2.192   0.000  0.00  0.00    -0.249 OA
ATOM     10  C   UNL     1      -0.551   3.429   0.000  0.00  0.00    +0.039 A 
ATOM     11  C   UNL     1      -0.551   4.254   0.000  0.00  0.00    +0.034 A 
ENDROOT
BRANCH   8  12
ATOM     12  C   UNL     1       0.164   0.542   0.000  0.00  0.00    +0.126 C 
ATOM     13  C   UNL     1       0.878   0.954   0.000  0.00  0.00    +0.135 C 
ATOM     14  O   UNL     1       0.672   0.129   0.000  0.00  0.00    -0.357 OA
ATOM     15  C   UNL     1       0.878  -0.696   0.000  0.00  0.00    +0.117 C 
ATOM     16  C   UNL     1       1.593  -0.283   0.000  0.00  0.00    +0.032 C 
ATOM     17  C   UNL     1       1.593   0.542   0.000  0.00  0.00    +0.034 C 
ATOM     18  C   UNL     1       0.164  -0.283   0.000  0.00  0.00    +0.054 C 
ENDBRANCH   8  12
TORSDOF 1
