REMARK  Name = 
REMARK  5 active torsions:
REMARK  status: ('A' for Active; 'I' for Inactive)
REMARK    1  A    between atoms: C_2  and  C_5
REMARK    2  A    between atoms: N_7  and  C_8
REMARK    3  A    between atoms: C_8  and  C_9
REMARK    4  A    between atoms: N_11  and  C_12
REMARK    5  A    between atoms: C_12  and  C_13
REMARK                            x       y       z     vdW  Elec       q    Type
REMARK                         _______ _______ _______ _____ _____    ______ ____
ROOT
ATOM      1  C   UNL     1       2.858  -4.950   0.000  0.00  0.00    +0.143 C 
ENDROOT
BRANCH   1   2
ATOM      2  C   UNL     1       3.572  -5.362   0.000  0.00  0.00    +0.019 A 
ATOM      3  C   UNL     1       3.572  -6.188   0.000  0.00  0.00    +0.098 A 
ATOM      4  N   UNL     1       4.287  -6.600   0.000  0.00  0.00    -0.229 NA
ATOM      5  C   UNL     1       5.001  -6.188   0.000  0.00  0.00    +0.132 A 
ATOM      6  N   UNL     1       5.716  -6.600   0.000  0.00  0.00    -0.288 N 
ATOM      7  C   UNL     1       5.716  -7.425   0.000  0.00  0.00    +0.124 C 
ATOM      8  C   UNL     1       6.430  -7.838   0.000  0.00  0.00    +0.164 C 
ATOM      9  O   UNL     1       7.145  -7.425   0.000  0.00  0.00    -0.350 OA
ATOM     10  C   UNL     1       7.145  -6.600   0.000  0.00  0.00    +0.164 C 
ATOM     11  C   UNL     1       6.430  -6.188   0.000  0.00  0.00    +0.124 C 
ATOM     12  C   UNL     1       5.001  -5.362   0.000  0.00  0.00    +0.034 A 
ATOM     13  C   UNL     1       4.287  -4.950   0.000  0.00  0.00    +0.002 A 
ENDBRANCH   1   2
BRANCH   1  15
ATOM     14  C   UNL     1       1.429  -4.950   0.000  0.00  0.00    +0.264 C 
ATOM     15  N   UNL     1       2.143  -5.362   0.000  0.00  0.00    -0.199 NA
ATOM     16  O   UNL     1       1.429  -4.125   0.000  0.00  0.00    -0.271 OA
BRANCH  14  17
ATOM     17  C   UNL     1       0.715  -5.362   0.000  0.00  0.00    +0.201 C 
BRANCH  17  19
ATOM     18  C   UNL     1      -0.715  -5.362   0.000  0.00  0.00    +0.241 C 
ATOM     19  N   UNL     1       0.000  -4.950   0.000  0.00  0.00    -0.195 NA
ATOM     20  O   UNL     1      -0.715  -6.188   0.000  0.00  0.00    -0.273 OA
BRANCH  18  22
ATOM     21  C   UNL     1      -2.143  -4.537   0.000  0.00  0.00    +0.009 C 
ATOM     22  C   UNL     1      -1.429  -4.950   0.000  0.00  0.00    +0.071 C 
ATOM     23  C   UNL     1      -1.016  -4.236   0.000  0.00  0.00    +0.009 C 
ATOM     24  C   UNL     1      -1.841  -5.665   0.000  0.00  0.00    +0.009 C 
ENDBRANCH  18  22
ENDBRANCH  17  19
ENDBRANCH  14  17
ENDBRANCH   1  15
TORSDOF 5
