REMARK  Name = 
REMARK  4 active torsions:
REMARK  status: ('A' for Active; 'I' for Inactive)
REMARK    1  A    between atoms: C_2  and  C_3
REMARK    2  A    between atoms: N_11  and  C_12
REMARK    3  A    between atoms: C_12  and  C_13
REMARK    4  A    between atoms: C_13  and  C_14
REMARK                            x       y       z     vdW  Elec       q    Type
REMARK                         _______ _______ _______ _____ _____    ______ ____
ROOT
ATOM      1  C   UNL     1      -3.572   2.062   0.000  0.00  0.00    +0.135 C 
ATOM      2  O   UNL     1      -3.572   1.238   0.000  0.00  0.00    -0.353 OA
ATOM      3  C   UNL     1      -2.858   0.825   0.000  0.00  0.00    +0.164 C 
ATOM      4  C   UNL     1      -2.143   1.238   0.000  0.00  0.00    +0.127 C 
ATOM      5  N   UNL     1      -2.143   2.062   0.000  0.00  0.00    -0.258 N 
ATOM      6  C   UNL     1      -1.429   2.475   0.000  0.00  0.00    +0.323 C 
ATOM      7  N   UNL     1      -0.715   2.062   0.000  0.00  0.00    -0.188 NA
ATOM      8  O   UNL     1      -1.429   3.300   0.000  0.00  0.00    -0.251 OA
ATOM      9  C   UNL     1      -2.858   2.475   0.000  0.00  0.00    +0.124 C 
ENDROOT
BRANCH   1  11
ATOM     10  C   UNL     1      -5.001   2.062   0.000  0.00  0.00    +0.003 C 
ATOM     11  C   UNL     1      -4.287   2.475   0.000  0.00  0.00    +0.031 C 
ENDBRANCH   1  11
BRANCH   7  12
ATOM     12  C   UNL     1       0.000   2.475   0.000  0.00  0.00    +0.123 C 
BRANCH  12  13
ATOM     13  C   UNL     1       0.715   2.062   0.000  0.00  0.00    +0.070 C 
BRANCH  13  14
ATOM     14  C   UNL     1       1.429   2.475   0.000  0.00  0.00    +0.067 A 
ATOM     15  N   UNL     1       2.183   2.139   0.000  0.00  0.00    -0.247 NA
ATOM     16  C   UNL     1       2.735   2.752   0.000  0.00  0.00    +0.088 A 
ATOM     17  C   UNL     1       3.555   2.666   0.000  0.00  0.00    +0.059 C 
ATOM     18  S   UNL     1       2.322   3.467   0.000  0.00  0.00    -0.071 S 
ATOM     19  C   UNL     1       1.515   3.296   0.000  0.00  0.00    +0.051 A 
ENDBRANCH  13  14
ENDBRANCH  12  13
ENDBRANCH   7  12
TORSDOF 4
