REMARK  Name = 
REMARK  10 active torsions:
REMARK  status: ('A' for Active; 'I' for Inactive)
REMARK    1  A    between atoms: N_2  and  C_10
REMARK    2  A    between atoms: C_5  and  N_7
REMARK    3  A    between atoms: N_7  and  C_14
REMARK    4  A    between atoms: N_7  and  C_15
REMARK    5  A    between atoms: C_10  and  C_11
REMARK    6  A    between atoms: C_11  and  C_16
REMARK    7  A    between atoms: C_15  and  C_26
REMARK    8  A    between atoms: O_21  and  C_26
REMARK    9  A    between atoms: O_21  and  C_28
REMARK   10  A    between atoms: C_27  and  C_28
REMARK                            x       y       z     vdW  Elec       q    Type
REMARK                         _______ _______ _______ _____ _____    ______ ____
ROOT
ATOM      1  C   UNL     1       0.346  -2.898   0.000  0.00  0.00    +0.149 A 
ATOM      2  C   UNL     1       1.159  -3.052   0.000  0.00  0.00    +0.154 A 
ATOM      3  N   UNL     1       1.426  -3.832   0.000  0.00  0.00    -0.207 NA
ATOM      4  C   UNL     1       0.888  -4.457   0.000  0.00  0.00    +0.201 A 
ATOM      5  N   UNL     1       0.075  -4.303   0.000  0.00  0.00    -0.205 NA
ATOM      6  N   UNL     1      -0.079  -2.189   0.000  0.00  0.00    -0.219 NA
ATOM      7  C   UNL     1      -0.884  -2.377   0.000  0.00  0.00    +0.180 A 
ATOM      8  N   UNL     1      -0.955  -3.202   0.000  0.00  0.00    -0.294 N 
ATOM      9  C   UNL     1      -0.192  -3.523   0.000  0.00  0.00    +0.167 A 
ENDROOT
BRANCH   8  10
ATOM     10  C   UNL     1      -1.659  -3.627   0.000  0.00  0.00    +0.112 C 
BRANCH  10  11
ATOM     11  C   UNL     1      -2.385  -3.227   0.000  0.00  0.00    +0.056 C 
ATOM     12  C   UNL     1      -2.652  -4.007   0.000  0.00  0.00    +0.037 C 
ATOM     13  C   UNL     1      -3.461  -4.169   0.000  0.00  0.00    +0.142 C 
ATOM     14  O   UNL     1      -4.003  -3.544   0.000  0.00  0.00    -0.354 OA
ATOM     15  C   UNL     1      -3.736  -2.764   0.000  0.00  0.00    +0.142 C 
ATOM     16  C   UNL     1      -2.927  -2.606   0.000  0.00  0.00    +0.037 C 
BRANCH  11  17
ATOM     17  C   UNL     1      -1.864  -2.585   0.000  0.00  0.00    +0.184 C 
ATOM     18  O   UNL     1      -2.164  -1.814   0.000  0.00  0.00    -0.220 OA
ENDBRANCH  11  17
ENDBRANCH  10  11
ENDBRANCH   8  10
BRANCH   2  19
ATOM     19  N   UNL     1       1.697  -2.431   0.000  0.00  0.00    -0.291 N 
BRANCH  19  20
ATOM     20  C   UNL     1       1.426  -1.651   0.000  0.00  0.00    +0.074 C 
ATOM     21  C   UNL     1       1.968  -1.026   0.000  0.00  0.00    +0.021 C 
ATOM     22  C   UNL     1       0.617  -1.493   0.000  0.00  0.00    +0.021 C 
ENDBRANCH  19  20
BRANCH  19  23
ATOM     23  C   UNL     1       2.510  -2.585   0.000  0.00  0.00    +0.124 C 
BRANCH  23  24
ATOM     24  C   UNL     1       3.048  -1.960   0.000  0.00  0.00    +0.164 C 
BRANCH  24  25
ATOM     25  O   UNL     1       3.861  -2.118   0.000  0.00  0.00    -0.349 OA
BRANCH  25  26
ATOM     26  C   UNL     1       4.399  -1.493   0.000  0.00  0.00    +0.178 C 
BRANCH  26  27
ATOM     27  C   UNL     1       5.212  -1.651   0.000  0.00  0.00    +0.214 C 
ATOM     28  O   UNL     1       5.750  -1.026   0.000  0.00  0.00    -0.218 OA
ENDBRANCH  26  27
ENDBRANCH  25  26
ENDBRANCH  24  25
ENDBRANCH  23  24
ENDBRANCH  19  23
ENDBRANCH   2  19
TORSDOF 10
