REMARK  Name = 
REMARK  5 active torsions:
REMARK  status: ('A' for Active; 'I' for Inactive)
REMARK    1  A    between atoms: N_5  and  C_6
REMARK    2  A    between atoms: C_6  and  C_7
REMARK    3  A    between atoms: C_7  and  C_9
REMARK    4  A    between atoms: C_9  and  N_10
REMARK    5  A    between atoms: C_11  and  C_12
REMARK                            x       y       z     vdW  Elec       q    Type
REMARK                         _______ _______ _______ _____ _____    ______ ____
ROOT
ATOM      1  C   UNL     1       0.884  -2.150   0.000  0.00  0.00    +0.141 C 
ENDROOT
BRANCH   1   2
ATOM      2  N   UNL     1       1.139  -1.365   0.000  0.00  0.00    -0.310 N 
ATOM      3  C   UNL     1       1.923  -1.110   0.000  0.00  0.00    +0.079 A 
ATOM      4  C   UNL     1       1.923  -0.285   0.000  0.00  0.00    +0.098 A 
ATOM      5  C   UNL     1       2.638   0.127   0.000  0.00  0.00    +0.021 A 
ATOM      6  C   UNL     1       3.352  -0.285   0.000  0.00  0.00    +0.002 A 
ATOM      7  C   UNL     1       3.352  -1.110   0.000  0.00  0.00    +0.002 A 
ATOM      8  N   UNL     1       1.139  -0.030   0.000  0.00  0.00    -0.228 NA
ATOM      9  C   UNL     1       2.638  -1.523   0.000  0.00  0.00    +0.019 A 
ATOM     10  C   UNL     1       0.654  -0.698   0.000  0.00  0.00    +0.154 A 
BRANCH  10  11
ATOM     11  C   UNL     1      -0.171  -0.698   0.000  0.00  0.00    +0.245 C 
ATOM     12  O   UNL     1      -0.584   0.017   0.000  0.00  0.00    -0.212 OA
ENDBRANCH  10  11
ENDBRANCH   1   2
BRANCH   1  13
ATOM     13  C   UNL     1       0.077  -2.321   0.000  0.00  0.00    +0.190 C 
ATOM     14  O   UNL     1      -0.475  -1.708   0.000  0.00  0.00    -0.220 OA
BRANCH  13  15
ATOM     15  C   UNL     1      -0.178  -3.106   0.000  0.00  0.00    +0.107 C 
BRANCH  15  20
ATOM     16  C   UNL     1      -3.406  -3.792   0.000  0.00  0.00    +0.000 C 
ATOM     17  C   UNL     1      -2.599  -3.621   0.000  0.00  0.00    +0.003 C 
ATOM     18  C   UNL     1      -2.047  -4.234   0.000  0.00  0.00    +0.017 C 
ATOM     19  C   UNL     1      -1.240  -4.062   0.000  0.00  0.00    +0.072 C 
ATOM     20  N   UNL     1      -0.985  -3.278   0.000  0.00  0.00    -0.271 NA
ATOM     21  C   UNL     1      -1.537  -2.665   0.000  0.00  0.00    +0.072 C 
ATOM     22  C   UNL     1      -2.344  -2.836   0.000  0.00  0.00    +0.017 C 
ENDBRANCH  15  20
ENDBRANCH  13  15
ENDBRANCH   1  13
TORSDOF 5
