REMARK  Name = 
REMARK  5 active torsions:
REMARK  status: ('A' for Active; 'I' for Inactive)
REMARK    1  A    between atoms: C_5  and  C_6
REMARK    2  A    between atoms: C_6  and  C_7
REMARK    3  A    between atoms: C_7  and  N_8
REMARK    4  A    between atoms: N_11  and  C_12
REMARK    5  A    between atoms: C_16  and  C_18
REMARK                            x       y       z     vdW  Elec       q    Type
REMARK                         _______ _______ _______ _____ _____    ______ ____
ROOT
ATOM      1  N   UNL     1       0.715  -3.712   0.000  0.00  0.00    -0.187 NA
ATOM      2  C   UNL     1       1.429  -3.300   0.000  0.00  0.00    +0.339 C 
ATOM      3  N   UNL     1       2.143  -3.712   0.000  0.00  0.00    -0.189 NA
ATOM      4  O   UNL     1       1.429  -2.475   0.000  0.00  0.00    -0.249 OA
ENDROOT
BRANCH   3   5
ATOM      5  C   UNL     1       2.858  -3.300   0.000  0.00  0.00    +0.097 C 
ATOM      6  C   UNL     1       3.572  -3.712   0.000  0.00  0.00    +0.030 C 
ATOM      7  C   UNL     1       4.287  -3.300   0.000  0.00  0.00    +0.097 C 
ATOM      8  C   UNL     1       4.287  -2.475   0.000  0.00  0.00    +0.009 C 
ATOM      9  C   UNL     1       3.572  -2.062   0.000  0.00  0.00    +0.002 C 
ATOM     10  C   UNL     1       2.858  -2.475   0.000  0.00  0.00    +0.022 C 
BRANCH   7  11
ATOM     11  C   UNL     1       5.001  -3.712   0.000  0.00  0.00    +0.398 C 
ATOM     12  F   UNL     1       5.414  -2.998   0.000  0.00  0.00    -0.170 F 
ATOM     13  F   UNL     1       4.589  -4.427   0.000  0.00  0.00    -0.170 F 
ATOM     14  F   UNL     1       5.716  -4.125   0.000  0.00  0.00    -0.170 F 
ENDBRANCH   7  11
ENDBRANCH   3   5
BRANCH   1  15
ATOM     15  C   UNL     1       0.000  -3.300   0.000  0.00  0.00    +0.122 C 
BRANCH  15  16
ATOM     16  C   UNL     1      -0.715  -3.712   0.000  0.00  0.00    +0.051 C 
BRANCH  16  21
ATOM     17  C   UNL     1      -3.572  -2.062   0.000  0.00  0.00    +0.052 C 
ATOM     18  C   UNL     1      -2.858  -2.475   0.000  0.00  0.00    +0.059 A 
ATOM     19  N   UNL     1      -2.858  -3.300   0.000  0.00  0.00    -0.248 NA
ATOM     20  C   UNL     1      -2.143  -3.712   0.000  0.00  0.00    +0.094 A 
ATOM     21  C   UNL     1      -1.429  -3.300   0.000  0.00  0.00    -0.001 A 
ATOM     22  C   UNL     1      -1.429  -2.475   0.000  0.00  0.00    -0.001 A 
ATOM     23  C   UNL     1      -2.143  -2.062   0.000  0.00  0.00    +0.014 A 
ENDBRANCH  16  21
ENDBRANCH  15  16
ENDBRANCH   1  15
TORSDOF 5
