REMARK  Name = 
REMARK  6 active torsions:
REMARK  status: ('A' for Active; 'I' for Inactive)
REMARK    1  A    between atoms: C_2  and  C_3
REMARK    2  A    between atoms: C_3  and  C_4
REMARK    3  A    between atoms: C_9  and  C_12
REMARK    4  A    between atoms: N_14  and  C_15
REMARK    5  A    between atoms: C_15  and  C_16
REMARK    6  A    between atoms: C_16  and  N_17
REMARK                            x       y       z     vdW  Elec       q    Type
REMARK                         _______ _______ _______ _____ _____    ______ ____
ROOT
ATOM      1  C   UNL     1      -3.572   3.712   0.000  0.00  0.00    +0.226 C 
ATOM      2  N   UNL     1      -2.858   3.300   0.000  0.00  0.00    -0.280 N 
ATOM      3  C   UNL     1      -2.858   2.475   0.000  0.00  0.00    +0.094 C 
ATOM      4  C   UNL     1      -2.143   2.062   0.000  0.00  0.00    +0.031 C 
ATOM      5  C   UNL     1      -1.429   2.475   0.000  0.00  0.00    +0.082 C 
ATOM      6  C   UNL     1      -1.429   3.300   0.000  0.00  0.00    +0.031 C 
ATOM      7  C   UNL     1      -2.143   3.712   0.000  0.00  0.00    +0.094 C 
ATOM      8  O   UNL     1      -3.572   4.537   0.000  0.00  0.00    -0.275 OA
ENDROOT
BRANCH   5   9
ATOM      9  C   UNL     1      -0.715   2.062   0.000  0.00  0.00    +0.241 C 
ATOM     10  N   UNL     1       0.000   2.475   0.000  0.00  0.00    -0.203 NA
ATOM     11  O   UNL     1      -0.715   1.238   0.000  0.00  0.00    -0.273 OA
BRANCH  10  12
ATOM     12  C   UNL     1       0.715   2.062   0.000  0.00  0.00    +0.140 C 
BRANCH  12  13
ATOM     13  C   UNL     1       1.429   2.475   0.000  0.00  0.00    +0.131 C 
BRANCH  13  14
ATOM     14  N   UNL     1       2.143   2.062   0.000  0.00  0.00    -0.306 N 
ATOM     15  C   UNL     1       2.230   1.242   0.000  0.00  0.00    +0.179 A 
ATOM     16  N   UNL     1       3.037   1.071   0.000  0.00  0.00    -0.222 NA
ATOM     17  C   UNL     1       3.449   1.785   0.000  0.00  0.00    +0.119 A 
ATOM     18  C   UNL     1       2.897   2.398   0.000  0.00  0.00    +0.098 A 
ENDBRANCH  13  14
ENDBRANCH  12  13
ENDBRANCH  10  12
ENDBRANCH   5   9
BRANCH   1  19
ATOM     19  C   UNL     1      -4.287   3.300   0.000  0.00  0.00    +0.085 C 
BRANCH  19  21
ATOM     20  C   UNL     1      -5.716   3.300   0.000  0.00  0.00    +0.001 C 
ATOM     21  C   UNL     1      -5.001   3.712   0.000  0.00  0.00    +0.010 C 
ENDBRANCH  19  21
ENDBRANCH   1  19
TORSDOF 6
