REMARK  Name = 
REMARK  3 active torsions:
REMARK  status: ('A' for Active; 'I' for Inactive)
REMARK    1  A    between atoms: C_2  and  N_3
REMARK    2  A    between atoms: C_5  and  N_6
REMARK    3  A    between atoms: N_9  and  C_10
REMARK                            x       y       z     vdW  Elec       q    Type
REMARK                         _______ _______ _______ _____ _____    ______ ____
ROOT
ATOM      1  N   UNL     1       0.618  -4.807   0.000  0.00  0.00    -0.158 NA
ATOM      2  C   UNL     1       1.439  -4.721   0.000  0.00  0.00    +0.344 C 
ATOM      3  N   UNL     1       1.924  -5.388   0.000  0.00  0.00    -0.187 NA
ATOM      4  O   UNL     1       1.774  -3.967   0.000  0.00  0.00    -0.249 OA
ENDROOT
BRANCH   3   5
ATOM      5  C   UNL     1       2.744  -5.302   0.000  0.00  0.00    +0.122 C 
ATOM      6  C   UNL     1       3.296  -5.915   0.000  0.00  0.00    +0.172 C 
ATOM      7  S   UNL     1       4.050  -5.580   0.000  0.00  0.00    -0.008 S 
ATOM      8  O   UNL     1       4.305  -6.364   0.000  0.00  0.00    -0.173 OA
ATOM      9  O   UNL     1       4.857  -5.408   0.000  0.00  0.00    -0.173 OA
ATOM     10  C   UNL     1       3.964  -4.759   0.000  0.00  0.00    +0.153 C 
ATOM     11  C   UNL     1       3.157  -4.588   0.000  0.00  0.00    +0.049 C 
ENDBRANCH   3   5
BRANCH   1  15
ATOM     12  N   UNL     1      -0.279  -2.870   0.000  0.00  0.00    -0.248 N 
ATOM     13  N   UNL     1      -0.947  -3.355   0.000  0.00  0.00    -0.166 NA
ATOM     14  C   UNL     1      -0.692  -4.140   0.000  0.00  0.00    +0.138 A 
ATOM     15  C   UNL     1       0.133  -4.140   0.000  0.00  0.00    +0.114 A 
ATOM     16  C   UNL     1       0.388  -3.355   0.000  0.00  0.00    +0.113 A 
BRANCH  12  18
ATOM     17  C   UNL     1      -0.994  -1.633   0.000  0.00  0.00    +0.028 C 
ATOM     18  C   UNL     1      -0.279  -2.045   0.000  0.00  0.00    +0.128 C 
ENDBRANCH  12  18
ENDBRANCH   1  15
TORSDOF 3
