REMARK  Name = 
REMARK  4 active torsions:
REMARK  status: ('A' for Active; 'I' for Inactive)
REMARK    1  A    between atoms: C_4  and  C_9
REMARK    2  A    between atoms: N_11  and  C_12
REMARK    3  A    between atoms: C_12  and  C_13
REMARK    4  A    between atoms: C_13  and  C_14
REMARK                            x       y       z     vdW  Elec       q    Type
REMARK                         _______ _______ _______ _____ _____    ______ ____
ROOT
ATOM      1  C   UNL     1      -1.429   2.475   0.000  0.00  0.00    +0.280 C 
ATOM      2  N   UNL     1      -0.715   2.062   0.000  0.00  0.00    -0.200 NA
ATOM      3  O   UNL     1      -1.429   3.300   0.000  0.00  0.00    -0.267 OA
ENDROOT
BRANCH   1  10
ATOM      4  C   UNL     1      -4.287   2.475   0.000  0.00  0.00    +0.143 C 
ATOM      5  N   UNL     1      -3.572   2.062   0.000  0.00  0.00    -0.179 N 
ATOM      6  C   UNL     1      -3.572   1.238   0.000  0.00  0.00    +0.245 C 
ATOM      7  O   UNL     1      -4.287   0.825   0.000  0.00  0.00    -0.273 OA
ATOM      8  C   UNL     1      -2.858   0.825   0.000  0.00  0.00    +0.094 C 
ATOM      9  C   UNL     1      -2.143   1.238   0.000  0.00  0.00    +0.062 C 
ATOM     10  C   UNL     1      -2.143   2.062   0.000  0.00  0.00    +0.132 C 
ATOM     11  N   UNL     1      -2.858   2.475   0.000  0.00  0.00    -0.175 NA
ENDBRANCH   1  10
BRANCH   2  12
ATOM     12  C   UNL     1       0.000   2.475   0.000  0.00  0.00    +0.122 C 
BRANCH  12  13
ATOM     13  C   UNL     1       0.715   2.062   0.000  0.00  0.00    +0.070 C 
BRANCH  13  14
ATOM     14  C   UNL     1       1.429   2.475   0.000  0.00  0.00    +0.067 A 
ATOM     15  N   UNL     1       2.183   2.139   0.000  0.00  0.00    -0.247 NA
ATOM     16  C   UNL     1       2.735   2.752   0.000  0.00  0.00    +0.088 A 
ATOM     17  C   UNL     1       3.555   2.666   0.000  0.00  0.00    +0.059 C 
ATOM     18  S   UNL     1       2.322   3.467   0.000  0.00  0.00    -0.071 S 
ATOM     19  C   UNL     1       1.515   3.296   0.000  0.00  0.00    +0.051 A 
ENDBRANCH  13  14
ENDBRANCH  12  13
ENDBRANCH   2  12
TORSDOF 4
