REMARK  Name = 
REMARK  4 active torsions:
REMARK  status: ('A' for Active; 'I' for Inactive)
REMARK    1  A    between atoms: C_3  and  C_5
REMARK    2  A    between atoms: C_5  and  C_6
REMARK    3  A    between atoms: C_9  and  C_10
REMARK    4  A    between atoms: C_10  and  C_11
REMARK                            x       y       z     vdW  Elec       q    Type
REMARK                         _______ _______ _______ _____ _____    ______ ____
ROOT
ATOM      1  C   UNL     1       0.397   4.256   0.000  0.00  0.00    +0.190 A 
ATOM      2  N   UNL     1       0.949   3.643   0.000  0.00  0.00    -0.194 NA
ATOM      3  C   UNL     1       1.703   3.978   0.000  0.00  0.00    +0.236 A 
ATOM      4  O   UNL     1       1.616   4.799   0.000  0.00  0.00    -0.337 OA
ATOM      5  N   UNL     1       0.809   4.970   0.000  0.00  0.00    -0.060 NA
ENDROOT
BRANCH   1   6
ATOM      6  C   UNL     1      -0.423   4.170   0.000  0.00  0.00    +0.156 C 
BRANCH   6   9
ATOM      7  C   UNL     1      -2.214   5.418   0.000  0.00  0.00    +0.139 C 
ATOM      8  N   UNL     1      -1.729   4.751   0.000  0.00  0.00    -0.203 NA
ATOM      9  C   UNL     1      -0.908   4.837   0.000  0.00  0.00    +0.249 C 
ATOM     10  O   UNL     1      -0.573   5.591   0.000  0.00  0.00    -0.273 OA
ENDBRANCH   6   9
ENDBRANCH   1   6
BRANCH   3  11
ATOM     11  C   UNL     1       2.417   3.566   0.000  0.00  0.00    +0.088 C 
BRANCH  11  12
ATOM     12  C   UNL     1       2.417   2.741   0.000  0.00  0.00    +0.009 C 
ATOM     13  C   UNL     1       1.834   2.157   0.000  0.00  0.00    +0.000 C 
ATOM     14  C   UNL     1       2.417   1.574   0.000  0.00  0.00    +0.000 C 
ATOM     15  C   UNL     1       3.001   2.157   0.000  0.00  0.00    +0.000 C 
ENDBRANCH  11  12
ENDBRANCH   3  11
TORSDOF 4
