REMARK  Name = 
REMARK  5 active torsions:
REMARK  status: ('A' for Active; 'I' for Inactive)
REMARK    1  A    between atoms: C_2  and  C_3
REMARK    2  A    between atoms: N_7  and  C_8
REMARK    3  A    between atoms: C_8  and  C_9
REMARK    4  A    between atoms: C_9  and  N_10
REMARK    5  A    between atoms: C_11  and  C_13
REMARK                            x       y       z     vdW  Elec       q    Type
REMARK                         _______ _______ _______ _____ _____    ______ ____
ROOT
ATOM      1  N   UNL     1      -1.429   0.000   0.000  0.00  0.00    -0.203 NA
ATOM      2  C   UNL     1      -0.715  -0.412   0.000  0.00  0.00    +0.241 C 
ATOM      3  O   UNL     1      -0.715  -1.238   0.000  0.00  0.00    -0.273 OA
ENDROOT
BRANCH   2   4
ATOM      4  C   UNL     1       0.000   0.000   0.000  0.00  0.00    +0.083 C 
ATOM      5  C   UNL     1       0.000   0.825   0.000  0.00  0.00    +0.031 C 
ATOM      6  C   UNL     1       0.715   1.238   0.000  0.00  0.00    -0.031 C 
ATOM      7  C   UNL     1       1.429   0.825   0.000  0.00  0.00    -0.031 C 
ATOM      8  C   UNL     1       1.429   0.000   0.000  0.00  0.00    +0.023 C 
ATOM      9  C   UNL     1       0.611   0.234   0.000  0.00  0.00    +0.009 C 
ATOM     10  C   UNL     1       0.715  -0.412   0.000  0.00  0.00    +0.014 C 
ENDBRANCH   2   4
BRANCH   1  11
ATOM     11  C   UNL     1      -2.143  -0.412   0.000  0.00  0.00    +0.140 C 
BRANCH  11  12
ATOM     12  C   UNL     1      -2.858   0.000   0.000  0.00  0.00    +0.132 C 
BRANCH  12  14
ATOM     13  C   UNL     1      -3.659  -1.233   0.000  0.00  0.00    +0.143 A 
ATOM     14  N   UNL     1      -3.572  -0.412   0.000  0.00  0.00    -0.294 N 
ATOM     15  C   UNL     1      -4.326  -0.077   0.000  0.00  0.00    +0.202 A 
ATOM     16  N   UNL     1      -4.878  -0.690   0.000  0.00  0.00    -0.126 NA
ATOM     17  N   UNL     1      -4.466  -1.405   0.000  0.00  0.00    -0.133 NA
BRANCH  13  19
ATOM     18  C   UNL     1      -3.217  -2.592   0.000  0.00  0.00    +0.008 C 
ATOM     19  C   UNL     1      -3.046  -1.785   0.000  0.00  0.00    +0.066 C 
ENDBRANCH  13  19
ENDBRANCH  12  14
ENDBRANCH  11  12
ENDBRANCH   1  11
TORSDOF 5
