REMARK  Name = 
REMARK  4 active torsions:
REMARK  status: ('A' for Active; 'I' for Inactive)
REMARK    1  A    between atoms: C_2  and  C_3
REMARK    2  A    between atoms: C_2  and  N_5
REMARK    3  A    between atoms: C_2  and  C_17
REMARK    4  A    between atoms: C_12  and  C_14
REMARK                            x       y       z     vdW  Elec       q    Type
REMARK                         _______ _______ _______ _____ _____    ______ ____
ROOT
ATOM      1  N   UNL     1       1.982  -2.620   0.000  0.00  0.00    -0.188 NA
ATOM      2  C   UNL     1       2.395  -1.905   0.000  0.00  0.00    +0.345 C 
ATOM      3  N   UNL     1       3.220  -1.905   0.000  0.00  0.00    -0.134 NA
ATOM      4  C   UNL     1       3.632  -1.191   0.000  0.00  0.00    +0.209 A 
ATOM      5  S   UNL     1       4.453  -1.105   0.000  0.00  0.00    -0.028 S 
ATOM      6  C   UNL     1       4.625  -0.298   0.000  0.00  0.00    +0.179 A 
ATOM      7  N   UNL     1       3.910   0.115   0.000  0.00  0.00    -0.138 NA
ATOM      8  N   UNL     1       3.297  -0.437   0.000  0.00  0.00    -0.124 NA
ATOM      9  O   UNL     1       1.982  -1.191   0.000  0.00  0.00    -0.249 OA
ENDROOT
BRANCH   6  10
ATOM     10  C   UNL     1       5.378   0.038   0.000  0.00  0.00    +0.366 C 
ATOM     11  F   UNL     1       6.046  -0.447   0.000  0.00  0.00    -0.191 F 
ATOM     12  F   UNL     1       5.464   0.858   0.000  0.00  0.00    -0.191 F 
ENDBRANCH   6  10
BRANCH   1  14
ATOM     13  C   UNL     1       1.157  -1.795   0.000  0.00  0.00    +0.024 C 
ATOM     14  C   UNL     1       1.157  -2.620   0.000  0.00  0.00    +0.111 C 
BRANCH  14  15
ATOM     15  C   UNL     1       1.157  -3.445   0.000  0.00  0.00    +0.021 C 
ATOM     16  C   UNL     1       0.745  -4.159   0.000  0.00  0.00    +0.002 C 
ATOM     17  C   UNL     1       1.570  -4.159   0.000  0.00  0.00    +0.002 C 
ENDBRANCH  14  15
BRANCH  14  18
ATOM     18  C   UNL     1       0.333  -2.620   0.000  0.00  0.00    +0.202 C 
ATOM     19  O   UNL     1      -0.080  -3.334   0.000  0.00  0.00    -0.219 OA
ENDBRANCH  14  18
ENDBRANCH   1  14
TORSDOF 4
