REMARK  Name = 
REMARK  5 active torsions:
REMARK  status: ('A' for Active; 'I' for Inactive)
REMARK    1  A    between atoms: N_2  and  C_12
REMARK    2  A    between atoms: C_5  and  N_6
REMARK    3  A    between atoms: N_8  and  C_18
REMARK    4  A    between atoms: C_12  and  C_13
REMARK    5  A    between atoms: C_18  and  C_23
REMARK                            x       y       z     vdW  Elec       q    Type
REMARK                         _______ _______ _______ _____ _____    ______ ____
ROOT
ATOM      1  C   UNL     1       2.562   0.825   0.000  0.00  0.00    +0.149 A 
ATOM      2  C   UNL     1       3.275   1.238   0.000  0.00  0.00    +0.154 A 
ATOM      3  N   UNL     1       3.992   0.825   0.000  0.00  0.00    -0.207 NA
ATOM      4  C   UNL     1       3.992   0.000   0.000  0.00  0.00    +0.201 A 
ATOM      5  N   UNL     1       3.275  -0.412   0.000  0.00  0.00    -0.205 NA
ATOM      6  N   UNL     1       1.779   1.083   0.000  0.00  0.00    -0.219 NA
ATOM      7  C   UNL     1       1.292   0.412   0.000  0.00  0.00    +0.180 A 
ATOM      8  N   UNL     1       1.779  -0.254   0.000  0.00  0.00    -0.292 N 
ATOM      9  C   UNL     1       2.562   0.000   0.000  0.00  0.00    +0.167 A 
ENDROOT
BRANCH   2  10
ATOM     10  N   UNL     1       3.275   2.062   0.000  0.00  0.00    -0.289 N 
ATOM     11  C   UNL     1       3.992   2.475   0.000  0.00  0.00    +0.110 C 
ATOM     12  C   UNL     1       3.992   3.300   0.000  0.00  0.00    +0.094 C 
ATOM     13  N   UNL     1       3.275   3.712   0.000  0.00  0.00    -0.269 NA
ATOM     14  C   UNL     1       2.562   3.300   0.000  0.00  0.00    +0.077 C 
ATOM     15  C   UNL     1       1.850   3.712   0.000  0.00  0.00    +0.019 C 
ATOM     16  C   UNL     1       2.562   2.475   0.000  0.00  0.00    +0.108 C 
BRANCH  13  17
ATOM     17  C   UNL     1       3.275   4.533   0.000  0.00  0.00    +0.105 C 
BRANCH  17  18
ATOM     18  C   UNL     1       2.562   4.950   0.000  0.00  0.00    +0.168 C 
ATOM     19  C   UNL     1       2.562   5.775   0.000  0.00  0.00    +0.037 C 
ATOM     20  O   UNL     1       1.850   4.533   0.000  0.00  0.00    -0.222 OA
ENDBRANCH  17  18
ENDBRANCH  13  17
ENDBRANCH   2  10
BRANCH   8  21
ATOM     21  C   UNL     1       1.521  -1.038   0.000  0.00  0.00    +0.142 C 
BRANCH  21  22
ATOM     22  C   UNL     1       2.075  -1.650   0.000  0.00  0.00    +0.177 C 
ATOM     23  C   UNL     1       2.487  -2.367   0.000  0.00  0.00    +0.174 C 
ATOM     24  O   UNL     1       3.296  -2.192   0.000  0.00  0.00    -0.351 OA
ATOM     25  C   UNL     1       3.379  -1.375   0.000  0.00  0.00    +0.145 C 
ATOM     26  O   UNL     1       1.408  -2.138   0.000  0.00  0.00    -0.221 OA
ATOM     27  C   UNL     1       2.625  -1.038   0.000  0.00  0.00    +0.067 C 
ENDBRANCH  21  22
ENDBRANCH   8  21
TORSDOF 5
