REMARK  Name = 
REMARK  3 active torsions:
REMARK  status: ('A' for Active; 'I' for Inactive)
REMARK    1  A    between atoms: N_11  and  C_12
REMARK    2  A    between atoms: N_15  and  C_16
REMARK    3  A    between atoms: C_16  and  C_17
REMARK                            x       y       z     vdW  Elec       q    Type
REMARK                         _______ _______ _______ _____ _____    ______ ____
ROOT
ATOM      1  C   UNL     1      -3.679   3.528   0.000  0.00  0.00    +0.031 C 
ATOM      2  C   UNL     1      -3.679   4.353   0.000  0.00  0.00    -0.018 A 
ATOM      3  C   UNL     1      -2.965   4.765   0.000  0.00  0.00    +0.032 A 
ATOM      4  C   UNL     1      -2.965   5.590   0.000  0.00  0.00    +0.155 A 
ATOM      5  N   UNL     1      -2.250   6.003   0.000  0.00  0.00    -0.142 NA
ATOM      6  C   UNL     1      -1.536   5.590   0.000  0.00  0.00    +0.345 C 
ATOM      7  N   UNL     1      -0.821   6.003   0.000  0.00  0.00    -0.189 NA
ATOM      8  O   UNL     1      -1.536   4.765   0.000  0.00  0.00    -0.249 OA
ATOM      9  N   UNL     1      -3.679   6.003   0.000  0.00  0.00    -0.233 NA
ATOM     10  C   UNL     1      -4.394   5.590   0.000  0.00  0.00    +0.061 A 
ATOM     11  C   UNL     1      -5.108   6.003   0.000  0.00  0.00    +0.052 C 
ATOM     12  C   UNL     1      -4.394   4.765   0.000  0.00  0.00    +0.011 A 
ENDROOT
BRANCH   7  13
ATOM     13  C   UNL     1      -0.107   5.590   0.000  0.00  0.00    +0.100 C 
ATOM     14  C   UNL     1      -0.107   4.765   0.000  0.00  0.00    +0.039 C 
ATOM     15  C   UNL     1       0.608   4.353   0.000  0.00  0.00    +0.074 C 
ATOM     16  N   UNL     1       1.322   4.765   0.000  0.00  0.00    -0.272 NA
ATOM     17  C   UNL     1       1.322   5.590   0.000  0.00  0.00    +0.074 C 
ATOM     18  C   UNL     1       0.608   6.003   0.000  0.00  0.00    +0.039 C 
BRANCH  16  19
ATOM     19  C   UNL     1       2.037   4.353   0.000  0.00  0.00    +0.075 C 
BRANCH  19  20
ATOM     20  C   UNL     1       2.037   3.528   0.000  0.00  0.00    +0.048 C 
ATOM     21  C   UNL     1       1.369   3.043   0.000  0.00  0.00    +0.144 C 
ATOM     22  O   UNL     1       1.624   2.258   0.000  0.00  0.00    -0.354 OA
ATOM     23  C   UNL     1       2.449   2.258   0.000  0.00  0.00    +0.142 C 
ATOM     24  C   UNL     1       2.704   3.043   0.000  0.00  0.00    +0.036 C 
ENDBRANCH  19  20
ENDBRANCH  16  19
ENDBRANCH   7  13
TORSDOF 3
