REMARK  Name = 
REMARK  1 active torsions:
REMARK  status: ('A' for Active; 'I' for Inactive)
REMARK    1  A    between atoms: C_7  and  N_8
REMARK                            x       y       z     vdW  Elec       q    Type
REMARK                         _______ _______ _______ _____ _____    ______ ____
ROOT
ATOM      1  N   UNL     1       2.143  -0.412   0.000  0.00  0.00    -0.189 NA
ATOM      2  C   UNL     1       2.143  -1.238   0.000  0.00  0.00    +0.345 C 
ATOM      3  N   UNL     1       2.858  -1.650   0.000  0.00  0.00    -0.139 NA
ATOM      4  C   UNL     1       2.858  -2.475   0.000  0.00  0.00    +0.197 A 
ATOM      5  N   UNL     1       2.190  -2.960   0.000  0.00  0.00    -0.060 NA
ATOM      6  O   UNL     1       2.445  -3.744   0.000  0.00  0.00    -0.356 OA
ATOM      7  C   UNL     1       3.270  -3.744   0.000  0.00  0.00    +0.156 A 
ATOM      8  C   UNL     1       3.755  -4.412   0.000  0.00  0.00    +0.075 C 
ATOM      9  C   UNL     1       3.525  -2.960   0.000  0.00  0.00    +0.075 A 
ATOM     10  O   UNL     1       1.429  -1.650   0.000  0.00  0.00    -0.249 OA
ENDROOT
BRANCH   1  13
ATOM     11  C   UNL     1       0.715  -1.238   0.000  0.00  0.00    +0.002 C 
ATOM     12  C   UNL     1       0.715  -0.412   0.000  0.00  0.00    +0.020 C 
ATOM     13  C   UNL     1       1.429   0.000   0.000  0.00  0.00    +0.097 C 
ATOM     14  C   UNL     1       1.429   0.825   0.000  0.00  0.00    +0.022 C 
ATOM     15  C   UNL     1       0.715   1.238   0.000  0.00  0.00    +0.002 C 
ATOM     16  C   UNL     1       0.000   0.825   0.000  0.00  0.00    +0.000 C 
ATOM     17  C   UNL     1       0.000   0.000   0.000  0.00  0.00    +0.002 C 
ENDBRANCH   1  13
TORSDOF 1
