REMARK  Name = 
REMARK  0 active torsions:
REMARK  status: ('A' for Active; 'I' for Inactive)
REMARK                            x       y       z     vdW  Elec       q    Type
REMARK                         _______ _______ _______ _____ _____    ______ ____
ROOT
ATOM      1  N   UNL     1       0.715  -0.412   0.000  0.00  0.00    -0.126 NA
ATOM      2  C   UNL     1       0.715  -1.238   0.000  0.00  0.00    +0.108 A 
ATOM      3  C   UNL     1       0.000  -1.650   0.000  0.00  0.00    +0.118 A 
ATOM      4  N   UNL     1       0.000  -2.475   0.000  0.00  0.00    -0.228 NA
ATOM      5  C   UNL     1       0.715  -2.888   0.000  0.00  0.00    +0.132 A 
ATOM      6  N   UNL     1       0.715  -3.712   0.000  0.00  0.00    -0.288 N 
ATOM      7  C   UNL     1       0.000  -4.125   0.000  0.00  0.00    +0.124 C 
ATOM      8  C   UNL     1       0.000  -4.950   0.000  0.00  0.00    +0.164 C 
ATOM      9  O   UNL     1       0.715  -5.362   0.000  0.00  0.00    -0.350 OA
ATOM     10  C   UNL     1       1.429  -4.950   0.000  0.00  0.00    +0.164 C 
ATOM     11  C   UNL     1       1.429  -4.125   0.000  0.00  0.00    +0.124 C 
ATOM     12  C   UNL     1       1.429  -2.475   0.000  0.00  0.00    +0.036 A 
ATOM     13  C   UNL     1       1.429  -1.650   0.000  0.00  0.00    +0.023 A 
ENDROOT
TORSDOF 0
