REMARK  Name = 
REMARK  7 active torsions:
REMARK  status: ('A' for Active; 'I' for Inactive)
REMARK    1  A    between atoms: C_2  and  C_3
REMARK    2  A    between atoms: C_2  and  N_9
REMARK    3  A    between atoms: C_3  and  N_4
REMARK    4  A    between atoms: N_9  and  C_10
REMARK    5  A    between atoms: C_10  and  C_11
REMARK    6  A    between atoms: C_11  and  C_13
REMARK    7  A    between atoms: C_13  and  N_14
REMARK                            x       y       z     vdW  Elec       q    Type
REMARK                         _______ _______ _______ _____ _____    ______ ____
ROOT
ATOM      1  C   UNL     1       4.287  -4.125   0.000  0.00  0.00    +0.185 C 
ATOM      2  O   UNL     1       4.287  -4.950   0.000  0.00  0.00    -0.220 OA
ENDROOT
BRANCH   1   3
ATOM      3  C   UNL     1       3.572  -3.712   0.000  0.00  0.00    +0.123 C 
BRANCH   3   4
ATOM      4  N   UNL     1       2.858  -4.125   0.000  0.00  0.00    -0.215 NA
BRANCH   4   6
ATOM      5  C   UNL     1       2.143  -2.888   0.000  0.00  0.00    +0.021 C 
ATOM      6  C   UNL     1       2.143  -3.712   0.000  0.00  0.00    +0.097 C 
BRANCH   6   7
ATOM      7  C   UNL     1       1.429  -4.125   0.000  0.00  0.00    +0.145 C 
BRANCH   7   8
ATOM      8  N   UNL     1       0.715  -3.712   0.000  0.00  0.00    -0.248 N 
ATOM      9  N   UNL     1       0.628  -2.892   0.000  0.00  0.00    -0.168 NA
ATOM     10  C   UNL     1      -0.179  -2.720   0.000  0.00  0.00    +0.122 A 
ATOM     11  C   UNL     1      -0.591  -3.435   0.000  0.00  0.00    +0.043 A 
ATOM     12  C   UNL     1      -0.039  -4.048   0.000  0.00  0.00    +0.097 A 
ENDBRANCH   7   8
ENDBRANCH   6   7
ENDBRANCH   4   6
ENDBRANCH   3   4
ENDBRANCH   1   3
BRANCH   1  13
ATOM     13  C   UNL     1       5.001  -3.712   0.000  0.00  0.00    +0.107 C 
BRANCH  13  14
ATOM     14  N   UNL     1       5.716  -4.125   0.000  0.00  0.00    -0.266 NA
ATOM     15  C   UNL     1       5.716  -4.950   0.000  0.00  0.00    +0.102 C 
ATOM     16  C   UNL     1       6.430  -5.362   0.000  0.00  0.00    +0.131 C 
ATOM     17  C   UNL     1       6.430  -6.188   0.000  0.00  0.00    +0.034 C 
ATOM     18  O   UNL     1       7.145  -4.950   0.000  0.00  0.00    -0.356 OA
ATOM     19  C   UNL     1       7.145  -4.125   0.000  0.00  0.00    +0.131 C 
ATOM     20  C   UNL     1       7.859  -3.712   0.000  0.00  0.00    +0.034 C 
ATOM     21  C   UNL     1       6.430  -3.712   0.000  0.00  0.00    +0.102 C 
ENDBRANCH  13  14
ENDBRANCH   1  13
TORSDOF 7
