REMARK  Name = 
REMARK  5 active torsions:
REMARK  status: ('A' for Active; 'I' for Inactive)
REMARK    1  A    between atoms: N_2  and  C_4
REMARK    2  A    between atoms: C_4  and  C_5
REMARK    3  A    between atoms: C_5  and  N_6
REMARK    4  A    between atoms: C_7  and  C_9
REMARK    5  A    between atoms: C_9  and  N_10
REMARK                            x       y       z     vdW  Elec       q    Type
REMARK                         _______ _______ _______ _____ _____    ______ ____
ROOT
ATOM      1  N   UNL     1       1.874  -3.835   0.000  0.00  0.00    -0.202 NA
ATOM      2  C   UNL     1       2.589  -3.422   0.000  0.00  0.00    +0.266 C 
ATOM      3  O   UNL     1       2.589  -2.598   0.000  0.00  0.00    -0.271 OA
ENDROOT
BRANCH   1   4
ATOM      4  C   UNL     1       1.160  -3.422   0.000  0.00  0.00    +0.132 C 
BRANCH   4   5
ATOM      5  C   UNL     1       0.445  -3.835   0.000  0.00  0.00    +0.096 C 
BRANCH   5   7
ATOM      6  C   UNL     1      -0.984  -3.835   0.000  0.00  0.00    +0.090 C 
ATOM      7  N   UNL     1      -0.269  -3.422   0.000  0.00  0.00    -0.269 NA
ATOM      8  C   UNL     1      -0.269  -2.598   0.000  0.00  0.00    +0.090 C 
ENDBRANCH   5   7
ENDBRANCH   4   5
ENDBRANCH   1   4
BRANCH   2   9
ATOM      9  C   UNL     1       3.303  -3.835   0.000  0.00  0.00    +0.214 C 
BRANCH   9  10
ATOM     10  N   UNL     1       4.018  -3.422   0.000  0.00  0.00    -0.239 N 
ATOM     11  N   UNL     1       4.771  -3.758   0.000  0.00  0.00    -0.150 NA
ATOM     12  C   UNL     1       5.323  -3.145   0.000  0.00  0.00    +0.191 A 
ATOM     13  N   UNL     1       6.144  -3.231   0.000  0.00  0.00    -0.105 NA
ATOM     14  C   UNL     1       4.911  -2.430   0.000  0.00  0.00    +0.060 A 
ATOM     15  C   UNL     1       4.104  -2.602   0.000  0.00  0.00    +0.099 A 
ENDBRANCH   9  10
ENDBRANCH   2   9
TORSDOF 5
