REMARK  Name = 
REMARK  4 active torsions:
REMARK  status: ('A' for Active; 'I' for Inactive)
REMARK    1  A    between atoms: C_2  and  C_3
REMARK    2  A    between atoms: C_3  and  N_4
REMARK    3  A    between atoms: C_5  and  C_6
REMARK    4  A    between atoms: C_6  and  N_7
REMARK                            x       y       z     vdW  Elec       q    Type
REMARK                         _______ _______ _______ _____ _____    ______ ____
ROOT
ATOM      1  N   UNL     1       1.139  -1.365   0.000  0.00  0.00    -0.311 N 
ATOM      2  C   UNL     1       1.923  -1.110   0.000  0.00  0.00    +0.079 A 
ATOM      3  C   UNL     1       1.923  -0.285   0.000  0.00  0.00    +0.099 A 
ATOM      4  C   UNL     1       2.638   0.127   0.000  0.00  0.00    +0.032 A 
ATOM      5  C   UNL     1       3.352  -0.285   0.000  0.00  0.00    +0.059 A 
ATOM      6  C   UNL     1       3.352  -1.110   0.000  0.00  0.00    +0.013 A 
ATOM      7 CL   UNL     1       4.067   0.127   0.000  0.00  0.00    -0.082 Cl
ATOM      8  N   UNL     1       1.139  -0.030   0.000  0.00  0.00    -0.229 NA
ATOM      9  C   UNL     1       2.638  -1.523   0.000  0.00  0.00    +0.020 A 
ATOM     10  C   UNL     1       0.654  -0.698   0.000  0.00  0.00    +0.144 A 
ENDROOT
BRANCH   1  11
ATOM     11  C   UNL     1       0.884  -2.150   0.000  0.00  0.00    +0.143 C 
BRANCH  11  13
ATOM     12  O   UNL     1       1.181  -3.548   0.000  0.00  0.00    -0.218 OA
ATOM     13  C   UNL     1       1.436  -2.763   0.000  0.00  0.00    +0.206 C 
ENDBRANCH  11  13
ENDBRANCH   1  11
BRANCH  10  14
ATOM     14  C   UNL     1      -0.171  -0.698   0.000  0.00  0.00    +0.173 C 
BRANCH  14  15
ATOM     15  N   UNL     1      -0.584  -1.412   0.000  0.00  0.00    -0.287 N 
ATOM     16  C   UNL     1      -1.409  -1.412   0.000  0.00  0.00    +0.261 A 
ATOM     17  O   UNL     1      -1.821  -0.698   0.000  0.00  0.00    -0.267 OA
ATOM     18  C   UNL     1      -1.821  -2.127   0.000  0.00  0.00    +0.061 A 
ATOM     19  C   UNL     1      -1.409  -2.841   0.000  0.00  0.00    +0.006 A 
ATOM     20  C   UNL     1      -0.584  -2.841   0.000  0.00  0.00    +0.019 A 
ATOM     21  C   UNL     1      -0.171  -2.127   0.000  0.00  0.00    +0.079 A 
ENDBRANCH  14  15
ENDBRANCH  10  14
TORSDOF 4
