REMARK  Name = 
REMARK  4 active torsions:
REMARK  status: ('A' for Active; 'I' for Inactive)
REMARK    1  A    between atoms: O_2  and  C_3
REMARK    2  A    between atoms: C_6  and  N_7
REMARK    3  A    between atoms: N_10  and  C_11
REMARK    4  A    between atoms: C_11  and  C_12
REMARK                            x       y       z     vdW  Elec       q    Type
REMARK                         _______ _______ _______ _____ _____    ______ ____
ROOT
ATOM      1  C   UNL     1      -2.858   3.300   0.000  0.00  0.00    +0.225 A 
ATOM      2  N   UNL     1      -2.858   2.475   0.000  0.00  0.00    -0.209 NA
ATOM      3  C   UNL     1      -2.143   2.062   0.000  0.00  0.00    +0.119 A 
ATOM      4  C   UNL     1      -1.429   2.475   0.000  0.00  0.00    +0.094 A 
ATOM      5  C   UNL     1      -1.429   3.300   0.000  0.00  0.00    +0.023 A 
ATOM      6  C   UNL     1      -2.143   3.712   0.000  0.00  0.00    +0.059 A 
ENDROOT
BRANCH   4   7
ATOM      7  N   UNL     1      -0.715   2.062   0.000  0.00  0.00    -0.159 NA
ATOM      8  C   UNL     1       0.000   2.475   0.000  0.00  0.00    +0.344 C 
ATOM      9  N   UNL     1       0.715   2.062   0.000  0.00  0.00    -0.187 NA
ATOM     10  O   UNL     1       0.000   3.300   0.000  0.00  0.00    -0.249 OA
BRANCH   9  11
ATOM     11  C   UNL     1       1.429   2.475   0.000  0.00  0.00    +0.117 C 
BRANCH  11  12
ATOM     12  C   UNL     1       2.143   2.062   0.000  0.00  0.00    +0.022 C 
ATOM     13  C   UNL     1       2.556   1.348   0.000  0.00  0.00    +0.002 C 
ATOM     14  C   UNL     1       2.968   2.062   0.000  0.00  0.00    +0.002 C 
ENDBRANCH  11  12
ENDBRANCH   9  11
ENDBRANCH   4   7
BRANCH   1  16
ATOM     15  C   UNL     1      -4.287   3.300   0.000  0.00  0.00    +0.254 C 
ATOM     16  O   UNL     1      -3.572   3.712   0.000  0.00  0.00    -0.456 OA
ENDBRANCH   1  16
TORSDOF 4
