REMARK  Name = 
REMARK  6 active torsions:
REMARK  status: ('A' for Active; 'I' for Inactive)
REMARK    1  A    between atoms: C_2  and  C_3
REMARK    2  A    between atoms: C_3  and  N_4
REMARK    3  A    between atoms: C_5  and  C_7
REMARK    4  A    between atoms: C_7  and  N_8
REMARK    5  A    between atoms: C_9  and  C_11
REMARK    6  A    between atoms: C_11  and  N_13
REMARK                            x       y       z     vdW  Elec       q    Type
REMARK                         _______ _______ _______ _____ _____    ______ ____
ROOT
ATOM      1  N   UNL     1       7.083  -3.908   0.000  0.00  0.00    -0.194 NA
ATOM      2  C   UNL     1       7.798  -4.321   0.000  0.00  0.00    +0.264 C 
ATOM      3  O   UNL     1       7.798  -5.146   0.000  0.00  0.00    -0.271 OA
ENDROOT
BRANCH   2   4
ATOM      4  C   UNL     1       8.512  -3.908   0.000  0.00  0.00    +0.183 C 
ATOM      5  C   UNL     1       8.512  -3.083   0.000  0.00  0.00    +0.036 C 
BRANCH   4   6
ATOM      6  N   UNL     1       9.227  -4.321   0.000  0.00  0.00    -0.242 N 
ATOM      7  N   UNL     1       9.313  -5.141   0.000  0.00  0.00    -0.167 NA
ATOM      8  C   UNL     1      10.120  -5.312   0.000  0.00  0.00    +0.122 A 
ATOM      9  C   UNL     1      10.532  -4.598   0.000  0.00  0.00    +0.043 A 
ATOM     10  C   UNL     1       9.980  -3.985   0.000  0.00  0.00    +0.097 A 
ENDBRANCH   4   6
ENDBRANCH   2   4
BRANCH   1  11
ATOM     11  C   UNL     1       6.369  -4.321   0.000  0.00  0.00    +0.201 C 
BRANCH  11  13
ATOM     12  N   UNL     1       4.940  -4.321   0.000  0.00  0.00    -0.204 NA
ATOM     13  C   UNL     1       5.654  -3.908   0.000  0.00  0.00    +0.263 C 
ATOM     14  O   UNL     1       5.654  -3.083   0.000  0.00  0.00    -0.271 OA
BRANCH  12  15
ATOM     15  C   UNL     1       4.225  -3.908   0.000  0.00  0.00    +0.115 C 
BRANCH  15  17
ATOM     16  C   UNL     1       2.796  -3.908   0.000  0.00  0.00    +0.002 C 
ATOM     17  C   UNL     1       3.511  -4.321   0.000  0.00  0.00    +0.023 C 
ENDBRANCH  15  17
ENDBRANCH  12  15
ENDBRANCH  11  13
ENDBRANCH   1  11
TORSDOF 6
