REMARK  Name = 
REMARK  7 active torsions:
REMARK  status: ('A' for Active; 'I' for Inactive)
REMARK    1  A    between atoms: C_2  and  N_4
REMARK    2  A    between atoms: C_5  and  C_7
REMARK    3  A    between atoms: C_7  and  C_8
REMARK    4  A    between atoms: C_8  and  N_9
REMARK    5  A    between atoms: N_9  and  C_10
REMARK    6  A    between atoms: C_10  and  C_12
REMARK    7  A    between atoms: C_12  and  N_13
REMARK                            x       y       z     vdW  Elec       q    Type
REMARK                         _______ _______ _______ _____ _____    ______ ____
ROOT
ATOM      1  N   UNL     1       7.083  -3.908   0.000  0.00  0.00    -0.217 NA
ENDROOT
BRANCH   1   2
ATOM      2  C   UNL     1       7.798  -4.321   0.000  0.00  0.00    +0.097 C 
ATOM      3  C   UNL     1       7.798  -5.146   0.000  0.00  0.00    +0.021 C 
BRANCH   2   4
ATOM      4  C   UNL     1       8.512  -3.908   0.000  0.00  0.00    +0.145 C 
BRANCH   4   5
ATOM      5  N   UNL     1       9.227  -4.321   0.000  0.00  0.00    -0.248 N 
ATOM      6  N   UNL     1       9.313  -5.141   0.000  0.00  0.00    -0.168 NA
ATOM      7  C   UNL     1      10.120  -5.312   0.000  0.00  0.00    +0.117 A 
ATOM      8  C   UNL     1      10.532  -4.598   0.000  0.00  0.00    +0.018 A 
ATOM      9  C   UNL     1      11.353  -4.512   0.000  0.00  0.00    +0.034 C 
ATOM     10  C   UNL     1       9.980  -3.985   0.000  0.00  0.00    +0.092 A 
ENDBRANCH   4   5
ENDBRANCH   2   4
ENDBRANCH   1   2
BRANCH   1  11
ATOM     11  C   UNL     1       6.369  -4.321   0.000  0.00  0.00    +0.098 C 
BRANCH  11  12
ATOM     12  C   UNL     1       5.654  -3.908   0.000  0.00  0.00    +0.106 C 
BRANCH  12  14
ATOM     13  N   UNL     1       4.225  -3.908   0.000  0.00  0.00    -0.207 NA
ATOM     14  C   UNL     1       4.940  -4.321   0.000  0.00  0.00    +0.243 C 
ATOM     15  O   UNL     1       4.940  -5.146   0.000  0.00  0.00    -0.273 OA
BRANCH  13  17
ATOM     16  C   UNL     1       2.796  -3.908   0.000  0.00  0.00    +0.023 C 
ATOM     17  C   UNL     1       3.511  -4.321   0.000  0.00  0.00    +0.095 C 
ATOM     18  C   UNL     1       3.511  -5.146   0.000  0.00  0.00    +0.023 C 
ENDBRANCH  13  17
ENDBRANCH  12  14
ENDBRANCH  11  12
ENDBRANCH   1  11
TORSDOF 7
