REMARK  Name = 
REMARK  5 active torsions:
REMARK  status: ('A' for Active; 'I' for Inactive)
REMARK    1  A    between atoms: N_7  and  C_8
REMARK    2  A    between atoms: C_8  and  C_9
REMARK    3  A    between atoms: C_9  and  N_10
REMARK    4  A    between atoms: C_11  and  C_13
REMARK    5  A    between atoms: C_13  and  N_14
REMARK                            x       y       z     vdW  Elec       q    Type
REMARK                         _______ _______ _______ _____ _____    ______ ____
ROOT
ATOM      1  N   UNL     1       3.572   1.238   0.000  0.00  0.00    -0.202 NA
ATOM      2  C   UNL     1       4.287   0.825   0.000  0.00  0.00    +0.266 C 
ATOM      3  O   UNL     1       4.287   0.000   0.000  0.00  0.00    -0.271 OA
ENDROOT
BRANCH   1   4
ATOM      4  C   UNL     1       2.858   0.825   0.000  0.00  0.00    +0.132 C 
BRANCH   4   5
ATOM      5  C   UNL     1       2.143   1.238   0.000  0.00  0.00    +0.096 C 
BRANCH   5   9
ATOM      6  C   UNL     1       0.715  -1.238   0.000  0.00  0.00    +0.001 C 
ATOM      7  C   UNL     1       0.715  -0.412   0.000  0.00  0.00    +0.016 C 
ATOM      8  C   UNL     1       1.429   0.000   0.000  0.00  0.00    +0.072 C 
ATOM      9  N   UNL     1       1.429   0.825   0.000  0.00  0.00    -0.271 NA
ATOM     10  C   UNL     1       0.715   1.238   0.000  0.00  0.00    +0.072 C 
ATOM     11  C   UNL     1       0.000   0.825   0.000  0.00  0.00    +0.016 C 
ATOM     12  C   UNL     1      -0.715   1.238   0.000  0.00  0.00    +0.001 C 
ATOM     13  C   UNL     1       0.000   0.000   0.000  0.00  0.00    +0.003 C 
ENDBRANCH   5   9
ENDBRANCH   4   5
ENDBRANCH   1   4
BRANCH   2  14
ATOM     14  C   UNL     1       5.001   1.238   0.000  0.00  0.00    +0.213 C 
BRANCH  14  15
ATOM     15  N   UNL     1       5.716   0.825   0.000  0.00  0.00    -0.246 N 
ATOM     16  C   UNL     1       5.802   0.004   0.000  0.00  0.00    +0.058 A 
ATOM     17  C   UNL     1       5.189  -0.547   0.000  0.00  0.00    +0.052 C 
ATOM     18  C   UNL     1       6.609  -0.167   0.000  0.00  0.00    +0.031 A 
ATOM     19  C   UNL     1       7.021   0.547   0.000  0.00  0.00    +0.080 A 
ATOM     20  C   UNL     1       7.842   0.634   0.000  0.00  0.00    +0.054 C 
ATOM     21  N   UNL     1       6.469   1.161   0.000  0.00  0.00    -0.174 NA
ENDBRANCH  14  15
ENDBRANCH   2  14
TORSDOF 5
