REMARK  Name = 
REMARK  4 active torsions:
REMARK  status: ('A' for Active; 'I' for Inactive)
REMARK    1  A    between atoms: O_2  and  C_3
REMARK    2  A    between atoms: C_7  and  C_9
REMARK    3  A    between atoms: C_9  and  C_11
REMARK    4  A    between atoms: C_11  and  N_12
REMARK                            x       y       z     vdW  Elec       q    Type
REMARK                         _______ _______ _______ _____ _____    ______ ____
ROOT
ATOM      1  C   UNL     1       0.000  -4.125   0.000  0.00  0.00    +0.197 C 
ATOM      2  O   UNL     1      -0.715  -3.712   0.000  0.00  0.00    -0.216 OA
ENDROOT
BRANCH   1   5
ATOM      3  C   UNL     1       1.429  -2.475   0.000  0.00  0.00    +0.138 A 
ATOM      4  C   UNL     1       0.715  -2.888   0.000  0.00  0.00    +0.035 A 
ATOM      5  C   UNL     1       0.715  -3.712   0.000  0.00  0.00    +0.013 A 
ATOM      6  C   UNL     1       1.429  -4.125   0.000  0.00  0.00    -0.002 A 
ATOM      7  C   UNL     1       2.143  -3.712   0.000  0.00  0.00    +0.003 A 
ATOM      8  C   UNL     1       2.143  -2.888   0.000  0.00  0.00    +0.037 A 
BRANCH   3  10
ATOM      9  C   UNL     1       2.143  -1.238   0.000  0.00  0.00    +0.252 C 
ATOM     10  O   UNL     1       1.429  -1.650   0.000  0.00  0.00    -0.471 OA
ENDBRANCH   3  10
ENDBRANCH   1   5
BRANCH   1  11
ATOM     11  C   UNL     1       0.000  -4.950   0.000  0.00  0.00    +0.148 C 
BRANCH  11  12
ATOM     12  N   UNL     1      -0.715  -5.362   0.000  0.00  0.00    -0.275 N 
ATOM     13  C   UNL     1      -1.429  -4.950   0.000  0.00  0.00    +0.353 A 
ATOM     14  O   UNL     1      -1.429  -4.125   0.000  0.00  0.00    -0.244 OA
ATOM     15  N   UNL     1      -2.143  -5.362   0.000  0.00  0.00    -0.152 NA
ATOM     16  C   UNL     1      -2.143  -6.188   0.000  0.00  0.00    +0.295 A 
ATOM     17  O   UNL     1      -2.858  -6.600   0.000  0.00  0.00    -0.264 OA
ATOM     18  C   UNL     1      -1.429  -6.600   0.000  0.00  0.00    +0.133 A 
ATOM     19 CL   UNL     1      -1.429  -7.425   0.000  0.00  0.00    -0.076 Cl
ATOM     20  C   UNL     1      -0.715  -6.188   0.000  0.00  0.00    +0.096 A 
ENDBRANCH  11  12
ENDBRANCH   1  11
TORSDOF 4
