REMARK  Name = 
REMARK  3 active torsions:
REMARK  status: ('A' for Active; 'I' for Inactive)
REMARK    1  A    between atoms: N_2  and  C_8
REMARK    2  A    between atoms: C_15  and  C_21
REMARK    3  A    between atoms: C_15  and  C_22
REMARK                            x       y       z     vdW  Elec       q    Type
REMARK                         _______ _______ _______ _____ _____    ______ ____
ROOT
ATOM      1  C   UNL     1       0.713  -2.888   0.000  0.00  0.00    +0.149 A 
ATOM      2  N   UNL     1      -0.071  -2.630   0.000  0.00  0.00    -0.219 NA
ATOM      3  C   UNL     1      -0.558  -3.301   0.000  0.00  0.00    +0.180 A 
ATOM      4  N   UNL     1      -0.071  -3.968   0.000  0.00  0.00    -0.296 N 
ATOM      5  C   UNL     1       0.713  -3.713   0.000  0.00  0.00    +0.167 A 
ATOM      6  N   UNL     1       1.425  -4.126   0.000  0.00  0.00    -0.205 NA
ATOM      7  C   UNL     1       2.142  -3.713   0.000  0.00  0.00    +0.201 A 
ATOM      8  N   UNL     1       2.142  -2.888   0.000  0.00  0.00    -0.207 NA
ATOM      9  C   UNL     1       1.425  -2.475   0.000  0.00  0.00    +0.155 A 
ATOM     10  N   UNL     1       1.425  -1.650   0.000  0.00  0.00    -0.284 N 
ATOM     11  C   UNL     1       0.713  -1.238   0.000  0.00  0.00    +0.180 C 
ATOM     12  C   UNL     1       0.713  -0.413   0.000  0.00  0.00    +0.262 C 
ATOM     13  N   UNL     1       1.425   0.000   0.000  0.00  0.00    -0.204 NA
ATOM     14  C   UNL     1       2.142  -0.413   0.000  0.00  0.00    +0.113 C 
ATOM     15  C   UNL     1       2.855   0.000   0.000  0.00  0.00    +0.023 C 
ATOM     16  C   UNL     1       3.572  -0.413   0.000  0.00  0.00    +0.002 C 
ATOM     17  C   UNL     1       3.572  -1.238   0.000  0.00  0.00    +0.002 C 
ATOM     18  C   UNL     1       2.855  -1.650   0.000  0.00  0.00    +0.022 C 
ATOM     19  O   UNL     1       0.000   0.000   0.000  0.00  0.00    -0.271 OA
ATOM     20  C   UNL     1       2.142  -1.238   0.000  0.00  0.00    +0.094 C 
ENDROOT
BRANCH   4  21
ATOM     21  C   UNL     1      -0.329  -4.751   0.000  0.00  0.00    +0.089 C 
ATOM     22  C   UNL     1       0.046  -5.484   0.000  0.00  0.00    +0.028 C 
ATOM     23  C   UNL     1      -0.688  -5.860   0.000  0.00  0.00    +0.065 C 
ATOM     24  C   UNL     1      -1.063  -5.126   0.000  0.00  0.00    +0.028 C 
BRANCH  23  25
ATOM     25  C   UNL     1      -1.421  -6.235   0.000  0.00  0.00    +0.185 C 
ATOM     26  O   UNL     1      -2.117  -5.785   0.000  0.00  0.00    -0.220 OA
ENDBRANCH  23  25
BRANCH  23  27
ATOM     27  C   UNL     1      -0.313  -6.597   0.000  0.00  0.00    +0.185 C 
ATOM     28  O   UNL     1       0.513  -6.639   0.000  0.00  0.00    -0.220 OA
ENDBRANCH  23  27
ENDBRANCH   4  21
TORSDOF 3
