REMARK  Name = 
REMARK  3 active torsions:
REMARK  status: ('A' for Active; 'I' for Inactive)
REMARK    1  A    between atoms: C_5  and  C_9
REMARK    2  A    between atoms: N_15  and  C_16
REMARK    3  A    between atoms: C_16  and  C_17
REMARK                            x       y       z     vdW  Elec       q    Type
REMARK                         _______ _______ _______ _____ _____    ______ ____
ROOT
ATOM      1  C   UNL     1       2.143   5.941   0.000  0.00  0.00    +0.247 C 
ATOM      2  N   UNL     1       1.429   5.529   0.000  0.00  0.00    -0.159 NA
ATOM      3  C   UNL     1       1.429   4.704   0.000  0.00  0.00    +0.175 A 
ATOM      4  N   UNL     1       0.761   4.219   0.000  0.00  0.00    -0.152 NA
ATOM      5  N   UNL     1       1.016   3.434   0.000  0.00  0.00    -0.239 N 
ATOM      6  C   UNL     1       1.841   3.434   0.000  0.00  0.00    +0.099 A 
ATOM      7  C   UNL     1       2.096   4.219   0.000  0.00  0.00    +0.058 A 
ATOM      8  O   UNL     1       2.858   5.529   0.000  0.00  0.00    -0.273 OA
ENDROOT
BRANCH   1  14
ATOM      9  C   UNL     1       2.143   9.241   0.000  0.00  0.00    +0.115 C 
ATOM     10  N   UNL     1       2.143   8.416   0.000  0.00  0.00    -0.278 N 
ATOM     11  C   UNL     1       1.429   8.004   0.000  0.00  0.00    +0.226 C 
ATOM     12  O   UNL     1       0.715   8.416   0.000  0.00  0.00    -0.275 OA
ATOM     13  C   UNL     1       1.429   7.179   0.000  0.00  0.00    +0.094 C 
ATOM     14  C   UNL     1       2.143   6.766   0.000  0.00  0.00    +0.089 C 
ATOM     15  C   UNL     1       2.858   7.179   0.000  0.00  0.00    +0.031 C 
ATOM     16  C   UNL     1       2.858   8.004   0.000  0.00  0.00    +0.094 C 
ENDBRANCH   1  14
BRANCH   5  17
ATOM     17  C   UNL     1       0.531   2.767   0.000  0.00  0.00    +0.215 C 
BRANCH  17  18
ATOM     18  C   UNL     1      -0.289   2.853   0.000  0.00  0.00    +0.286 C 
ATOM     19  N   UNL     1      -0.625   3.607   0.000  0.00  0.00    -0.086 NA
ATOM     20  O   UNL     1      -0.774   2.185   0.000  0.00  0.00    -0.269 OA
ENDBRANCH  17  18
ENDBRANCH   5  17
TORSDOF 3
