REMARK  Name = 
REMARK  5 active torsions:
REMARK  status: ('A' for Active; 'I' for Inactive)
REMARK    1  A    between atoms: N_1  and  C_3
REMARK    2  A    between atoms: N_4  and  C_16
REMARK    3  A    between atoms: C_7  and  C_13
REMARK    4  A    between atoms: C_15  and  C_16
REMARK    5  A    between atoms: C_15  and  C_23
REMARK                            x       y       z     vdW  Elec       q    Type
REMARK                         _______ _______ _______ _____ _____    ______ ____
ROOT
ATOM      1  C   UNL     1       3.276   1.238   0.000  0.00  0.00    +0.155 A 
ATOM      2  N   UNL     1       3.992   0.825   0.000  0.00  0.00    -0.207 NA
ATOM      3  C   UNL     1       3.992   0.000   0.000  0.00  0.00    +0.201 A 
ATOM      4  N   UNL     1       3.276  -0.413   0.000  0.00  0.00    -0.205 NA
ATOM      5  C   UNL     1       2.563   0.000   0.000  0.00  0.00    +0.167 A 
ATOM      6  N   UNL     1       1.779  -0.254   0.000  0.00  0.00    -0.294 N 
ATOM      7  C   UNL     1       1.292   0.413   0.000  0.00  0.00    +0.180 A 
ATOM      8  N   UNL     1       1.779   1.083   0.000  0.00  0.00    -0.219 NA
ATOM      9  C   UNL     1       2.563   0.825   0.000  0.00  0.00    +0.149 A 
ENDROOT
BRANCH   1  10
ATOM     10  N   UNL     1       3.276   2.063   0.000  0.00  0.00    -0.286 N 
ATOM     11  C   UNL     1       3.946   2.550   0.000  0.00  0.00    +0.093 C 
ATOM     12  C   UNL     1       3.688   3.334   0.000  0.00  0.00    +0.022 C 
ATOM     13  C   UNL     1       2.863   3.334   0.000  0.00  0.00    +0.029 C 
ATOM     14  C   UNL     1       2.609   4.117   0.000  0.00  0.00    +0.002 C 
ATOM     15  C   UNL     1       3.276   4.601   0.000  0.00  0.00    +0.000 C 
ATOM     16  C   UNL     1       3.946   4.117   0.000  0.00  0.00    +0.002 C 
ATOM     17  C   UNL     1       2.609   2.550   0.000  0.00  0.00    +0.154 C 
BRANCH  17  18
ATOM     18  C   UNL     1       1.825   2.296   0.000  0.00  0.00    +0.279 C 
ATOM     19  N   UNL     1       1.654   1.488   0.000  0.00  0.00    -0.086 NA
ATOM     20  O   UNL     1       1.213   2.846   0.000  0.00  0.00    -0.270 OA
ENDBRANCH  17  18
ENDBRANCH   1  10
BRANCH   6  21
ATOM     21  C   UNL     1       1.521  -1.038   0.000  0.00  0.00    +0.116 C 
BRANCH  21  22
ATOM     22  C   UNL     1       0.717  -1.208   0.000  0.00  0.00    +0.106 C 
ATOM     23  C   UNL     1       0.888  -2.017   0.000  0.00  0.00    +0.149 C 
ATOM     24  O   UNL     1       0.079  -2.188   0.000  0.00  0.00    -0.353 OA
ATOM     25  C   UNL     1      -0.092  -1.379   0.000  0.00  0.00    +0.149 C 
BRANCH  22  26
ATOM     26  C   UNL     1       0.546  -0.400   0.000  0.00  0.00    +0.189 C 
ATOM     27  O   UNL     1      -0.242  -0.146   0.000  0.00  0.00    -0.220 OA
ENDBRANCH  22  26
ENDBRANCH  21  22
ENDBRANCH   6  21
TORSDOF 5
