REMARK  Name = 
REMARK  5 active torsions:
REMARK  status: ('A' for Active; 'I' for Inactive)
REMARK    1  A    between atoms: C_2  and  C_3
REMARK    2  A    between atoms: C_3  and  O_4
REMARK    3  A    between atoms: O_4  and  C_5
REMARK    4  A    between atoms: N_9  and  C_11
REMARK    5  A    between atoms: C_14  and  C_18
REMARK                            x       y       z     vdW  Elec       q    Type
REMARK                         _______ _______ _______ _____ _____    ______ ____
ROOT
ATOM      1  C   UNL     1       0.715  -1.238   0.000  0.00  0.00    +0.135 C 
ATOM      2  C   UNL     1       0.000  -1.650   0.000  0.00  0.00    +0.122 C 
ATOM      3  N   UNL     1       0.000  -2.475   0.000  0.00  0.00    -0.290 N 
ATOM      4  C   UNL     1       0.715  -2.888   0.000  0.00  0.00    +0.092 C 
ATOM      5  C   UNL     1       1.429  -2.475   0.000  0.00  0.00    +0.024 C 
ATOM      6  C   UNL     1       1.429  -1.650   0.000  0.00  0.00    +0.033 C 
ENDROOT
BRANCH   3   7
ATOM      7  C   UNL     1      -0.715  -2.888   0.000  0.00  0.00    +0.142 A 
ATOM      8  C   UNL     1      -1.429  -2.475   0.000  0.00  0.00    +0.089 A 
ATOM      9 CL   UNL     1      -1.429  -1.650   0.000  0.00  0.00    -0.079 Cl
ATOM     10  C   UNL     1      -2.143  -2.888   0.000  0.00  0.00    +0.020 A 
ATOM     11  C   UNL     1      -2.143  -3.712   0.000  0.00  0.00    +0.077 A 
ATOM     12  C   UNL     1      -1.429  -4.125   0.000  0.00  0.00    +0.105 A 
ATOM     13  N   UNL     1      -0.715  -3.712   0.000  0.00  0.00    -0.228 NA
BRANCH  11  14
ATOM     14  C   UNL     1      -2.858  -4.125   0.000  0.00  0.00    +0.286 C 
ATOM     15  N   UNL     1      -3.572  -3.712   0.000  0.00  0.00    -0.084 NA
ATOM     16  O   UNL     1      -2.858  -4.950   0.000  0.00  0.00    -0.267 OA
ENDBRANCH  11  14
ENDBRANCH   3   7
BRANCH   1  17
ATOM     17  O   UNL     1       0.715  -0.412   0.000  0.00  0.00    -0.355 OA
BRANCH  17  18
ATOM     18  C   UNL     1       1.429   0.000   0.000  0.00  0.00    +0.142 C 
BRANCH  18  20
ATOM     19  C   UNL     1       2.143   1.238   0.000  0.00  0.00    +0.003 C 
ATOM     20  C   UNL     1       1.429   0.825   0.000  0.00  0.00    +0.032 C 
ENDBRANCH  18  20
ENDBRANCH  17  18
ENDBRANCH   1  17
TORSDOF 5
