REMARK  Name = 
REMARK  4 active torsions:
REMARK  status: ('A' for Active; 'I' for Inactive)
REMARK    1  A    between atoms: S_2  and  N_5
REMARK    2  A    between atoms: C_8  and  C_9
REMARK    3  A    between atoms: C_9  and  N_10
REMARK    4  A    between atoms: N_13  and  C_14
REMARK                            x       y       z     vdW  Elec       q    Type
REMARK                         _______ _______ _______ _____ _____    ______ ____
ROOT
ATOM      1  C   UNL     1       0.715  -2.888   0.000  0.00  0.00    +0.117 C 
ENDROOT
BRANCH   1   5
ATOM      2  N   UNL     1      -1.429  -1.650   0.000  0.00  0.00    -0.159 NA
ATOM      3  C   UNL     1      -1.429  -2.475   0.000  0.00  0.00    +0.095 C 
ATOM      4  C   UNL     1      -0.715  -2.888   0.000  0.00  0.00    +0.021 C 
ATOM      5  C   UNL     1       0.000  -2.475   0.000  0.00  0.00    +0.025 C 
ATOM      6  C   UNL     1       0.000  -1.650   0.000  0.00  0.00    +0.021 C 
ATOM      7  C   UNL     1      -0.715  -1.238   0.000  0.00  0.00    +0.095 C 
BRANCH   2   9
ATOM      8  C   UNL     1      -2.858  -0.825   0.000  0.00  0.00    +0.196 C 
ATOM      9  S   UNL     1      -2.143  -1.238   0.000  0.00  0.00    +0.046 S 
ATOM     10  O   UNL     1      -1.731  -0.523   0.000  0.00  0.00    -0.157 OA
ATOM     11  O   UNL     1      -2.556  -1.952   0.000  0.00  0.00    -0.157 OA
ENDBRANCH   2   9
ENDBRANCH   1   5
BRANCH   1  12
ATOM     12  N   UNL     1       1.429  -2.475   0.000  0.00  0.00    -0.187 NA
ATOM     13  C   UNL     1       2.143  -2.888   0.000  0.00  0.00    +0.343 C 
ATOM     14  N   UNL     1       2.858  -2.475   0.000  0.00  0.00    -0.161 NA
ATOM     15  O   UNL     1       2.143  -3.712   0.000  0.00  0.00    -0.249 OA
BRANCH  14  16
ATOM     16  C   UNL     1       3.572  -2.888   0.000  0.00  0.00    +0.078 A 
ATOM     17  C   UNL     1       3.572  -3.712   0.000  0.00  0.00    +0.037 A 
ATOM     18  C   UNL     1       4.287  -4.125   0.000  0.00  0.00    +0.100 A 
ATOM     19  N   UNL     1       5.001  -3.712   0.000  0.00  0.00    -0.242 NA
ATOM     20  C   UNL     1       5.001  -2.888   0.000  0.00  0.00    +0.100 A 
ATOM     21  C   UNL     1       4.287  -2.475   0.000  0.00  0.00    +0.037 A 
ENDBRANCH  14  16
ENDBRANCH   1  12
TORSDOF 4
