REMARK  Name = 
REMARK  1 active torsions:
REMARK  status: ('A' for Active; 'I' for Inactive)
REMARK    1  A    between atoms: C_4  and  C_7
REMARK                            x       y       z     vdW  Elec       q    Type
REMARK                         _______ _______ _______ _____ _____    ______ ____
ROOT
ATOM      1  C   UNL     1       1.061  -2.885   0.000  0.00  0.00    +0.172 C 
ATOM      2  C   UNL     1       1.397  -3.639   0.000  0.00  0.00    +0.271 C 
ATOM      3  O   UNL     1       0.984  -4.353   0.000  0.00  0.00    -0.271 OA
ATOM      4  N   UNL     1       2.217  -3.552   0.000  0.00  0.00    -0.125 NA
ATOM      5  C   UNL     1       2.389  -2.745   0.000  0.00  0.00    +0.347 C 
ATOM      6  O   UNL     1       3.142  -2.410   0.000  0.00  0.00    -0.249 OA
ATOM      7  N   UNL     1       1.674  -2.333   0.000  0.00  0.00    -0.177 NA
ATOM      8  C   UNL     1       0.347  -3.297   0.000  0.00  0.00    +0.036 C 
ENDROOT
BRANCH   1  13
ATOM      9  C   UNL     1       0.164  -0.123   0.000  0.00  0.00    +0.154 C 
ATOM     10  N   UNL     1       0.164  -0.948   0.000  0.00  0.00    -0.248 N 
ATOM     11  N   UNL     1      -0.504  -1.433   0.000  0.00  0.00    -0.168 NA
ATOM     12  C   UNL     1      -0.249  -2.217   0.000  0.00  0.00    +0.119 A 
ATOM     13  C   UNL     1       0.576  -2.217   0.000  0.00  0.00    +0.044 A 
ATOM     14  C   UNL     1       0.831  -1.433   0.000  0.00  0.00    +0.094 A 
ENDBRANCH   1  13
TORSDOF 1
