REMARK  Name = 
REMARK  5 active torsions:
REMARK  status: ('A' for Active; 'I' for Inactive)
REMARK    1  A    between atoms: O_2  and  C_3
REMARK    2  A    between atoms: C_3  and  C_4
REMARK    3  A    between atoms: N_6  and  C_7
REMARK    4  A    between atoms: C_10  and  O_11
REMARK    5  A    between atoms: C_14  and  N_15
REMARK                            x       y       z     vdW  Elec       q    Type
REMARK                         _______ _______ _______ _____ _____    ______ ____
ROOT
ATOM      1  C   UNL     1       4.287  -1.650   0.000  0.00  0.00    +0.105 A 
ATOM      2  C   UNL     1       5.001  -1.238   0.000  0.00  0.00    +0.150 A 
ATOM      3  N   UNL     1       5.001  -0.412   0.000  0.00  0.00    -0.195 NA
ATOM      4  C   UNL     1       4.287   0.000   0.000  0.00  0.00    +0.226 A 
ATOM      5  C   UNL     1       3.572  -0.412   0.000  0.00  0.00    +0.059 A 
ATOM      6  C   UNL     1       3.572  -1.238   0.000  0.00  0.00    +0.024 A 
ENDROOT
BRANCH   2   7
ATOM      7  N   UNL     1       5.716  -1.650   0.000  0.00  0.00    -0.289 N 
ATOM      8  C   UNL     1       5.716  -2.475   0.000  0.00  0.00    +0.114 C 
ATOM      9  C   UNL     1       6.430  -2.888   0.000  0.00  0.00    +0.115 C 
ATOM     10  N   UNL     1       7.145  -2.475   0.000  0.00  0.00    -0.276 N 
ATOM     11  C   UNL     1       7.859  -2.888   0.000  0.00  0.00    +0.226 C 
ATOM     12  C   UNL     1       7.859  -3.712   0.000  0.00  0.00    +0.095 C 
ATOM     13  O   UNL     1       8.574  -2.475   0.000  0.00  0.00    -0.275 OA
ATOM     14  C   UNL     1       7.145  -1.650   0.000  0.00  0.00    +0.115 C 
ATOM     15  C   UNL     1       6.430  -1.238   0.000  0.00  0.00    +0.114 C 
ENDBRANCH   2   7
BRANCH   1  17
ATOM     16  C   UNL     1       3.572  -2.888   0.000  0.00  0.00    +0.276 C 
ATOM     17  N   UNL     1       4.287  -2.475   0.000  0.00  0.00    -0.174 NA
ATOM     18  O   UNL     1       3.572  -3.712   0.000  0.00  0.00    -0.270 OA
BRANCH  16  19
ATOM     19  C   UNL     1       2.858  -2.475   0.000  0.00  0.00    +0.229 C 
BRANCH  19  21
ATOM     20  C   UNL     1       2.143  -1.238   0.000  0.00  0.00    +0.175 C 
ATOM     21  O   UNL     1       2.858  -1.650   0.000  0.00  0.00    -0.342 OA
ENDBRANCH  19  21
ENDBRANCH  16  19
ENDBRANCH   1  17
BRANCH   4  22
ATOM     22  O   UNL     1       4.287   0.825   0.000  0.00  0.00    -0.456 OA
ATOM     23  C   UNL     1       5.001   1.238   0.000  0.00  0.00    +0.254 C 
ENDBRANCH   4  22
TORSDOF 5
