REMARK  Name = 
REMARK  3 active torsions:
REMARK  status: ('A' for Active; 'I' for Inactive)
REMARK    1  A    between atoms: C_2  and  N_9
REMARK    2  A    between atoms: C_10  and  C_12
REMARK    3  A    between atoms: C_12  and  N_13
REMARK                            x       y       z     vdW  Elec       q    Type
REMARK                         _______ _______ _______ _____ _____    ______ ____
ROOT
ATOM      1  N   UNL     1       4.068  -0.501   0.000  0.00  0.00    -0.205 NA
ATOM      2  C   UNL     1       4.875  -0.673   0.000  0.00  0.00    +0.264 C 
ATOM      3  O   UNL     1       5.130  -1.458   0.000  0.00  0.00    -0.271 OA
ENDROOT
BRANCH   1   5
ATOM      4  C   UNL     1       2.964  -0.501   0.000  0.00  0.00    +0.024 C 
ATOM      5  C   UNL     1       3.516  -1.115   0.000  0.00  0.00    +0.102 C 
ATOM      6  C   UNL     1       2.849  -1.599   0.000  0.00  0.00    +0.171 C 
ATOM      7  S   UNL     1       3.104  -2.384   0.000  0.00  0.00    -0.008 S 
ATOM      8  O   UNL     1       2.297  -2.556   0.000  0.00  0.00    -0.173 OA
ATOM      9  O   UNL     1       3.190  -3.205   0.000  0.00  0.00    -0.173 OA
ATOM     10  C   UNL     1       3.929  -2.384   0.000  0.00  0.00    +0.153 C 
ATOM     11  C   UNL     1       4.184  -1.599   0.000  0.00  0.00    +0.047 C 
ENDBRANCH   1   5
BRANCH   2  12
ATOM     12  C   UNL     1       5.427  -0.060   0.000  0.00  0.00    +0.195 C 
BRANCH  12  13
ATOM     13  N   UNL     1       6.234  -0.231   0.000  0.00  0.00    -0.299 N 
ATOM     14  C   UNL     1       6.570  -0.985   0.000  0.00  0.00    +0.179 A 
ATOM     15  N   UNL     1       7.390  -0.899   0.000  0.00  0.00    -0.222 NA
ATOM     16  C   UNL     1       7.562  -0.092   0.000  0.00  0.00    +0.119 A 
ATOM     17  C   UNL     1       6.847   0.321   0.000  0.00  0.00    +0.098 A 
ENDBRANCH  12  13
ENDBRANCH   2  12
TORSDOF 3
