REMARK  Name = 
REMARK  5 active torsions:
REMARK  status: ('A' for Active; 'I' for Inactive)
REMARK    1  A    between atoms: N_1  and  C_11
REMARK    2  A    between atoms: N_2  and  C_13
REMARK    3  A    between atoms: C_8  and  C_14
REMARK    4  A    between atoms: C_9  and  C_11
REMARK    5  A    between atoms: C_20  and  O_21
REMARK                            x       y       z     vdW  Elec       q    Type
REMARK                         _______ _______ _______ _____ _____    ______ ____
ROOT
ATOM      1  N   UNL     1      -1.171  -3.987   0.000  0.00  0.00    -0.237 N 
ATOM      2  C   UNL     1      -0.350  -4.075   0.000  0.00  0.00    +0.294 A 
ATOM      3  O   UNL     1       0.133  -3.408   0.000  0.00  0.00    -0.264 OA
ATOM      4  C   UNL     1      -0.017  -4.829   0.000  0.00  0.00    +0.213 A 
ATOM      5  C   UNL     1      -0.500  -5.496   0.000  0.00  0.00    +0.116 A 
ATOM      6  N   UNL     1      -1.321  -5.408   0.000  0.00  0.00    -0.255 N 
ATOM      7  F   UNL     1       0.804  -4.912   0.000  0.00  0.00    -0.198 F 
ATOM      8  C   UNL     1      -1.658  -4.654   0.000  0.00  0.00    +0.336 A 
ATOM      9  O   UNL     1      -2.475  -4.571   0.000  0.00  0.00    -0.246 OA
ENDROOT
BRANCH   6  10
ATOM     10  C   UNL     1      -1.804  -6.075   0.000  0.00  0.00    +0.208 C 
ATOM     11  C   UNL     1      -1.550  -6.862   0.000  0.00  0.00    +0.057 C 
ATOM     12  C   UNL     1      -2.217  -7.346   0.000  0.00  0.00    +0.037 C 
ATOM     13  C   UNL     1      -2.888  -6.862   0.000  0.00  0.00    +0.144 C 
ATOM     14  O   UNL     1      -2.629  -6.075   0.000  0.00  0.00    -0.335 OA
ENDBRANCH   6  10
BRANCH   1  15
ATOM     15  C   UNL     1      -1.508  -3.233   0.000  0.00  0.00    +0.201 C 
BRANCH  15  16
ATOM     16  C   UNL     1      -1.021  -2.567   0.000  0.00  0.00    +0.260 A 
ATOM     17  O   UNL     1      -0.196  -2.567   0.000  0.00  0.00    -0.335 OA
ATOM     18  N   UNL     1       0.058  -1.783   0.000  0.00  0.00    -0.056 NA
ATOM     19  C   UNL     1      -0.608  -1.296   0.000  0.00  0.00    +0.203 A 
ATOM     20  N   UNL     1      -1.279  -1.783   0.000  0.00  0.00    -0.189 NA
BRANCH  19  21
ATOM     21  C   UNL     1      -0.608  -0.471   0.000  0.00  0.00    +0.042 A 
ATOM     22  C   UNL     1       0.104  -0.058   0.000  0.00  0.00    +0.003 A 
ATOM     23  C   UNL     1       0.104   0.767   0.000  0.00  0.00    +0.003 A 
ATOM     24  C   UNL     1      -0.608   1.179   0.000  0.00  0.00    +0.037 A 
ATOM     25  C   UNL     1      -1.325   0.767   0.000  0.00  0.00    +0.139 A 
ATOM     26  C   UNL     1      -1.325  -0.058   0.000  0.00  0.00    +0.040 A 
BRANCH  25  27
ATOM     27  O   UNL     1      -2.038   1.179   0.000  0.00  0.00    -0.471 OA
ATOM     28  C   UNL     1      -2.038   2.004   0.000  0.00  0.00    +0.252 C 
ENDBRANCH  25  27
ENDBRANCH  19  21
ENDBRANCH  15  16
ENDBRANCH   1  15
TORSDOF 5
