REMARK  Name = 
REMARK  3 active torsions:
REMARK  status: ('A' for Active; 'I' for Inactive)
REMARK    1  A    between atoms: N_4  and  C_12
REMARK    2  A    between atoms: C_10  and  C_12
REMARK    3  A    between atoms: C_13  and  C_24
REMARK                            x       y       z     vdW  Elec       q    Type
REMARK                         _______ _______ _______ _____ _____    ______ ____
ROOT
ATOM      1  C   UNL     1      -1.729   0.362   0.000  0.00  0.00    +0.149 A 
ATOM      2  N   UNL     1      -1.475   1.150   0.000  0.00  0.00    -0.219 NA
ATOM      3  C   UNL     1      -2.142   1.633   0.000  0.00  0.00    +0.180 A 
ATOM      4  N   UNL     1      -2.808   1.150   0.000  0.00  0.00    -0.292 N 
ATOM      5  C   UNL     1      -2.554   0.362   0.000  0.00  0.00    +0.167 A 
ATOM      6  N   UNL     1      -2.967  -0.350   0.000  0.00  0.00    -0.205 NA
ATOM      7  C   UNL     1      -2.554  -1.062   0.000  0.00  0.00    +0.201 A 
ATOM      8  N   UNL     1      -1.729  -1.062   0.000  0.00  0.00    -0.207 NA
ATOM      9  C   UNL     1      -1.317  -0.350   0.000  0.00  0.00    +0.154 A 
ATOM     10  N   UNL     1      -0.492  -0.350   0.000  0.00  0.00    -0.295 N 
ATOM     11  C   UNL     1      -0.283  -1.175   0.000  0.00  0.00    +0.077 C 
ATOM     12  C   UNL     1      -1.000  -0.762   0.000  0.00  0.00    +0.022 C 
ATOM     13  C   UNL     1      -1.000   0.062   0.000  0.00  0.00    +0.021 C 
ATOM     14  C   UNL     1       0.429  -0.762   0.000  0.00  0.00    +0.053 C 
ATOM     15  C   UNL     1       0.429   0.062   0.000  0.00  0.00    +0.024 C 
ATOM     16  C   UNL     1      -0.283   0.475   0.000  0.00  0.00    +0.074 C 
ENDROOT
BRANCH  14  17
ATOM     17  C   UNL     1       1.146  -1.175   0.000  0.00  0.00    +0.184 C 
ATOM     18  O   UNL     1       1.858  -0.762   0.000  0.00  0.00    -0.220 OA
ENDBRANCH  14  17
BRANCH   4  19
ATOM     19  C   UNL     1      -3.592   1.404   0.000  0.00  0.00    +0.142 C 
BRANCH  19  20
ATOM     20  C   UNL     1      -3.767   2.212   0.000  0.00  0.00    +0.174 C 
ATOM     21  O   UNL     1      -2.987   1.942   0.000  0.00  0.00    -0.221 OA
ATOM     22  C   UNL     1      -3.583   3.017   0.000  0.00  0.00    +0.067 C 
ATOM     23  C   UNL     1      -4.296   3.438   0.000  0.00  0.00    +0.145 C 
ATOM     24  O   UNL     1      -4.912   2.892   0.000  0.00  0.00    -0.354 OA
ATOM     25  C   UNL     1      -4.588   2.133   0.000  0.00  0.00    +0.145 C 
ATOM     26  C   UNL     1      -5.004   1.425   0.000  0.00  0.00    +0.035 C 
ENDBRANCH  19  20
ENDBRANCH   4  19
TORSDOF 3
