REMARK  Name = 
REMARK  4 active torsions:
REMARK  status: ('A' for Active; 'I' for Inactive)
REMARK    1  A    between atoms: C_4  and  C_5
REMARK    2  A    between atoms: C_5  and  C_6
REMARK    3  A    between atoms: C_6  and  N_7
REMARK    4  A    between atoms: N_10  and  C_11
REMARK                            x       y       z     vdW  Elec       q    Type
REMARK                         _______ _______ _______ _____ _____    ______ ____
ROOT
ATOM      1  N   UNL     1       3.572  -3.712   0.000  0.00  0.00    -0.187 NA
ATOM      2  C   UNL     1       4.287  -4.125   0.000  0.00  0.00    +0.339 C 
ATOM      3  N   UNL     1       5.001  -3.712   0.000  0.00  0.00    -0.189 NA
ATOM      4  O   UNL     1       4.287  -4.950   0.000  0.00  0.00    -0.249 OA
ENDROOT
BRANCH   3   5
ATOM      5  C   UNL     1       5.716  -4.125   0.000  0.00  0.00    +0.097 C 
ATOM      6  C   UNL     1       5.716  -4.950   0.000  0.00  0.00    +0.022 C 
ATOM      7  C   UNL     1       6.430  -5.362   0.000  0.00  0.00    +0.002 C 
ATOM      8  C   UNL     1       7.145  -4.950   0.000  0.00  0.00    +0.000 C 
ATOM      9  C   UNL     1       7.145  -4.125   0.000  0.00  0.00    +0.002 C 
ATOM     10  C   UNL     1       6.430  -3.712   0.000  0.00  0.00    +0.022 C 
ENDBRANCH   3   5
BRANCH   1  11
ATOM     11  C   UNL     1       2.858  -4.125   0.000  0.00  0.00    +0.123 C 
BRANCH  11  12
ATOM     12  C   UNL     1       2.143  -3.712   0.000  0.00  0.00    +0.072 C 
BRANCH  12  18
ATOM     13  C   UNL     1      -0.697  -4.316   0.000  0.00  0.00    +0.095 C 
ATOM     14  C   UNL     1       0.123  -4.402   0.000  0.00  0.00    +0.205 A 
ATOM     15  O   UNL     1       0.536  -5.117   0.000  0.00  0.00    -0.443 OA
ATOM     16  C   UNL     1       1.343  -4.946   0.000  0.00  0.00    +0.138 A 
ATOM     17  C   UNL     1       1.956  -5.497   0.000  0.00  0.00    +0.074 C 
ATOM     18  C   UNL     1       1.429  -4.125   0.000  0.00  0.00    +0.094 A 
ATOM     19  N   UNL     1       0.675  -3.789   0.000  0.00  0.00    -0.217 NA
ENDBRANCH  12  18
ENDBRANCH  11  12
ENDBRANCH   1  11
TORSDOF 4
