REMARK  Name = 
REMARK  4 active torsions:
REMARK  status: ('A' for Active; 'I' for Inactive)
REMARK    1  A    between atoms: N_1  and  C_8
REMARK    2  A    between atoms: N_2  and  C_7
REMARK    3  A    between atoms: C_8  and  C_9
REMARK    4  A    between atoms: N_12  and  C_16
REMARK                            x       y       z     vdW  Elec       q    Type
REMARK                         _______ _______ _______ _____ _____    ______ ____
ROOT
ATOM      1  N   UNL     1       2.142  -2.888   0.000  0.00  0.00    -0.238 N 
ATOM      2  C   UNL     1       2.854  -2.475   0.000  0.00  0.00    +0.294 A 
ATOM      3  O   UNL     1       2.854  -1.650   0.000  0.00  0.00    -0.264 OA
ATOM      4  C   UNL     1       3.571  -2.888   0.000  0.00  0.00    +0.213 A 
ATOM      5  F   UNL     1       4.283  -2.475   0.000  0.00  0.00    -0.198 F 
ATOM      6  C   UNL     1       3.571  -3.712   0.000  0.00  0.00    +0.116 A 
ATOM      7  N   UNL     1       2.854  -4.125   0.000  0.00  0.00    -0.255 N 
ATOM      8  C   UNL     1       2.142  -3.712   0.000  0.00  0.00    +0.336 A 
ATOM      9  O   UNL     1       1.425  -4.125   0.000  0.00  0.00    -0.246 OA
ENDROOT
BRANCH   7  10
ATOM     10  C   UNL     1       2.854  -4.950   0.000  0.00  0.00    +0.208 C 
ATOM     11  C   UNL     1       3.525  -5.433   0.000  0.00  0.00    +0.057 C 
ATOM     12  C   UNL     1       3.267  -6.217   0.000  0.00  0.00    +0.037 C 
ATOM     13  C   UNL     1       2.442  -6.217   0.000  0.00  0.00    +0.144 C 
ATOM     14  O   UNL     1       2.188  -5.433   0.000  0.00  0.00    -0.335 OA
ENDBRANCH   7  10
BRANCH   1  15
ATOM     15  C   UNL     1       1.425  -2.475   0.000  0.00  0.00    +0.201 C 
BRANCH  15  16
ATOM     16  C   UNL     1       1.425  -1.650   0.000  0.00  0.00    +0.269 C 
ATOM     17  O   UNL     1       2.142  -1.238   0.000  0.00  0.00    -0.271 OA
ATOM     18  N   UNL     1       0.713  -1.238   0.000  0.00  0.00    -0.178 NA
BRANCH  18  19
ATOM     19  C   UNL     1       0.713  -0.412   0.000  0.00  0.00    +0.073 A 
ATOM     20  C   UNL     1       1.425   0.000   0.000  0.00  0.00    +0.017 A 
ATOM     21  C   UNL     1       1.425   0.825   0.000  0.00  0.00    +0.001 A 
ATOM     22  C   UNL     1       0.713   1.238   0.000  0.00  0.00    +0.000 A 
ATOM     23  C   UNL     1       0.000   0.825   0.000  0.00  0.00    +0.001 A 
ATOM     24  C   UNL     1       0.000   0.000   0.000  0.00  0.00    +0.017 A 
ENDBRANCH  18  19
ENDBRANCH  15  16
ENDBRANCH   1  15
TORSDOF 4
