REMARK  Name = 
REMARK  3 active torsions:
REMARK  status: ('A' for Active; 'I' for Inactive)
REMARK    1  A    between atoms: C_2  and  C_3
REMARK    2  A    between atoms: C_3  and  C_4
REMARK    3  A    between atoms: C_4  and  N_5
REMARK                            x       y       z     vdW  Elec       q    Type
REMARK                         _______ _______ _______ _____ _____    ______ ____
ROOT
ATOM      1  N   UNL     1       1.429  -2.475   0.000  0.00  0.00    -0.187 NA
ATOM      2  C   UNL     1       2.143  -2.888   0.000  0.00  0.00    +0.345 C 
ATOM      3  N   UNL     1       2.858  -2.475   0.000  0.00  0.00    -0.137 NA
ATOM      4  C   UNL     1       3.572  -2.888   0.000  0.00  0.00    +0.213 A 
ATOM      5  C   UNL     1       3.572  -3.712   0.000  0.00  0.00    +0.295 A 
ATOM      6  O   UNL     1       2.858  -4.125   0.000  0.00  0.00    -0.264 OA
ATOM      7  N   UNL     1       4.287  -4.125   0.000  0.00  0.00    -0.288 N 
ATOM      8  C   UNL     1       4.287  -4.950   0.000  0.00  0.00    +0.134 C 
ATOM      9  C   UNL     1       5.001  -3.712   0.000  0.00  0.00    +0.099 A 
ATOM     10  C   UNL     1       5.001  -2.888   0.000  0.00  0.00    +0.119 A 
ATOM     11  N   UNL     1       4.287  -2.475   0.000  0.00  0.00    -0.221 NA
ATOM     12  O   UNL     1       2.143  -3.712   0.000  0.00  0.00    -0.249 OA
ENDROOT
BRANCH   1  13
ATOM     13  C   UNL     1       0.715  -2.888   0.000  0.00  0.00    +0.117 C 
BRANCH  13  14
ATOM     14  C   UNL     1       0.000  -2.475   0.000  0.00  0.00    +0.020 C 
ATOM     15  C   UNL     1       0.282  -1.700   0.000  0.00  0.00    +0.002 C 
ATOM     16  C   UNL     1      -0.530  -1.843   0.000  0.00  0.00    +0.002 C 
BRANCH  14  18
ATOM     17  C   UNL     1      -1.343  -2.964   0.000  0.00  0.00    +0.000 C 
ATOM     18  C   UNL     1      -0.530  -3.107   0.000  0.00  0.00    +0.002 C 
ENDBRANCH  14  18
ENDBRANCH  13  14
ENDBRANCH   1  13
TORSDOF 3
