REMARK  Name = 
REMARK  5 active torsions:
REMARK  status: ('A' for Active; 'I' for Inactive)
REMARK    1  A    between atoms: C_2  and  N_3
REMARK    2  A    between atoms: C_2  and  C_19
REMARK    3  A    between atoms: N_6  and  C_7
REMARK    4  A    between atoms: C_12  and  N_13
REMARK    5  A    between atoms: N_21  and  C_22
REMARK                            x       y       z     vdW  Elec       q    Type
REMARK                         _______ _______ _______ _____ _____    ______ ____
ROOT
ATOM      1  N   UNL     1       3.572  -1.238   0.000  0.00  0.00    -0.179 NA
ATOM      2  C   UNL     1       4.287  -0.825   0.000  0.00  0.00    +0.344 C 
ATOM      3  N   UNL     1       5.001  -1.238   0.000  0.00  0.00    -0.158 NA
ATOM      4  O   UNL     1       4.287   0.000   0.000  0.00  0.00    -0.249 OA
ENDROOT
BRANCH   3   5
ATOM      5  C   UNL     1       5.716  -0.825   0.000  0.00  0.00    +0.106 A 
ATOM      6  C   UNL     1       6.430  -1.238   0.000  0.00  0.00    +0.147 A 
ATOM      7  N   UNL     1       7.145  -0.825   0.000  0.00  0.00    -0.228 NA
ATOM      8  C   UNL     1       7.145   0.000   0.000  0.00  0.00    +0.100 A 
ATOM      9  C   UNL     1       6.430   0.412   0.000  0.00  0.00    +0.022 A 
ATOM     10  C   UNL     1       5.716   0.000   0.000  0.00  0.00    +0.021 A 
BRANCH   6  11
ATOM     11  N   UNL     1       6.430  -2.062   0.000  0.00  0.00    -0.292 N 
ATOM     12  C   UNL     1       5.716  -2.475   0.000  0.00  0.00    +0.092 C 
ATOM     13  C   UNL     1       5.716  -3.300   0.000  0.00  0.00    +0.022 C 
ATOM     14  C   UNL     1       6.430  -3.712   0.000  0.00  0.00    +0.004 C 
ATOM     15  C   UNL     1       7.145  -3.300   0.000  0.00  0.00    +0.022 C 
ATOM     16  C   UNL     1       7.145  -2.475   0.000  0.00  0.00    +0.092 C 
ENDBRANCH   6  11
ENDBRANCH   3   5
BRANCH   1  18
ATOM     17  C   UNL     1       2.858   0.000   0.000  0.00  0.00    +0.033 C 
ATOM     18  C   UNL     1       2.858  -0.825   0.000  0.00  0.00    +0.174 C 
BRANCH  18  19
ATOM     19  C   UNL     1       2.143  -1.238   0.000  0.00  0.00    +0.261 C 
ATOM     20  N   UNL     1       1.429  -0.825   0.000  0.00  0.00    -0.207 NA
ATOM     21  O   UNL     1       2.143  -2.062   0.000  0.00  0.00    -0.271 OA
BRANCH  20  22
ATOM     22  C   UNL     1       0.715  -1.238   0.000  0.00  0.00    +0.079 C 
ATOM     23  C   UNL     1       1.127  -1.952   0.000  0.00  0.00    +0.022 C 
ATOM     24  C   UNL     1       0.302  -0.523   0.000  0.00  0.00    +0.022 C 
ATOM     25  C   UNL     1       0.000  -1.650   0.000  0.00  0.00    +0.022 C 
ENDBRANCH  20  22
ENDBRANCH  18  19
ENDBRANCH   1  18
TORSDOF 5
