REMARK  Name = 
REMARK  3 active torsions:
REMARK  status: ('A' for Active; 'I' for Inactive)
REMARK    1  A    between atoms: C_4  and  C_5
REMARK    2  A    between atoms: C_5  and  C_6
REMARK    3  A    between atoms: C_6  and  N_7
REMARK                            x       y       z     vdW  Elec       q    Type
REMARK                         _______ _______ _______ _____ _____    ______ ____
ROOT
ATOM      1  N   UNL     1       2.143  -2.888   0.000  0.00  0.00    -0.188 NA
ATOM      2  C   UNL     1       2.858  -2.475   0.000  0.00  0.00    +0.323 C 
ATOM      3  N   UNL     1       3.572  -2.888   0.000  0.00  0.00    -0.263 N 
ATOM      4  C   UNL     1       3.572  -3.712   0.000  0.00  0.00    +0.098 C 
ATOM      5  C   UNL     1       4.287  -4.125   0.000  0.00  0.00    +0.054 C 
ATOM      6  C   UNL     1       5.001  -3.712   0.000  0.00  0.00    +0.155 C 
ATOM      7  O   UNL     1       5.716  -4.125   0.000  0.00  0.00    -0.223 OA
ATOM      8  C   UNL     1       5.001  -2.888   0.000  0.00  0.00    +0.054 C 
ATOM      9  C   UNL     1       4.287  -2.475   0.000  0.00  0.00    +0.098 C 
ATOM     10  O   UNL     1       2.858  -1.650   0.000  0.00  0.00    -0.251 OA
ENDROOT
BRANCH   1  11
ATOM     11  C   UNL     1       1.429  -2.475   0.000  0.00  0.00    +0.123 C 
BRANCH  11  12
ATOM     12  C   UNL     1       0.715  -2.888   0.000  0.00  0.00    +0.070 C 
BRANCH  12  17
ATOM     13  C   UNL     1      -1.229  -0.729   0.000  0.00  0.00    +0.059 C 
ATOM     14  C   UNL     1      -0.893  -1.483   0.000  0.00  0.00    +0.088 A 
ATOM     15  S   UNL     1      -1.306  -2.197   0.000  0.00  0.00    -0.071 S 
ATOM     16  C   UNL     1      -0.754  -2.811   0.000  0.00  0.00    +0.051 A 
ATOM     17  C   UNL     1       0.000  -2.475   0.000  0.00  0.00    +0.067 A 
ATOM     18  N   UNL     1      -0.086  -1.655   0.000  0.00  0.00    -0.247 NA
ENDBRANCH  12  17
ENDBRANCH  11  12
ENDBRANCH   1  11
TORSDOF 3
