REMARK  Name = 
REMARK  2 active torsions:
REMARK  status: ('A' for Active; 'I' for Inactive)
REMARK    1  A    between atoms: N_9  and  C_10
REMARK    2  A    between atoms: C_10  and  C_11
REMARK                            x       y       z     vdW  Elec       q    Type
REMARK                         _______ _______ _______ _____ _____    ______ ____
ROOT
ATOM      1  C   UNL     1      -2.126  -2.284   0.000  0.00  0.00    +0.061 C 
ATOM      2  C   UNL     1      -1.306  -2.197   0.000  0.00  0.00    +0.113 A 
ATOM      3  S   UNL     1      -0.754  -2.811   0.000  0.00  0.00    -0.033 S 
ATOM      4  C   UNL     1       0.000  -2.475   0.000  0.00  0.00    +0.209 A 
ATOM      5  N   UNL     1       0.715  -2.888   0.000  0.00  0.00    -0.134 NA
ATOM      6  C   UNL     1       1.429  -2.475   0.000  0.00  0.00    +0.345 C 
ATOM      7  N   UNL     1       2.143  -2.888   0.000  0.00  0.00    -0.184 NA
ATOM      8  O   UNL     1       1.429  -1.650   0.000  0.00  0.00    -0.249 OA
ATOM      9  N   UNL     1      -0.086  -1.655   0.000  0.00  0.00    -0.124 NA
ATOM     10  N   UNL     1      -0.893  -1.483   0.000  0.00  0.00    -0.144 NA
ENDROOT
BRANCH   7  11
ATOM     11  C   UNL     1       2.858  -2.475   0.000  0.00  0.00    +0.148 C 
BRANCH  11  12
ATOM     12  C   UNL     1       3.572  -2.888   0.000  0.00  0.00    +0.153 C 
ATOM     13  O   UNL     1       3.572  -3.712   0.000  0.00  0.00    -0.352 OA
ATOM     14  C   UNL     1       4.287  -4.125   0.000  0.00  0.00    +0.158 C 
ATOM     15  C   UNL     1       5.001  -3.712   0.000  0.00  0.00    +0.087 C 
ATOM     16  N   UNL     1       5.001  -2.888   0.000  0.00  0.00    -0.270 NA
ATOM     17  C   UNL     1       5.786  -2.633   0.000  0.00  0.00    +0.072 C 
ATOM     18  C   UNL     1       6.271  -3.300   0.000  0.00  0.00    +0.019 C 
ATOM     19  C   UNL     1       5.786  -3.967   0.000  0.00  0.00    +0.020 C 
ATOM     20  C   UNL     1       4.287  -2.475   0.000  0.00  0.00    +0.104 C 
ENDBRANCH  11  12
ENDBRANCH   7  11
TORSDOF 2
