REMARK  Name = 
REMARK  5 active torsions:
REMARK  status: ('A' for Active; 'I' for Inactive)
REMARK    1  A    between atoms: O_2  and  C_3
REMARK    2  A    between atoms: C_3  and  C_4
REMARK    3  A    between atoms: C_4  and  N_5
REMARK    4  A    between atoms: C_6  and  C_7
REMARK    5  A    between atoms: C_7  and  N_8
REMARK                            x       y       z     vdW  Elec       q    Type
REMARK                         _______ _______ _______ _____ _____    ______ ____
ROOT
ATOM      1  N   UNL     1       1.139  -1.365   0.000  0.00  0.00    -0.306 N 
ATOM      2  C   UNL     1       1.923  -1.110   0.000  0.00  0.00    +0.154 A 
ATOM      3  C   UNL     1       1.923  -0.285   0.000  0.00  0.00    +0.169 A 
ATOM      4  N   UNL     1       2.638   0.127   0.000  0.00  0.00    -0.261 N 
ATOM      5  C   UNL     1       3.352  -0.285   0.000  0.00  0.00    +0.354 A 
ATOM      6  N   UNL     1       3.352  -1.110   0.000  0.00  0.00    -0.152 NA
ATOM      7  O   UNL     1       4.067   0.127   0.000  0.00  0.00    -0.244 OA
ATOM      8  C   UNL     1       2.638   0.952   0.000  0.00  0.00    +0.137 C 
ATOM      9  N   UNL     1       1.139  -0.030   0.000  0.00  0.00    -0.212 NA
ATOM     10  C   UNL     1       2.638  -1.523   0.000  0.00  0.00    +0.302 A 
ATOM     11  O   UNL     1       2.638  -2.348   0.000  0.00  0.00    -0.263 OA
ATOM     12  C   UNL     1       0.654  -0.698   0.000  0.00  0.00    +0.139 A 
ENDROOT
BRANCH   1  13
ATOM     13  C   UNL     1       0.884  -2.150   0.000  0.00  0.00    +0.139 C 
BRANCH  13  14
ATOM     14  C   UNL     1       1.436  -2.763   0.000  0.00  0.00    +0.167 C 
BRANCH  14  16
ATOM     15  C   UNL     1       1.733  -4.161   0.000  0.00  0.00    +0.174 C 
ATOM     16  O   UNL     1       1.181  -3.548   0.000  0.00  0.00    -0.349 OA
ENDBRANCH  14  16
ENDBRANCH  13  14
ENDBRANCH   1  13
BRANCH  12  17
ATOM     17  C   UNL     1      -0.171  -0.698   0.000  0.00  0.00    +0.137 C 
BRANCH  17  18
ATOM     18  N   UNL     1      -0.584   0.017   0.000  0.00  0.00    -0.262 NA
ATOM     19  C   UNL     1      -0.171   0.731   0.000  0.00  0.00    +0.105 C 
ATOM     20  C   UNL     1      -0.584   1.446   0.000  0.00  0.00    +0.159 C 
ATOM     21  O   UNL     1      -1.409   1.446   0.000  0.00  0.00    -0.351 OA
ATOM     22  C   UNL     1      -1.821   0.731   0.000  0.00  0.00    +0.159 C 
ATOM     23  C   UNL     1      -1.409   0.017   0.000  0.00  0.00    +0.105 C 
ENDBRANCH  17  18
ENDBRANCH  12  17
TORSDOF 5
