REMARK  Name = 
REMARK  5 active torsions:
REMARK  status: ('A' for Active; 'I' for Inactive)
REMARK    1  A    between atoms: C_2  and  C_3
REMARK    2  A    between atoms: C_6  and  C_7
REMARK    3  A    between atoms: C_7  and  C_8
REMARK    4  A    between atoms: C_8  and  N_9
REMARK    5  A    between atoms: C_16  and  C_17
REMARK                            x       y       z     vdW  Elec       q    Type
REMARK                         _______ _______ _______ _____ _____    ______ ____
ROOT
ATOM      1  N   UNL     1       1.457  -2.025   0.000  0.00  0.00    -0.188 NA
ATOM      2  C   UNL     1       2.171  -2.437   0.000  0.00  0.00    +0.323 C 
ATOM      3  N   UNL     1       2.886  -2.025   0.000  0.00  0.00    -0.262 N 
ATOM      4  C   UNL     1       3.640  -2.360   0.000  0.00  0.00    +0.110 C 
ATOM      5  C   UNL     1       4.192  -1.747   0.000  0.00  0.00    +0.024 C 
ATOM      6  C   UNL     1       3.779  -1.033   0.000  0.00  0.00    +0.023 C 
ATOM      7  C   UNL     1       2.972  -1.204   0.000  0.00  0.00    +0.095 C 
ATOM      8  O   UNL     1       2.171  -3.262   0.000  0.00  0.00    -0.251 OA
ENDROOT
BRANCH   4   9
ATOM      9  C   UNL     1       3.811  -3.167   0.000  0.00  0.00    +0.202 C 
ATOM     10  O   UNL     1       4.596  -3.422   0.000  0.00  0.00    -0.219 OA
ENDBRANCH   4   9
BRANCH   1  11
ATOM     11  C   UNL     1       0.743  -2.437   0.000  0.00  0.00    +0.124 C 
BRANCH  11  12
ATOM     12  C   UNL     1       0.028  -2.025   0.000  0.00  0.00    +0.076 C 
BRANCH  12  15
ATOM     13  C   UNL     1      -1.580  -3.429   0.000  0.00  0.00    +0.027 A 
ATOM     14  S   UNL     1      -0.773  -3.258   0.000  0.00  0.00    -0.075 S 
ATOM     15  C   UNL     1      -0.686  -2.437   0.000  0.00  0.00    +0.090 A 
ATOM     16  N   UNL     1      -1.440  -2.102   0.000  0.00  0.00    -0.241 NA
ATOM     17  C   UNL     1      -1.992  -2.715   0.000  0.00  0.00    +0.101 A 
BRANCH  13  19
ATOM     18  C   UNL     1      -2.736  -4.269   0.000  0.00  0.00    +0.006 C 
ATOM     19  C   UNL     1      -1.915  -4.183   0.000  0.00  0.00    +0.035 C 
ENDBRANCH  13  19
ENDBRANCH  12  15
ENDBRANCH  11  12
ENDBRANCH   1  11
TORSDOF 5
