REMARK  Name = 
REMARK  3 active torsions:
REMARK  status: ('A' for Active; 'I' for Inactive)
REMARK    1  A    between atoms: N_1  and  C_9
REMARK    2  A    between atoms: N_2  and  C_12
REMARK    3  A    between atoms: C_8  and  C_9
REMARK                            x       y       z     vdW  Elec       q    Type
REMARK                         _______ _______ _______ _____ _____    ______ ____
ROOT
ATOM      1  N   UNL     1      -0.179  -3.104   0.000  0.00  0.00    -0.238 N 
ATOM      2  C   UNL     1       0.371  -3.717   0.000  0.00  0.00    +0.294 A 
ATOM      3  O   UNL     1       1.179  -3.546   0.000  0.00  0.00    -0.264 OA
ATOM      4  C   UNL     1       0.117  -4.500   0.000  0.00  0.00    +0.213 A 
ATOM      5  C   UNL     1      -0.692  -4.675   0.000  0.00  0.00    +0.116 A 
ATOM      6  N   UNL     1      -1.242  -4.058   0.000  0.00  0.00    -0.255 N 
ATOM      7  F   UNL     1       0.671  -5.117   0.000  0.00  0.00    -0.198 F 
ATOM      8  C   UNL     1      -0.988  -3.275   0.000  0.00  0.00    +0.336 A 
ATOM      9  O   UNL     1      -1.538  -2.663   0.000  0.00  0.00    -0.246 OA
ENDROOT
BRANCH   6  10
ATOM     10  C   UNL     1      -2.050  -4.233   0.000  0.00  0.00    +0.208 C 
ATOM     11  C   UNL     1      -2.383  -4.987   0.000  0.00  0.00    +0.057 C 
ATOM     12  C   UNL     1      -3.204  -4.900   0.000  0.00  0.00    +0.037 C 
ATOM     13  C   UNL     1      -3.375  -4.092   0.000  0.00  0.00    +0.144 C 
ATOM     14  O   UNL     1      -2.663  -3.679   0.000  0.00  0.00    -0.335 OA
ENDBRANCH   6  10
BRANCH   1  15
ATOM     15  C   UNL     1       0.075  -2.321   0.000  0.00  0.00    +0.199 C 
BRANCH  15  16
ATOM     16  C   UNL     1       0.883  -2.150   0.000  0.00  0.00    +0.253 C 
ATOM     17  O   UNL     1       1.433  -2.763   0.000  0.00  0.00    -0.272 OA
ATOM     18  N   UNL     1       1.137  -1.363   0.000  0.00  0.00    -0.259 N 
ATOM     19  C   UNL     1       1.921  -1.108   0.000  0.00  0.00    +0.050 A 
ATOM     20  C   UNL     1       2.638  -1.521   0.000  0.00  0.00    +0.015 A 
ATOM     21  C   UNL     1       3.350  -1.108   0.000  0.00  0.00    +0.001 A 
ATOM     22  C   UNL     1       3.350  -0.283   0.000  0.00  0.00    -0.000 A 
ATOM     23  C   UNL     1       2.638   0.129   0.000  0.00  0.00    -0.003 A 
ATOM     24  C   UNL     1       1.921  -0.283   0.000  0.00  0.00    -0.007 A 
ATOM     25  C   UNL     1       1.137  -0.029   0.000  0.00  0.00    +0.048 C 
ATOM     26  C   UNL     1       0.650  -0.696   0.000  0.00  0.00    +0.084 C 
ATOM     27  C   UNL     1      -0.175  -0.696   0.000  0.00  0.00    +0.022 C 
ENDBRANCH  15  16
ENDBRANCH   1  15
TORSDOF 3
