REMARK  Name = 
REMARK  5 active torsions:
REMARK  status: ('A' for Active; 'I' for Inactive)
REMARK    1  A    between atoms: C_5  and  C_6
REMARK    2  A    between atoms: C_6  and  C_7
REMARK    3  A    between atoms: C_7  and  N_8
REMARK    4  A    between atoms: N_11  and  C_12
REMARK    5  A    between atoms: C_12  and  C_13
REMARK                            x       y       z     vdW  Elec       q    Type
REMARK                         _______ _______ _______ _____ _____    ______ ____
ROOT
ATOM      1  N   UNL     1       3.774  -1.758   0.000  0.00  0.00    -0.187 NA
ATOM      2  C   UNL     1       4.489  -2.171   0.000  0.00  0.00    +0.339 C 
ATOM      3  N   UNL     1       5.203  -1.758   0.000  0.00  0.00    -0.186 NA
ATOM      4  O   UNL     1       4.489  -2.996   0.000  0.00  0.00    -0.249 OA
ENDROOT
BRANCH   1   5
ATOM      5  C   UNL     1       3.060  -2.171   0.000  0.00  0.00    +0.124 C 
BRANCH   5   6
ATOM      6  C   UNL     1       2.345  -1.758   0.000  0.00  0.00    +0.076 C 
BRANCH   6  10
ATOM      7  C   UNL     1       0.402  -3.917   0.000  0.00  0.00    +0.040 C 
ATOM      8  C   UNL     1       0.738  -3.163   0.000  0.00  0.00    +0.028 A 
ATOM      9  S   UNL     1       1.545  -2.991   0.000  0.00  0.00    -0.075 S 
ATOM     10  C   UNL     1       1.631  -2.171   0.000  0.00  0.00    +0.090 A 
ATOM     11  N   UNL     1       0.877  -1.835   0.000  0.00  0.00    -0.241 NA
ATOM     12  C   UNL     1       0.325  -2.449   0.000  0.00  0.00    +0.101 A 
ENDBRANCH   6  10
ENDBRANCH   5   6
ENDBRANCH   1   5
BRANCH   3  13
ATOM     13  C   UNL     1       5.918  -2.171   0.000  0.00  0.00    +0.127 C 
BRANCH  13  14
ATOM     14  C   UNL     1       5.918  -2.996   0.000  0.00  0.00    +0.059 C 
ATOM     15  S   UNL     1       5.746  -3.803   0.000  0.00  0.00    -0.140 S 
ATOM     16  C   UNL     1       6.461  -4.215   0.000  0.00  0.00    +0.058 C 
ATOM     17  C   UNL     1       7.074  -3.663   0.000  0.00  0.00    +0.013 C 
ATOM     18  C   UNL     1       6.738  -2.910   0.000  0.00  0.00    +0.013 C 
ATOM     19  C   UNL     1       5.097  -2.910   0.000  0.00  0.00    +0.013 C 
ENDBRANCH  13  14
ENDBRANCH   3  13
TORSDOF 5
