REMARK  Name = 
REMARK  2 active torsions:
REMARK  status: ('A' for Active; 'I' for Inactive)
REMARK    1  A    between atoms: N_3  and  C_4
REMARK    2  A    between atoms: N_12  and  C_13
REMARK                            x       y       z     vdW  Elec       q    Type
REMARK                         _______ _______ _______ _____ _____    ______ ____
ROOT
ATOM      1  O   UNL     1      -3.516  -1.202   0.000  0.00  0.00    -0.249 OA
ATOM      2  C   UNL     1      -2.802  -0.790   0.000  0.00  0.00    +0.344 C 
ATOM      3  N   UNL     1      -2.087  -1.202   0.000  0.00  0.00    -0.159 NA
ATOM      4  N   UNL     1      -2.802   0.035   0.000  0.00  0.00    -0.179 NA
ENDROOT
BRANCH   3   5
ATOM      5  C   UNL     1      -2.087  -2.027   0.000  0.00  0.00    +0.094 A 
ATOM      6  C   UNL     1      -2.802  -2.440   0.000  0.00  0.00    +0.117 A 
ATOM      7  N   UNL     1      -2.802  -3.265   0.000  0.00  0.00    -0.228 NA
ATOM      8  C   UNL     1      -2.087  -3.678   0.000  0.00  0.00    +0.132 A 
ATOM      9  N   UNL     1      -2.087  -4.503   0.000  0.00  0.00    -0.288 N 
ATOM     10  C   UNL     1      -2.802  -4.915   0.000  0.00  0.00    +0.124 C 
ATOM     11  C   UNL     1      -2.802  -5.740   0.000  0.00  0.00    +0.164 C 
ATOM     12  O   UNL     1      -2.087  -6.152   0.000  0.00  0.00    -0.350 OA
ATOM     13  C   UNL     1      -1.373  -5.740   0.000  0.00  0.00    +0.164 C 
ATOM     14  C   UNL     1      -1.373  -4.915   0.000  0.00  0.00    +0.124 C 
ATOM     15  C   UNL     1      -1.373  -3.265   0.000  0.00  0.00    +0.036 A 
ATOM     16  C   UNL     1      -1.373  -2.440   0.000  0.00  0.00    +0.021 A 
ENDBRANCH   3   5
BRANCH   4  17
ATOM     17  C   UNL     1      -3.516   0.448   0.000  0.00  0.00    +0.174 C 
ATOM     18  C   UNL     1      -3.454   1.270   0.000  0.00  0.00    +0.261 C 
ATOM     19  O   UNL     1      -2.687   1.572   0.000  0.00  0.00    -0.271 OA
ATOM     20  N   UNL     1      -4.059   1.831   0.000  0.00  0.00    -0.204 NA
ATOM     21  C   UNL     1      -4.875   1.708   0.000  0.00  0.00    +0.115 C 
ATOM     22  C   UNL     1      -5.287   0.994   0.000  0.00  0.00    +0.024 C 
ATOM     23  C   UNL     1      -4.986   0.226   0.000  0.00  0.00    +0.004 C 
ATOM     24  C   UNL     1      -4.198  -0.017   0.000  0.00  0.00    +0.031 C 
ENDBRANCH   4  17
TORSDOF 2
