REMARK  Name = 
REMARK  3 active torsions:
REMARK  status: ('A' for Active; 'I' for Inactive)
REMARK    1  A    between atoms: N_3  and  C_4
REMARK    2  A    between atoms: N_9  and  C_10
REMARK    3  A    between atoms: C_15  and  N_16
REMARK                            x       y       z     vdW  Elec       q    Type
REMARK                         _______ _______ _______ _____ _____    ______ ____
ROOT
ATOM      1  C   UNL     1       3.466   1.176   0.000  0.00  0.00    +0.106 A 
ATOM      2  C   UNL     1       3.466   2.001   0.000  0.00  0.00    +0.147 A 
ATOM      3  N   UNL     1       2.751   2.413   0.000  0.00  0.00    -0.228 NA
ATOM      4  C   UNL     1       2.037   2.001   0.000  0.00  0.00    +0.100 A 
ATOM      5  C   UNL     1       2.037   1.176   0.000  0.00  0.00    +0.022 A 
ATOM      6  C   UNL     1       2.751   0.763   0.000  0.00  0.00    +0.021 A 
ENDROOT
BRANCH   2   7
ATOM      7  N   UNL     1       4.180   2.413   0.000  0.00  0.00    -0.287 N 
ATOM      8  C   UNL     1       4.895   2.001   0.000  0.00  0.00    +0.124 C 
ATOM      9  C   UNL     1       5.609   2.413   0.000  0.00  0.00    +0.164 C 
ATOM     10  O   UNL     1       5.609   3.238   0.000  0.00  0.00    -0.350 OA
ATOM     11  C   UNL     1       4.895   3.651   0.000  0.00  0.00    +0.164 C 
ATOM     12  C   UNL     1       4.180   3.238   0.000  0.00  0.00    +0.124 C 
ENDBRANCH   2   7
BRANCH   1  15
ATOM     13  O   UNL     1       3.466  -0.474   0.000  0.00  0.00    -0.249 OA
ATOM     14  C   UNL     1       4.180  -0.062   0.000  0.00  0.00    +0.344 C 
ATOM     15  N   UNL     1       4.180   0.763   0.000  0.00  0.00    -0.158 NA
ATOM     16  N   UNL     1       4.895  -0.474   0.000  0.00  0.00    -0.189 NA
BRANCH  16  17
ATOM     17  C   UNL     1       4.895  -1.299   0.000  0.00  0.00    +0.097 C 
ATOM     18  C   UNL     1       4.227  -1.784   0.000  0.00  0.00    +0.022 C 
ATOM     19  C   UNL     1       4.482  -2.569   0.000  0.00  0.00    +0.002 C 
ATOM     20  C   UNL     1       5.307  -2.569   0.000  0.00  0.00    +0.002 C 
ATOM     21  C   UNL     1       5.562  -1.784   0.000  0.00  0.00    +0.022 C 
ENDBRANCH  16  17
ENDBRANCH   1  15
TORSDOF 3
