REMARK  Name = 
REMARK  7 active torsions:
REMARK  status: ('A' for Active; 'I' for Inactive)
REMARK    1  A    between atoms: C_2  and  N_3
REMARK    2  A    between atoms: C_7  and  N_9
REMARK    3  A    between atoms: C_10  and  C_12
REMARK    4  A    between atoms: C_17  and  O_18
REMARK    5  A    between atoms: O_18  and  C_19
REMARK    6  A    between atoms: C_19  and  C_20
REMARK    7  A    between atoms: C_20  and  O_21
REMARK                            x       y       z     vdW  Elec       q    Type
REMARK                         _______ _______ _______ _____ _____    ______ ____
ROOT
ATOM      1  N   UNL     1       0.000   1.650   0.000  0.00  0.00    -0.202 NA
ATOM      2  C   UNL     1       0.715   1.238   0.000  0.00  0.00    +0.269 C 
ATOM      3  O   UNL     1       0.715   0.412   0.000  0.00  0.00    -0.268 OA
ENDROOT
BRANCH   2   4
ATOM      4  C   UNL     1       1.429   1.650   0.000  0.00  0.00    +0.108 A 
ATOM      5  C   UNL     1       2.143   1.238   0.000  0.00  0.00    +0.229 A 
ATOM      6  N   UNL     1       2.858   1.650   0.000  0.00  0.00    -0.210 NA
ATOM      7  C   UNL     1       2.858   2.475   0.000  0.00  0.00    +0.102 A 
ATOM      8  C   UNL     1       2.143   2.888   0.000  0.00  0.00    +0.021 A 
ATOM      9  C   UNL     1       1.429   2.475   0.000  0.00  0.00    +0.011 A 
BRANCH   5  10
ATOM     10  O   UNL     1       2.143   0.412   0.000  0.00  0.00    -0.457 OA
BRANCH  10  11
ATOM     11  C   UNL     1       2.858   0.000   0.000  0.00  0.00    +0.239 C 
BRANCH  11  12
ATOM     12  C   UNL     1       3.572   0.412   0.000  0.00  0.00    +0.189 C 
BRANCH  12  13
ATOM     13  O   UNL     1       4.287   0.000   0.000  0.00  0.00    -0.347 OA
ATOM     14  C   UNL     1       5.001   0.412   0.000  0.00  0.00    +0.174 C 
ENDBRANCH  12  13
ENDBRANCH  11  12
ENDBRANCH  10  11
ENDBRANCH   5  10
ENDBRANCH   2   4
BRANCH   1  17
ATOM     15  N   UNL     1      -1.429   0.000   0.000  0.00  0.00    -0.271 NA
ATOM     16  C   UNL     1      -0.715   0.412   0.000  0.00  0.00    +0.094 C 
ATOM     17  C   UNL     1      -0.715   1.238   0.000  0.00  0.00    +0.112 C 
ATOM     18  C   UNL     1      -1.429   1.650   0.000  0.00  0.00    +0.025 C 
ATOM     19  C   UNL     1      -2.143   1.238   0.000  0.00  0.00    +0.019 C 
ATOM     20  C   UNL     1      -2.143   0.412   0.000  0.00  0.00    +0.072 C 
BRANCH  15  22
ATOM     21  C   UNL     1      -2.143  -1.238   0.000  0.00  0.00    +0.019 C 
ATOM     22  C   UNL     1      -1.429  -0.825   0.000  0.00  0.00    +0.072 C 
ENDBRANCH  15  22
ENDBRANCH   1  17
TORSDOF 7
