REMARK  Name = 
REMARK  1 active torsions:
REMARK  status: ('A' for Active; 'I' for Inactive)
REMARK    1  A    between atoms: N_3  and  C_4
REMARK                            x       y       z     vdW  Elec       q    Type
REMARK                         _______ _______ _______ _____ _____    ______ ____
ROOT
ATOM      1  O   UNL     1       4.287  -1.650   0.000  0.00  0.00    -0.249 OA
ATOM      2  C   UNL     1       3.572  -1.238   0.000  0.00  0.00    +0.345 C 
ATOM      3  N   UNL     1       3.572  -0.412   0.000  0.00  0.00    -0.142 NA
ATOM      4  C   UNL     1       4.287   0.000   0.000  0.00  0.00    +0.156 A 
ATOM      5  N   UNL     1       5.001  -0.412   0.000  0.00  0.00    -0.227 NA
ATOM      6  C   UNL     1       5.716   0.000   0.000  0.00  0.00    +0.100 A 
ATOM      7  C   UNL     1       5.716   0.825   0.000  0.00  0.00    +0.021 A 
ATOM      8  C   UNL     1       5.001   1.238   0.000  0.00  0.00    +0.005 A 
ATOM      9  C   UNL     1       4.287   0.825   0.000  0.00  0.00    +0.036 A 
ATOM     10  N   UNL     1       2.858  -1.650   0.000  0.00  0.00    -0.189 NA
ENDROOT
BRANCH  10  11
ATOM     11  C   UNL     1       2.858  -2.475   0.000  0.00  0.00    +0.097 C 
ATOM     12  C   UNL     1       2.143  -2.888   0.000  0.00  0.00    +0.022 C 
ATOM     13  C   UNL     1       2.143  -3.712   0.000  0.00  0.00    +0.002 C 
ATOM     14  C   UNL     1       2.858  -4.125   0.000  0.00  0.00    +0.000 C 
ATOM     15  C   UNL     1       3.572  -3.712   0.000  0.00  0.00    +0.002 C 
ATOM     16  C   UNL     1       3.572  -2.888   0.000  0.00  0.00    +0.022 C 
ENDBRANCH  10  11
TORSDOF 1
