REMARK  Name = 
REMARK  3 active torsions:
REMARK  status: ('A' for Active; 'I' for Inactive)
REMARK    1  A    between atoms: C_2  and  C_3
REMARK    2  A    between atoms: C_3  and  C_5
REMARK    3  A    between atoms: C_5  and  N_6
REMARK                            x       y       z     vdW  Elec       q    Type
REMARK                         _______ _______ _______ _____ _____    ______ ____
ROOT
ATOM      1  N   UNL     1       1.139  -1.365   0.000  0.00  0.00    -0.229 N 
ATOM      2  C   UNL     1       1.923  -1.110   0.000  0.00  0.00    +0.100 A 
ATOM      3  C   UNL     1       1.923  -0.285   0.000  0.00  0.00    +0.123 A 
ATOM      4  C   UNL     1       2.638   0.127   0.000  0.00  0.00    +0.035 A 
ATOM      5  C   UNL     1       3.352  -0.285   0.000  0.00  0.00    +0.070 A 
ATOM      6  C   UNL     1       3.352  -1.110   0.000  0.00  0.00    +0.070 A 
ATOM      7 CL   UNL     1       4.067  -1.523   0.000  0.00  0.00    -0.081 Cl
ATOM      8 CL   UNL     1       4.067   0.127   0.000  0.00  0.00    -0.081 Cl
ATOM      9  N   UNL     1       1.139  -0.030   0.000  0.00  0.00    -0.129 NA
ATOM     10  C   UNL     1       2.638  -1.523   0.000  0.00  0.00    +0.033 A 
ATOM     11  N   UNL     1       0.654  -0.698   0.000  0.00  0.00    -0.064 NA
ENDROOT
BRANCH   1  12
ATOM     12  C   UNL     1       0.884  -2.150   0.000  0.00  0.00    +0.162 C 
BRANCH  12  13
ATOM     13  C   UNL     1       0.077  -2.321   0.000  0.00  0.00    +0.176 C 
ATOM     14  O   UNL     1      -0.475  -1.708   0.000  0.00  0.00    -0.221 OA
BRANCH  13  16
ATOM     15  C   UNL     1      -0.985  -3.278   0.000  0.00  0.00    +0.003 C 
ATOM     16  C   UNL     1      -0.178  -3.106   0.000  0.00  0.00    +0.035 C 
ENDBRANCH  13  16
ENDBRANCH  12  13
ENDBRANCH   1  12
TORSDOF 3
