REMARK  Name = 
REMARK  5 active torsions:
REMARK  status: ('A' for Active; 'I' for Inactive)
REMARK    1  A    between atoms: C_2  and  C_4
REMARK    2  A    between atoms: C_6  and  C_7
REMARK    3  A    between atoms: C_7  and  C_8
REMARK    4  A    between atoms: N_10  and  C_11
REMARK    5  A    between atoms: C_11  and  C_13
REMARK                            x       y       z     vdW  Elec       q    Type
REMARK                         _______ _______ _______ _____ _____    ______ ____
ROOT
ATOM      1  C   UNL     1       2.102  -1.996   0.000  0.00  0.00    +0.247 C 
ATOM      2  N   UNL     1       2.816  -2.408   0.000  0.00  0.00    -0.204 NA
ATOM      3  O   UNL     1       2.102  -1.171   0.000  0.00  0.00    -0.273 OA
ENDROOT
BRANCH   2   4
ATOM      4  C   UNL     1       3.530  -1.996   0.000  0.00  0.00    +0.122 C 
ATOM      5  C   UNL     1       3.530  -1.171   0.000  0.00  0.00    +0.026 C 
BRANCH   4   6
ATOM      6  C   UNL     1       4.245  -2.408   0.000  0.00  0.00    +0.135 C 
ATOM      7  O   UNL     1       4.331  -3.229   0.000  0.00  0.00    -0.354 OA
ATOM      8  C   UNL     1       5.138  -3.400   0.000  0.00  0.00    +0.142 C 
ATOM      9  C   UNL     1       5.551  -2.686   0.000  0.00  0.00    +0.035 C 
ATOM     10  C   UNL     1       4.999  -2.073   0.000  0.00  0.00    +0.034 C 
ENDBRANCH   4   6
ENDBRANCH   2   4
BRANCH   1  11
ATOM     11  C   UNL     1       1.387  -2.408   0.000  0.00  0.00    +0.133 C 
BRANCH  11  15
ATOM     12  C   UNL     1      -0.221  -1.004   0.000  0.00  0.00    +0.087 A 
ATOM     13  S   UNL     1      -0.633  -1.718   0.000  0.00  0.00    -0.071 S 
ATOM     14  C   UNL     1      -0.081  -2.331   0.000  0.00  0.00    +0.052 A 
ATOM     15  C   UNL     1       0.672  -1.996   0.000  0.00  0.00    +0.075 A 
ATOM     16  N   UNL     1       0.586  -1.175   0.000  0.00  0.00    -0.247 NA
BRANCH  12  18
ATOM     17  C   UNL     1      -1.377  -0.164   0.000  0.00  0.00    +0.007 C 
ATOM     18  C   UNL     1      -0.556  -0.250   0.000  0.00  0.00    +0.047 C 
ATOM     19  C   UNL     1      -0.071   0.417   0.000  0.00  0.00    +0.007 C 
ENDBRANCH  12  18
ENDBRANCH  11  15
ENDBRANCH   1  11
TORSDOF 5
