REMARK  Name = 
REMARK  5 active torsions:
REMARK  status: ('A' for Active; 'I' for Inactive)
REMARK    1  A    between atoms: C_2  and  C_4
REMARK    2  A    between atoms: C_4  and  C_5
REMARK    3  A    between atoms: N_13  and  C_14
REMARK    4  A    between atoms: C_14  and  C_16
REMARK    5  A    between atoms: C_16  and  N_17
REMARK                            x       y       z     vdW  Elec       q    Type
REMARK                         _______ _______ _______ _____ _____    ______ ____
ROOT
ATOM      1  C   UNL     1       0.715  -0.412   0.000  0.00  0.00    +0.106 C 
ATOM      2  N   UNL     1       1.429   0.000   0.000  0.00  0.00    -0.259 N 
ATOM      3  C   UNL     1       2.143  -0.412   0.000  0.00  0.00    +0.323 C 
ATOM      4  N   UNL     1       2.858   0.000   0.000  0.00  0.00    -0.188 NA
ATOM      5  O   UNL     1       2.143  -1.238   0.000  0.00  0.00    -0.251 OA
ATOM      6  C   UNL     1       1.429   0.825   0.000  0.00  0.00    +0.127 C 
ATOM      7  C   UNL     1       0.715   1.238   0.000  0.00  0.00    +0.164 C 
ATOM      8  O   UNL     1       0.000   0.825   0.000  0.00  0.00    -0.350 OA
ATOM      9  C   UNL     1       0.000   0.000   0.000  0.00  0.00    +0.162 C 
ENDROOT
BRANCH   4  10
ATOM     10  C   UNL     1       3.572  -0.412   0.000  0.00  0.00    +0.119 C 
ATOM     11  C   UNL     1       3.572  -1.238   0.000  0.00  0.00    +0.026 C 
BRANCH  10  12
ATOM     12  C   UNL     1       4.287   0.000   0.000  0.00  0.00    +0.129 C 
BRANCH  12  13
ATOM     13  N   UNL     1       5.001  -0.412   0.000  0.00  0.00    -0.306 N 
ATOM     14  C   UNL     1       5.088  -1.233   0.000  0.00  0.00    +0.179 A 
ATOM     15  N   UNL     1       5.894  -1.405   0.000  0.00  0.00    -0.222 NA
ATOM     16  C   UNL     1       6.307  -0.690   0.000  0.00  0.00    +0.119 A 
ATOM     17  C   UNL     1       5.755  -0.077   0.000  0.00  0.00    +0.098 A 
ENDBRANCH  12  13
ENDBRANCH  10  12
ENDBRANCH   4  10
BRANCH   1  18
ATOM     18  C   UNL     1       0.715  -1.238   0.000  0.00  0.00    +0.022 C 
BRANCH  18  20
ATOM     19  C   UNL     1       0.000  -2.475   0.000  0.00  0.00    +0.000 C 
ATOM     20  C   UNL     1       0.000  -1.650   0.000  0.00  0.00    +0.002 C 
ATOM     21  C   UNL     1      -0.715  -1.238   0.000  0.00  0.00    +0.000 C 
ENDBRANCH  18  20
ENDBRANCH   1  18
TORSDOF 5
