REMARK  Name = 
REMARK  5 active torsions:
REMARK  status: ('A' for Active; 'I' for Inactive)
REMARK    1  A    between atoms: C_4  and  N_5
REMARK    2  A    between atoms: N_8  and  C_9
REMARK    3  A    between atoms: C_9  and  C_14
REMARK    4  A    between atoms: N_16  and  C_17
REMARK    5  A    between atoms: C_17  and  C_18
REMARK                            x       y       z     vdW  Elec       q    Type
REMARK                         _______ _______ _______ _____ _____    ______ ____
ROOT
ATOM      1  C   UNL     1      -6.463   6.562   0.000  0.00  0.00    +0.150 C 
ATOM      2  C   UNL     1      -7.076   7.114   0.000  0.00  0.00    +0.029 C 
ATOM      3  C   UNL     1      -7.791   6.701   0.000  0.00  0.00    +0.002 C 
ATOM      4  C   UNL     1      -7.619   5.894   0.000  0.00  0.00    +0.002 C 
ATOM      5  C   UNL     1      -6.799   5.808   0.000  0.00  0.00    +0.029 C 
ENDROOT
BRANCH   1   8
ATOM      6  N   UNL     1      -7.134   8.069   0.000  0.00  0.00    -0.161 NA
ATOM      7  C   UNL     1      -6.314   7.983   0.000  0.00  0.00    +0.344 C 
ATOM      8  N   UNL     1      -5.978   7.229   0.000  0.00  0.00    -0.181 NA
ATOM      9  O   UNL     1      -5.829   8.650   0.000  0.00  0.00    -0.249 OA
BRANCH   6  15
ATOM     10  C   UNL     1      -6.835  10.911   0.000  0.00  0.00    +0.052 C 
ATOM     11  C   UNL     1      -7.320  10.244   0.000  0.00  0.00    +0.061 A 
ATOM     12  N   UNL     1      -8.141  10.330   0.000  0.00  0.00    -0.248 NA
ATOM     13  C   UNL     1      -8.626   9.662   0.000  0.00  0.00    +0.100 A 
ATOM     14  C   UNL     1      -8.290   8.909   0.000  0.00  0.00    +0.037 A 
ATOM     15  C   UNL     1      -7.470   8.823   0.000  0.00  0.00    +0.078 A 
ATOM     16  C   UNL     1      -6.985   9.490   0.000  0.00  0.00    +0.031 A 
ENDBRANCH   6  15
ENDBRANCH   1   8
BRANCH   1  17
ATOM     17  C   UNL     1      -5.749   6.149   0.000  0.00  0.00    +0.259 C 
ATOM     18  N   UNL     1      -5.749   5.324   0.000  0.00  0.00    -0.204 NA
ATOM     19  O   UNL     1      -5.034   6.562   0.000  0.00  0.00    -0.272 OA
BRANCH  18  20
ATOM     20  C   UNL     1      -5.034   4.912   0.000  0.00  0.00    +0.115 C 
BRANCH  20  21
ATOM     21  C   UNL     1      -5.034   4.087   0.000  0.00  0.00    +0.022 C 
ATOM     22  C   UNL     1      -5.447   3.372   0.000  0.00  0.00    +0.002 C 
ATOM     23  C   UNL     1      -4.622   3.372   0.000  0.00  0.00    +0.002 C 
ENDBRANCH  20  21
ENDBRANCH  18  20
ENDBRANCH   1  17
TORSDOF 5
