REMARK  Name = 
REMARK  5 active torsions:
REMARK  status: ('A' for Active; 'I' for Inactive)
REMARK    1  A    between atoms: C_2  and  C_3
REMARK    2  A    between atoms: C_2  and  N_15
REMARK    3  A    between atoms: C_3  and  N_4
REMARK    4  A    between atoms: C_5  and  C_7
REMARK    5  A    between atoms: C_7  and  N_8
REMARK                            x       y       z     vdW  Elec       q    Type
REMARK                         _______ _______ _______ _____ _____    ______ ____
ROOT
ATOM      1  N   UNL     1       0.715  -3.712   0.000  0.00  0.00    -0.202 NA
ATOM      2  C   UNL     1       1.429  -3.300   0.000  0.00  0.00    +0.265 C 
ATOM      3  O   UNL     1       1.429  -2.475   0.000  0.00  0.00    -0.271 OA
ENDROOT
BRANCH   1   4
ATOM      4  C   UNL     1       0.000  -3.300   0.000  0.00  0.00    +0.131 C 
BRANCH   4   6
ATOM      5  C   UNL     1      -0.715  -4.537   0.000  0.00  0.00    +0.019 C 
ATOM      6  C   UNL     1      -0.715  -3.712   0.000  0.00  0.00    +0.079 C 
BRANCH   6   7
ATOM      7  N   UNL     1      -1.429  -3.300   0.000  0.00  0.00    -0.272 NA
ATOM      8  C   UNL     1      -1.515  -2.479   0.000  0.00  0.00    +0.072 C 
ATOM      9  C   UNL     1      -2.322  -2.308   0.000  0.00  0.00    +0.019 C 
ATOM     10  C   UNL     1      -2.735  -3.022   0.000  0.00  0.00    +0.019 C 
ATOM     11  C   UNL     1      -2.183  -3.636   0.000  0.00  0.00    +0.072 C 
ENDBRANCH   6   7
ENDBRANCH   4   6
ENDBRANCH   1   4
BRANCH   2  12
ATOM     12  C   UNL     1       2.143  -3.712   0.000  0.00  0.00    +0.196 C 
BRANCH  12  13
ATOM     13  N   UNL     1       2.858  -3.300   0.000  0.00  0.00    -0.285 N 
ATOM     14  C   UNL     1       3.572  -3.712   0.000  0.00  0.00    +0.261 A 
ATOM     15  O   UNL     1       3.572  -4.537   0.000  0.00  0.00    -0.267 OA
ATOM     16  C   UNL     1       4.287  -3.300   0.000  0.00  0.00    +0.061 A 
ATOM     17  C   UNL     1       4.287  -2.475   0.000  0.00  0.00    +0.006 A 
ATOM     18  C   UNL     1       3.572  -2.062   0.000  0.00  0.00    +0.019 A 
ATOM     19  C   UNL     1       2.858  -2.475   0.000  0.00  0.00    +0.079 A 
ENDBRANCH  12  13
ENDBRANCH   2  12
TORSDOF 5
