REMARK  Name = 
REMARK  5 active torsions:
REMARK  status: ('A' for Active; 'I' for Inactive)
REMARK    1  A    between atoms: C_4  and  S_5
REMARK    2  A    between atoms: S_5  and  C_6
REMARK    3  A    between atoms: C_6  and  C_7
REMARK    4  A    between atoms: C_14  and  C_15
REMARK    5  A    between atoms: C_15  and  C_16
REMARK                            x       y       z     vdW  Elec       q    Type
REMARK                         _______ _______ _______ _____ _____    ______ ____
ROOT
ATOM      1  C   UNL     1       0.180   4.136   0.000  0.00  0.00    +0.052 C 
ATOM      2  C   UNL     1      -0.640   4.222   0.000  0.00  0.00    +0.063 A 
ATOM      3  C   UNL     1      -1.053   4.937   0.000  0.00  0.00    +0.032 A 
ATOM      4  S   UNL     1      -1.860   4.765   0.000  0.00  0.00    -0.065 S 
ATOM      5  C   UNL     1      -1.946   3.945   0.000  0.00  0.00    +0.136 A 
ATOM      6  N   UNL     1      -1.192   3.609   0.000  0.00  0.00    -0.237 NA
ENDROOT
BRANCH   3   7
ATOM      7  C   UNL     1      -0.717   5.691   0.000  0.00  0.00    +0.123 C 
BRANCH   7   8
ATOM      8  C   UNL     1       0.103   5.777   0.000  0.00  0.00    +0.266 C 
ATOM      9  N   UNL     1       0.588   5.109   0.000  0.00  0.00    -0.087 NA
ATOM     10  O   UNL     1       0.439   6.530   0.000  0.00  0.00    -0.271 OA
ENDBRANCH   7   8
ENDBRANCH   3   7
BRANCH   5  11
ATOM     11  S   UNL     1      -2.661   3.532   0.000  0.00  0.00    -0.079 S 
BRANCH  11  12
ATOM     12  C   UNL     1      -2.661   2.707   0.000  0.00  0.00    +0.149 C 
BRANCH  12  13
ATOM     13  C   UNL     1      -3.375   2.295   0.000  0.00  0.00    +0.237 C 
ATOM     14  N   UNL     1      -3.375   1.470   0.000  0.00  0.00    -0.279 N 
ATOM     15  C   UNL     1      -3.958   0.886   0.000  0.00  0.00    +0.095 C 
ATOM     16  C   UNL     1      -3.375   0.303   0.000  0.00  0.00    +0.043 C 
ATOM     17  C   UNL     1      -2.792   0.886   0.000  0.00  0.00    +0.095 C 
ATOM     18  O   UNL     1      -4.090   2.707   0.000  0.00  0.00    -0.274 OA
ENDBRANCH  12  13
ENDBRANCH  11  12
ENDBRANCH   5  11
TORSDOF 5
