REMARK  Name = 
REMARK  4 active torsions:
REMARK  status: ('A' for Active; 'I' for Inactive)
REMARK    1  A    between atoms: N_4  and  C_5
REMARK    2  A    between atoms: C_5  and  C_6
REMARK    3  A    between atoms: N_14  and  C_15
REMARK    4  A    between atoms: C_15  and  C_16
REMARK                            x       y       z     vdW  Elec       q    Type
REMARK                         _______ _______ _______ _____ _____    ______ ____
ROOT
ATOM      1 CL   UNL     1       0.000   0.000   0.000  0.00  0.00    +0.000 Cl
ENDROOT
TORSDOF 0
REMARK  Name = 
REMARK  4 active torsions:
REMARK  status: ('A' for Active; 'I' for Inactive)
REMARK    1  A    between atoms: N_4  and  C_5
REMARK    2  A    between atoms: C_5  and  C_6
REMARK    3  A    between atoms: N_14  and  C_15
REMARK    4  A    between atoms: C_15  and  C_16
REMARK                            x       y       z     vdW  Elec       q    Type
REMARK                         _______ _______ _______ _____ _____    ______ ____
ROOT
ATOM      1 CL   UNL     1       2.004   0.000   0.000  0.00  0.00    +0.000 Cl
ENDROOT
TORSDOF 0
REMARK  Name = 
REMARK  4 active torsions:
REMARK  status: ('A' for Active; 'I' for Inactive)
REMARK    1  A    between atoms: N_4  and  C_5
REMARK    2  A    between atoms: C_5  and  C_6
REMARK    3  A    between atoms: N_14  and  C_15
REMARK    4  A    between atoms: C_15  and  C_16
REMARK                            x       y       z     vdW  Elec       q    Type
REMARK                         _______ _______ _______ _____ _____    ______ ____
ROOT
ATOM      1  C   UNL     1      -0.686  -2.475   0.000  0.00  0.00    +0.138 A 
ATOM      2  N   UNL     1      -0.201  -3.142   0.000  0.00  0.00    -0.311 N 
ATOM      3  C   UNL     1       0.584  -2.888   0.000  0.00  0.00    +0.079 A 
ATOM      4  C   UNL     1       0.584  -2.062   0.000  0.00  0.00    +0.098 A 
ATOM      5  C   UNL     1       1.298  -1.650   0.000  0.00  0.00    +0.021 A 
ATOM      6  C   UNL     1       2.013  -2.062   0.000  0.00  0.00    +0.002 A 
ATOM      7  C   UNL     1       2.013  -2.888   0.000  0.00  0.00    +0.002 A 
ATOM      8  C   UNL     1       1.298  -3.300   0.000  0.00  0.00    +0.019 A 
ATOM      9  N   UNL     1      -0.201  -1.808   0.000  0.00  0.00    -0.229 NA
ENDROOT
BRANCH   1  10
ATOM     10  C   UNL     1      -1.511  -2.475   0.000  0.00  0.00    +0.152 C 
BRANCH  10  12
ATOM     11  C   UNL     1      -2.748  -3.189   0.000  0.00  0.00    +0.108 C 
ATOM     12  N   UNL     1      -1.923  -3.189   0.000  0.00  0.00    -0.209 NA
ENDBRANCH  10  12
ENDBRANCH   1  10
BRANCH   2  13
ATOM     13  C   UNL     1      -0.456  -3.927   0.000  0.00  0.00    +0.143 C 
BRANCH  13  14
ATOM     14  C   UNL     1       0.096  -4.540   0.000  0.00  0.00    +0.206 C 
ATOM     15  O   UNL     1      -0.159  -5.325   0.000  0.00  0.00    -0.218 OA
ENDBRANCH  13  14
ENDBRANCH   2  13
TORSDOF 4
