REMARK  Name = 
REMARK  2 active torsions:
REMARK  status: ('A' for Active; 'I' for Inactive)
REMARK    1  A    between atoms: C_2  and  C_3
REMARK    2  A    between atoms: C_3  and  C_10
REMARK                            x       y       z     vdW  Elec       q    Type
REMARK                         _______ _______ _______ _____ _____    ______ ____
ROOT
ATOM      1  C   UNL     1       1.647  -0.689   0.000  0.00  0.00    +0.172 C 
ATOM      2  C   UNL     1       0.980  -1.174   0.000  0.00  0.00    +0.271 C 
ATOM      3  O   UNL     1       0.195  -0.919   0.000  0.00  0.00    -0.271 OA
ATOM      4  N   UNL     1       1.235  -1.958   0.000  0.00  0.00    -0.125 NA
ATOM      5  C   UNL     1       2.060  -1.958   0.000  0.00  0.00    +0.347 C 
ATOM      6  O   UNL     1       2.545  -2.626   0.000  0.00  0.00    -0.249 OA
ATOM      7  N   UNL     1       2.315  -1.174   0.000  0.00  0.00    -0.177 NA
ENDROOT
BRANCH   1   8
ATOM      8  C   UNL     1       2.199  -0.076   0.000  0.00  0.00    +0.044 A 
ATOM      9  C   UNL     1       3.020  -0.162   0.000  0.00  0.00    +0.094 A 
ATOM     10  N   UNL     1       3.355   0.592   0.000  0.00  0.00    -0.248 N 
ATOM     11  C   UNL     1       4.162   0.763   0.000  0.00  0.00    +0.154 C 
ATOM     12  N   UNL     1       2.742   1.144   0.000  0.00  0.00    -0.168 NA
ATOM     13  C   UNL     1       2.028   0.731   0.000  0.00  0.00    +0.119 A 
ENDBRANCH   1   8
BRANCH   1  15
ATOM     14  C   UNL     1       0.288  -0.247   0.000  0.00  0.00    +0.003 C 
ATOM     15  C   UNL     1       1.095  -0.076   0.000  0.00  0.00    +0.033 C 
ENDBRANCH   1  15
TORSDOF 2
