REMARK  Name = 
REMARK  7 active torsions:
REMARK  status: ('A' for Active; 'I' for Inactive)
REMARK    1  A    between atoms: C_4  and  C_5
REMARK    2  A    between atoms: C_5  and  C_6
REMARK    3  A    between atoms: N_8  and  C_9
REMARK    4  A    between atoms: C_9  and  C_10
REMARK    5  A    between atoms: C_10  and  C_11
REMARK    6  A    between atoms: C_11  and  C_12
REMARK    7  A    between atoms: C_12  and  C_13
REMARK                            x       y       z     vdW  Elec       q    Type
REMARK                         _______ _______ _______ _____ _____    ______ ____
ROOT
ATOM      1  C   UNL     1       4.940  -4.321   0.000  0.00  0.00    +0.248 C 
ATOM      2  N   UNL     1       5.654  -3.908   0.000  0.00  0.00    -0.205 NA
ATOM      3  O   UNL     1       4.940  -5.146   0.000  0.00  0.00    -0.273 OA
ENDROOT
BRANCH   2   4
ATOM      4  C   UNL     1       6.369  -4.321   0.000  0.00  0.00    +0.115 C 
BRANCH   4   5
ATOM      5  C   UNL     1       7.083  -3.908   0.000  0.00  0.00    +0.023 C 
BRANCH   5   6
ATOM      6  C   UNL     1       7.798  -4.321   0.000  0.00  0.00    +0.002 C 
BRANCH   6   7
ATOM      7  C   UNL     1       8.512  -3.908   0.000  0.00  0.00    +0.000 C 
BRANCH   7   8
ATOM      8  C   UNL     1       9.227  -4.321   0.000  0.00  0.00    +0.000 C 
ATOM      9  C   UNL     1       9.313  -5.141   0.000  0.00  0.00    +0.000 C 
ATOM     10  C   UNL     1      10.120  -5.312   0.000  0.00  0.00    +0.000 C 
ATOM     11  C   UNL     1      10.532  -4.598   0.000  0.00  0.00    +0.000 C 
ATOM     12  C   UNL     1       9.980  -3.985   0.000  0.00  0.00    +0.000 C 
ENDBRANCH   7   8
ENDBRANCH   6   7
ENDBRANCH   5   6
ENDBRANCH   4   5
ENDBRANCH   2   4
BRANCH   1  13
ATOM     13  C   UNL     1       4.225  -3.908   0.000  0.00  0.00    +0.136 C 
BRANCH  13  18
ATOM     14  C   UNL     1       1.385  -4.512   0.000  0.00  0.00    +0.075 C 
ATOM     15  C   UNL     1       2.205  -4.598   0.000  0.00  0.00    +0.155 A 
ATOM     16  O   UNL     1       2.618  -5.312   0.000  0.00  0.00    -0.358 OA
ATOM     17  N   UNL     1       3.425  -5.141   0.000  0.00  0.00    -0.081 NA
ATOM     18  C   UNL     1       3.511  -4.321   0.000  0.00  0.00    +0.110 A 
ATOM     19  C   UNL     1       2.757  -3.985   0.000  0.00  0.00    +0.054 A 
ENDBRANCH  13  18
ENDBRANCH   1  13
TORSDOF 7
