REMARK  Name = 
REMARK  6 active torsions:
REMARK  status: ('A' for Active; 'I' for Inactive)
REMARK    1  A    between atoms: N_5  and  C_6
REMARK    2  A    between atoms: C_6  and  C_7
REMARK    3  A    between atoms: C_7  and  C_9
REMARK    4  A    between atoms: C_9  and  O_10
REMARK    5  A    between atoms: O_10  and  C_11
REMARK    6  A    between atoms: C_11  and  C_12
REMARK                            x       y       z     vdW  Elec       q    Type
REMARK                         _______ _______ _______ _____ _____    ______ ____
ROOT
ATOM      1  C   UNL     1       0.715   2.062   0.000  0.00  0.00    +0.146 C 
ENDROOT
BRANCH   1   8
ATOM      2  C   UNL     1      -2.143   0.412   0.000  0.00  0.00    +0.052 C 
ATOM      3  C   UNL     1      -1.429   0.825   0.000  0.00  0.00    +0.062 A 
ATOM      4  C   UNL     1      -0.715   0.412   0.000  0.00  0.00    +0.048 A 
ATOM      5  C   UNL     1      -0.715  -0.412   0.000  0.00  0.00    +0.037 C 
ATOM      6  C   UNL     1       0.000   0.825   0.000  0.00  0.00    +0.259 A 
ATOM      7  O   UNL     1       0.715   0.412   0.000  0.00  0.00    -0.267 OA
ATOM      8  N   UNL     1       0.000   1.650   0.000  0.00  0.00    -0.276 N 
ATOM      9  C   UNL     1      -0.715   2.062   0.000  0.00  0.00    +0.181 A 
ATOM     10  N   UNL     1      -1.429   1.650   0.000  0.00  0.00    -0.230 NA
ENDBRANCH   1   8
BRANCH   1  11
ATOM     11  C   UNL     1       1.429   1.650   0.000  0.00  0.00    +0.204 C 
ATOM     12  O   UNL     1       1.429   0.825   0.000  0.00  0.00    -0.218 OA
BRANCH  11  13
ATOM     13  C   UNL     1       2.143   2.062   0.000  0.00  0.00    +0.177 C 
BRANCH  13  14
ATOM     14  O   UNL     1       2.858   1.650   0.000  0.00  0.00    -0.343 OA
BRANCH  14  15
ATOM     15  C   UNL     1       3.572   2.062   0.000  0.00  0.00    +0.206 C 
BRANCH  15  16
ATOM     16  C   UNL     1       4.287   1.650   0.000  0.00  0.00    +0.153 A 
ATOM     17  O   UNL     1       4.373   0.830   0.000  0.00  0.00    -0.452 OA
ATOM     18  C   UNL     1       5.180   0.658   0.000  0.00  0.00    +0.179 A 
ATOM     19  C   UNL     1       5.593   1.373   0.000  0.00  0.00    +0.044 A 
ATOM     20  C   UNL     1       5.040   1.986   0.000  0.00  0.00    +0.039 A 
ENDBRANCH  15  16
ENDBRANCH  14  15
ENDBRANCH  13  14
ENDBRANCH  11  13
ENDBRANCH   1  11
TORSDOF 6
