REMARK  Name = 
REMARK  2 active torsions:
REMARK  status: ('A' for Active; 'I' for Inactive)
REMARK    1  A    between atoms: C_2  and  C_5
REMARK    2  A    between atoms: C_5  and  N_11
REMARK                            x       y       z     vdW  Elec       q    Type
REMARK                         _______ _______ _______ _____ _____    ______ ____
ROOT
ATOM      1  C   UNL     1      -4.091   1.909   0.000  0.00  0.00    +0.167 C 
ATOM      2  C   UNL     1      -4.621   2.541   0.000  0.00  0.00    +0.029 C 
ATOM      3  C   UNL     1      -5.434   2.397   0.000  0.00  0.00    +0.002 C 
ATOM      4  C   UNL     1      -5.716   1.622   0.000  0.00  0.00    +0.000 C 
ATOM      5  C   UNL     1      -5.186   0.990   0.000  0.00  0.00    +0.002 C 
ATOM      6  C   UNL     1      -4.373   1.133   0.000  0.00  0.00    +0.029 C 
ENDROOT
BRANCH   1   7
ATOM      7  N   UNL     1      -3.377   1.496   0.000  0.00  0.00    -0.182 NA
ATOM      8  C   UNL     1      -3.377   0.671   0.000  0.00  0.00    +0.345 C 
ATOM      9  N   UNL     1      -2.662   0.259   0.000  0.00  0.00    -0.134 NA
ATOM     10  C   UNL     1      -2.662  -0.566   0.000  0.00  0.00    +0.209 A 
ATOM     11  S   UNL     1      -3.330  -1.051   0.000  0.00  0.00    -0.027 S 
ATOM     12  C   UNL     1      -3.075  -1.836   0.000  0.00  0.00    +0.161 A 
ATOM     13  N   UNL     1      -2.250  -1.836   0.000  0.00  0.00    -0.137 NA
ATOM     14  N   UNL     1      -1.995  -1.051   0.000  0.00  0.00    -0.123 NA
ATOM     15  O   UNL     1      -4.091   0.259   0.000  0.00  0.00    -0.249 OA
ENDBRANCH   1   7
BRANCH   1  17
ATOM     16  F   UNL     1      -3.030   3.173   0.000  0.00  0.00    -0.168 F 
ATOM     17  C   UNL     1      -3.561   2.541   0.000  0.00  0.00    +0.414 C 
ATOM     18  F   UNL     1      -2.929   2.010   0.000  0.00  0.00    -0.168 F 
ATOM     19  F   UNL     1      -4.193   3.071   0.000  0.00  0.00    -0.168 F 
ENDBRANCH   1  17
TORSDOF 2
