REMARK  Name = 
REMARK  1 active torsions:
REMARK  status: ('A' for Active; 'I' for Inactive)
REMARK    1  A    between atoms: C_2  and  C_4
REMARK                            x       y       z     vdW  Elec       q    Type
REMARK                         _______ _______ _______ _____ _____    ______ ____
ROOT
ATOM      1  C   UNL     1       0.715  -1.238   0.000  0.00  0.00    +0.185 C 
ATOM      2  N   UNL     1       0.000  -1.650   0.000  0.00  0.00    -0.267 N 
ATOM      3  C   UNL     1      -0.715  -1.238   0.000  0.00  0.00    +0.221 A 
ATOM      4  N   UNL     1      -0.715  -0.412   0.000  0.00  0.00    -0.211 NA
ATOM      5  C   UNL     1      -1.429   0.000   0.000  0.00  0.00    +0.115 A 
ATOM      6  C   UNL     1      -2.143  -0.412   0.000  0.00  0.00    +0.096 A 
ATOM      7 CL   UNL     1      -2.858   0.000   0.000  0.00  0.00    -0.079 Cl
ATOM      8  C   UNL     1      -2.143  -1.238   0.000  0.00  0.00    +0.115 A 
ATOM      9  N   UNL     1      -1.429  -1.650   0.000  0.00  0.00    -0.211 NA
ATOM     10  C   UNL     1       0.000  -2.475   0.000  0.00  0.00    +0.126 C 
ATOM     11  C   UNL     1       0.715  -2.888   0.000  0.00  0.00    +0.164 C 
ATOM     12  O   UNL     1       1.429  -2.475   0.000  0.00  0.00    -0.350 OA
ATOM     13  C   UNL     1       1.429  -1.650   0.000  0.00  0.00    +0.171 C 
ENDROOT
BRANCH   1  15
ATOM     14  N   UNL     1       1.429   0.000   0.000  0.00  0.00    -0.086 NA
ATOM     15  C   UNL     1       0.715  -0.412   0.000  0.00  0.00    +0.281 C 
ATOM     16  O   UNL     1       0.000   0.000   0.000  0.00  0.00    -0.270 OA
ENDBRANCH   1  15
TORSDOF 1
