REMARK  Name = 
REMARK  9 active torsions:
REMARK  status: ('A' for Active; 'I' for Inactive)
REMARK    1  A    between atoms: N_2  and  C_8
REMARK    2  A    between atoms: C_5  and  N_14
REMARK    3  A    between atoms: C_7  and  C_8
REMARK    4  A    between atoms: C_12  and  C_19
REMARK    5  A    between atoms: N_14  and  C_21
REMARK    6  A    between atoms: N_14  and  C_23
REMARK    7  A    between atoms: C_19  and  C_21
REMARK    8  A    between atoms: O_22  and  C_25
REMARK    9  A    between atoms: C_23  and  C_25
REMARK                            x       y       z     vdW  Elec       q    Type
REMARK                         _______ _______ _______ _____ _____    ______ ____
ROOT
ATOM      1  C   UNL     1       2.254  -0.858   0.000  0.00  0.00    +0.149 A 
ATOM      2  C   UNL     1       1.446  -1.013   0.000  0.00  0.00    +0.154 A 
ATOM      3  N   UNL     1       0.904  -0.392   0.000  0.00  0.00    -0.207 NA
ATOM      4  C   UNL     1       1.175   0.388   0.000  0.00  0.00    +0.201 A 
ATOM      5  N   UNL     1       1.984   0.546   0.000  0.00  0.00    -0.205 NA
ATOM      6  N   UNL     1       2.913  -1.358   0.000  0.00  0.00    -0.219 NA
ATOM      7  C   UNL     1       3.588  -0.883   0.000  0.00  0.00    +0.180 A 
ATOM      8  N   UNL     1       3.350  -0.096   0.000  0.00  0.00    -0.292 N 
ATOM      9  C   UNL     1       2.525  -0.079   0.000  0.00  0.00    +0.167 A 
ENDROOT
BRANCH   2  10
ATOM     10  N   UNL     1       1.175  -1.796   0.000  0.00  0.00    -0.288 N 
BRANCH  10  11
ATOM     11  C   UNL     1       0.362  -1.950   0.000  0.00  0.00    +0.124 C 
BRANCH  11  12
ATOM     12  C   UNL     1       0.092  -2.729   0.000  0.00  0.00    +0.164 C 
BRANCH  12  13
ATOM     13  O   UNL     1      -0.717  -2.888   0.000  0.00  0.00    -0.349 OA
ATOM     14  C   UNL     1      -0.988  -3.667   0.000  0.00  0.00    +0.174 C 
ENDBRANCH  12  13
ENDBRANCH  11  12
ENDBRANCH  10  11
BRANCH  10  15
ATOM     15  C   UNL     1       1.713  -2.417   0.000  0.00  0.00    +0.108 C 
BRANCH  15  16
ATOM     16  C   UNL     1       2.525  -2.263   0.000  0.00  0.00    +0.127 C 
BRANCH  16  17
ATOM     17  C   UNL     1       3.063  -2.888   0.000  0.00  0.00    +0.075 C 
ATOM     18  N   UNL     1       3.605  -3.509   0.000  0.00  0.00    -0.196 NA
ENDBRANCH  16  17
ENDBRANCH  15  16
ENDBRANCH  10  15
ENDBRANCH   2  10
BRANCH   8  19
ATOM     19  C   UNL     1       3.846   0.563   0.000  0.00  0.00    +0.142 C 
BRANCH  19  20
ATOM     20  C   UNL     1       4.667   0.463   0.000  0.00  0.00    +0.174 C 
ATOM     21  O   UNL     1       4.480  -0.342   0.000  0.00  0.00    -0.221 OA
ATOM     22  C   UNL     1       4.680   1.288   0.000  0.00  0.00    +0.067 C 
ATOM     23  C   UNL     1       5.471   1.525   0.000  0.00  0.00    +0.145 C 
ATOM     24  O   UNL     1       5.942   0.850   0.000  0.00  0.00    -0.354 OA
ATOM     25  C   UNL     1       5.446   0.192   0.000  0.00  0.00    +0.145 C 
ATOM     26  C   UNL     1       5.684  -0.600   0.000  0.00  0.00    +0.035 C 
ENDBRANCH  19  20
ENDBRANCH   8  19
TORSDOF 9
