REMARK  Name = 
REMARK  6 active torsions:
REMARK  status: ('A' for Active; 'I' for Inactive)
REMARK    1  A    between atoms: C_2  and  C_4
REMARK    2  A    between atoms: C_4  and  N_5
REMARK    3  A    between atoms: C_7  and  C_11
REMARK    4  A    between atoms: N_13  and  C_14
REMARK    5  A    between atoms: C_14  and  C_15
REMARK    6  A    between atoms: C_15  and  C_16
REMARK                            x       y       z     vdW  Elec       q    Type
REMARK                         _______ _______ _______ _____ _____    ______ ____
ROOT
ATOM      1  C   UNL     1       0.715  -2.888   0.000  0.00  0.00    +0.243 C 
ATOM      2  N   UNL     1       1.429  -2.475   0.000  0.00  0.00    -0.205 NA
ATOM      3  O   UNL     1       0.715  -3.712   0.000  0.00  0.00    -0.273 OA
ENDROOT
BRANCH   1   8
ATOM      4  N   UNL     1      -0.893  -1.483   0.000  0.00  0.00    -0.279 N 
ATOM      5  C   UNL     1      -1.306  -2.197   0.000  0.00  0.00    +0.226 C 
ATOM      6  O   UNL     1      -2.126  -2.284   0.000  0.00  0.00    -0.275 OA
ATOM      7  C   UNL     1      -0.754  -2.811   0.000  0.00  0.00    +0.096 C 
ATOM      8  C   UNL     1       0.000  -2.475   0.000  0.00  0.00    +0.107 C 
ATOM      9  C   UNL     1      -0.086  -1.655   0.000  0.00  0.00    +0.103 C 
BRANCH   4  10
ATOM     10  C   UNL     1      -1.229  -0.729   0.000  0.00  0.00    +0.093 C 
BRANCH  10  12
ATOM     11  C   UNL     1      -2.385   0.111   0.000  0.00  0.00    +0.002 C 
ATOM     12  C   UNL     1      -2.049  -0.643   0.000  0.00  0.00    +0.020 C 
ATOM     13  C   UNL     1      -2.534  -1.310   0.000  0.00  0.00    +0.002 C 
ENDBRANCH  10  12
ENDBRANCH   4  10
ENDBRANCH   1   8
BRANCH   2  14
ATOM     14  C   UNL     1       2.143  -2.888   0.000  0.00  0.00    +0.121 C 
BRANCH  14  15
ATOM     15  C   UNL     1       2.858  -2.475   0.000  0.00  0.00    +0.069 C 
BRANCH  15  16
ATOM     16  C   UNL     1       3.572  -2.888   0.000  0.00  0.00    +0.061 A 
ATOM     17  N   UNL     1       3.572  -3.712   0.000  0.00  0.00    -0.248 NA
ATOM     18  C   UNL     1       4.287  -4.125   0.000  0.00  0.00    +0.098 A 
ATOM     19  C   UNL     1       5.001  -3.712   0.000  0.00  0.00    +0.021 A 
ATOM     20  C   UNL     1       5.001  -2.888   0.000  0.00  0.00    +0.003 A 
ATOM     21  C   UNL     1       4.287  -2.475   0.000  0.00  0.00    +0.015 A 
ENDBRANCH  15  16
ENDBRANCH  14  15
ENDBRANCH   2  14
TORSDOF 6
