REMARK  Name = 
REMARK  3 active torsions:
REMARK  status: ('A' for Active; 'I' for Inactive)
REMARK    1  A    between atoms: N_9  and  C_10
REMARK    2  A    between atoms: N_13  and  C_14
REMARK    3  A    between atoms: C_14  and  C_15
REMARK                            x       y       z     vdW  Elec       q    Type
REMARK                         _______ _______ _______ _____ _____    ______ ____
ROOT
ATOM      1  C   UNL     1      -0.107   5.590   0.000  0.00  0.00    +0.100 C 
ATOM      2  C   UNL     1      -0.107   4.765   0.000  0.00  0.00    +0.039 C 
ATOM      3  C   UNL     1       0.608   4.353   0.000  0.00  0.00    +0.074 C 
ATOM      4  N   UNL     1       1.322   4.765   0.000  0.00  0.00    -0.272 NA
ATOM      5  C   UNL     1       1.322   5.590   0.000  0.00  0.00    +0.074 C 
ATOM      6  C   UNL     1       0.608   6.003   0.000  0.00  0.00    +0.039 C 
ENDROOT
BRANCH   1  14
ATOM      7  C   UNL     1      -5.108   4.353   0.000  0.00  0.00    +0.033 C 
ATOM      8  C   UNL     1      -4.394   4.765   0.000  0.00  0.00    -0.003 A 
ATOM      9  C   UNL     1      -3.679   4.353   0.000  0.00  0.00    +0.096 A 
ATOM     10  N   UNL     1      -2.965   4.765   0.000  0.00  0.00    -0.228 NA
ATOM     11  C   UNL     1      -2.965   5.590   0.000  0.00  0.00    +0.156 A 
ATOM     12  N   UNL     1      -2.250   6.003   0.000  0.00  0.00    -0.142 NA
ATOM     13  C   UNL     1      -1.536   5.590   0.000  0.00  0.00    +0.345 C 
ATOM     14  N   UNL     1      -0.821   6.003   0.000  0.00  0.00    -0.189 NA
ATOM     15  O   UNL     1      -1.536   4.765   0.000  0.00  0.00    -0.249 OA
ATOM     16  C   UNL     1      -3.679   6.003   0.000  0.00  0.00    +0.036 A 
ATOM     17  C   UNL     1      -4.394   5.590   0.000  0.00  0.00    +0.000 A 
ENDBRANCH   1  14
BRANCH   4  18
ATOM     18  C   UNL     1       2.037   4.353   0.000  0.00  0.00    +0.075 C 
BRANCH  18  19
ATOM     19  C   UNL     1       2.037   3.528   0.000  0.00  0.00    +0.048 C 
ATOM     20  C   UNL     1       1.369   3.043   0.000  0.00  0.00    +0.144 C 
ATOM     21  O   UNL     1       1.624   2.258   0.000  0.00  0.00    -0.354 OA
ATOM     22  C   UNL     1       2.449   2.258   0.000  0.00  0.00    +0.142 C 
ATOM     23  C   UNL     1       2.704   3.043   0.000  0.00  0.00    +0.036 C 
ENDBRANCH  18  19
ENDBRANCH   4  18
TORSDOF 3
