REMARK  Name = 
REMARK  6 active torsions:
REMARK  status: ('A' for Active; 'I' for Inactive)
REMARK    1  A    between atoms: C_2  and  C_3
REMARK    2  A    between atoms: C_3  and  N_4
REMARK    3  A    between atoms: N_12  and  C_13
REMARK    4  A    between atoms: C_13  and  C_14
REMARK    5  A    between atoms: C_14  and  S_15
REMARK    6  A    between atoms: S_15  and  C_16
REMARK                            x       y       z     vdW  Elec       q    Type
REMARK                         _______ _______ _______ _____ _____    ______ ____
ROOT
ATOM      1  O   UNL     1       1.429  -0.825   0.000  0.00  0.00    -0.271 OA
ATOM      2  C   UNL     1       1.429  -1.650   0.000  0.00  0.00    +0.265 C 
ATOM      3  N   UNL     1       2.143  -2.062   0.000  0.00  0.00    -0.203 NA
ENDROOT
BRANCH   3   4
ATOM      4  C   UNL     1       2.858  -1.650   0.000  0.00  0.00    +0.127 C 
BRANCH   4   5
ATOM      5  C   UNL     1       3.572  -2.062   0.000  0.00  0.00    +0.081 C 
BRANCH   5   6
ATOM      6  S   UNL     1       4.287  -1.650   0.000  0.00  0.00    -0.139 S 
BRANCH   6   7
ATOM      7  C   UNL     1       5.001  -2.062   0.000  0.00  0.00    +0.048 C 
ATOM      8  C   UNL     1       5.088  -2.883   0.000  0.00  0.00    +0.011 C 
ATOM      9  C   UNL     1       5.894  -3.054   0.000  0.00  0.00    +0.001 C 
ATOM     10  C   UNL     1       6.307  -2.340   0.000  0.00  0.00    +0.001 C 
ATOM     11  C   UNL     1       5.755  -1.727   0.000  0.00  0.00    +0.011 C 
ENDBRANCH   6   7
ENDBRANCH   5   6
ENDBRANCH   4   5
ENDBRANCH   3   4
BRANCH   2  12
ATOM     12  C   UNL     1       0.715  -2.062   0.000  0.00  0.00    +0.197 C 
BRANCH  12  13
ATOM     13  N   UNL     1       0.000  -1.650   0.000  0.00  0.00    -0.269 N 
ATOM     14  C   UNL     1       0.000  -0.825   0.000  0.00  0.00    +0.353 A 
ATOM     15  O   UNL     1       0.715  -0.412   0.000  0.00  0.00    -0.244 OA
ATOM     16  N   UNL     1      -0.715  -0.412   0.000  0.00  0.00    -0.153 NA
ATOM     17  C   UNL     1      -1.429  -0.825   0.000  0.00  0.00    +0.285 A 
ATOM     18  O   UNL     1      -2.143  -0.412   0.000  0.00  0.00    -0.265 OA
ATOM     19  C   UNL     1      -1.429  -1.650   0.000  0.00  0.00    +0.081 A 
ATOM     20  C   UNL     1      -0.715  -2.062   0.000  0.00  0.00    +0.085 A 
ENDBRANCH  12  13
ENDBRANCH   2  12
TORSDOF 6
