REMARK  Name = 
REMARK  4 active torsions:
REMARK  status: ('A' for Active; 'I' for Inactive)
REMARK    1  A    between atoms: C_2  and  C_3
REMARK    2  A    between atoms: C_2  and  N_13
REMARK    3  A    between atoms: N_5  and  C_6
REMARK    4  A    between atoms: C_6  and  C_7
REMARK                            x       y       z     vdW  Elec       q    Type
REMARK                         _______ _______ _______ _____ _____    ______ ____
ROOT
ATOM      1  C   UNL     1       1.429  -2.475   0.000  0.00  0.00    +0.264 C 
ATOM      2  N   UNL     1       2.143  -2.888   0.000  0.00  0.00    -0.204 NA
ATOM      3  O   UNL     1       1.429  -1.650   0.000  0.00  0.00    -0.271 OA
ENDROOT
BRANCH   1   5
ATOM      4  C   UNL     1       0.715  -3.712   0.000  0.00  0.00    +0.036 C 
ATOM      5  C   UNL     1       0.715  -2.888   0.000  0.00  0.00    +0.184 C 
BRANCH   5   6
ATOM      6  N   UNL     1       0.000  -2.475   0.000  0.00  0.00    -0.223 N 
ATOM      7  N   UNL     1      -0.086  -1.655   0.000  0.00  0.00    -0.145 NA
ATOM      8  C   UNL     1      -0.893  -1.483   0.000  0.00  0.00    +0.221 A 
ATOM      9  N   UNL     1      -1.306  -2.197   0.000  0.00  0.00    -0.201 NA
ATOM     10  C   UNL     1      -0.754  -2.811   0.000  0.00  0.00    +0.198 A 
ENDBRANCH   5   6
ENDBRANCH   1   5
BRANCH   2  11
ATOM     11  C   UNL     1       2.858  -2.475   0.000  0.00  0.00    +0.115 C 
BRANCH  11  12
ATOM     12  C   UNL     1       3.572  -2.888   0.000  0.00  0.00    +0.022 C 
ATOM     13  C   UNL     1       3.572  -3.712   0.000  0.00  0.00    +0.002 C 
ATOM     14  C   UNL     1       4.287  -4.125   0.000  0.00  0.00    +0.000 C 
ATOM     15  C   UNL     1       5.001  -3.712   0.000  0.00  0.00    +0.000 C 
ATOM     16  C   UNL     1       5.001  -2.888   0.000  0.00  0.00    +0.000 C 
ATOM     17  C   UNL     1       4.287  -2.475   0.000  0.00  0.00    +0.002 C 
ENDBRANCH  11  12
ENDBRANCH   2  11
TORSDOF 4
