REMARK  Name = 
REMARK  2 active torsions:
REMARK  status: ('A' for Active; 'I' for Inactive)
REMARK    1  A    between atoms: N_9  and  C_10
REMARK    2  A    between atoms: C_12  and  C_13
REMARK                            x       y       z     vdW  Elec       q    Type
REMARK                         _______ _______ _______ _____ _____    ______ ____
ROOT
ATOM      1  C   UNL     1      -0.821   8.478   0.000  0.00  0.00    +0.033 C 
ATOM      2  C   UNL     1      -0.107   8.065   0.000  0.00  0.00    -0.003 A 
ATOM      3  C   UNL     1      -0.107   7.240   0.000  0.00  0.00    +0.096 A 
ATOM      4  N   UNL     1       0.608   6.828   0.000  0.00  0.00    -0.228 NA
ATOM      5  C   UNL     1       1.322   7.240   0.000  0.00  0.00    +0.156 A 
ATOM      6  N   UNL     1       2.037   6.828   0.000  0.00  0.00    -0.142 NA
ATOM      7  C   UNL     1       2.037   6.003   0.000  0.00  0.00    +0.345 C 
ATOM      8  N   UNL     1       2.751   5.590   0.000  0.00  0.00    -0.184 NA
ATOM      9  O   UNL     1       1.322   5.590   0.000  0.00  0.00    -0.249 OA
ATOM     10  C   UNL     1       1.322   8.065   0.000  0.00  0.00    +0.036 A 
ATOM     11  C   UNL     1       0.608   8.478   0.000  0.00  0.00    +0.000 A 
ENDROOT
BRANCH   8  12
ATOM     12  C   UNL     1       2.751   4.765   0.000  0.00  0.00    +0.119 C 
ATOM     13  C   UNL     1       2.084   4.280   0.000  0.00  0.00    -0.009 C 
ATOM     14  C   UNL     1       2.339   3.496   0.000  0.00  0.00    -0.027 C 
ATOM     15  C   UNL     1       3.164   3.496   0.000  0.00  0.00    +0.057 C 
ATOM     16  C   UNL     1       3.419   4.280   0.000  0.00  0.00    +0.033 C 
BRANCH  15  17
ATOM     17  C   UNL     1       3.649   2.828   0.000  0.00  0.00    +0.186 C 
ATOM     18  O   UNL     1       4.469   2.914   0.000  0.00  0.00    -0.220 OA
ENDBRANCH  15  17
ENDBRANCH   8  12
TORSDOF 2
