REMARK  Name = 
REMARK  7 active torsions:
REMARK  status: ('A' for Active; 'I' for Inactive)
REMARK    1  A    between atoms: C_2  and  N_3
REMARK    2  A    between atoms: C_2  and  C_11
REMARK    3  A    between atoms: N_3  and  C_4
REMARK    4  A    between atoms: C_4  and  C_5
REMARK    5  A    between atoms: C_5  and  C_6
REMARK    6  A    between atoms: C_6  and  S_7
REMARK    7  A    between atoms: C_11  and  N_13
REMARK                            x       y       z     vdW  Elec       q    Type
REMARK                         _______ _______ _______ _____ _____    ______ ____
ROOT
ATOM      1  C   UNL     1       2.816  -3.233   0.000  0.00  0.00    +0.021 C 
ATOM      2  C   UNL     1       2.816  -2.408   0.000  0.00  0.00    +0.095 C 
ENDROOT
BRANCH   2   3
ATOM      3  C   UNL     1       3.530  -1.996   0.000  0.00  0.00    +0.121 C 
ATOM      4  C   UNL     1       3.530  -1.171   0.000  0.00  0.00    +0.028 C 
BRANCH   3   5
ATOM      5  N   UNL     1       4.245  -2.408   0.000  0.00  0.00    -0.250 N 
ATOM      6  N   UNL     1       4.331  -3.229   0.000  0.00  0.00    -0.168 NA
ATOM      7  C   UNL     1       5.138  -3.400   0.000  0.00  0.00    +0.122 A 
ATOM      8  C   UNL     1       5.551  -2.686   0.000  0.00  0.00    +0.043 A 
ATOM      9  C   UNL     1       4.999  -2.073   0.000  0.00  0.00    +0.097 A 
ENDBRANCH   3   5
ENDBRANCH   2   3
BRANCH   2  10
ATOM     10  N   UNL     1       2.102  -1.996   0.000  0.00  0.00    -0.217 NA
BRANCH  10  11
ATOM     11  C   UNL     1       1.387  -2.408   0.000  0.00  0.00    +0.091 C 
BRANCH  11  12
ATOM     12  C   UNL     1       0.672  -1.996   0.000  0.00  0.00    +0.046 C 
BRANCH  12  13
ATOM     13  C   UNL     1      -0.042  -2.408   0.000  0.00  0.00    +0.174 C 
BRANCH  13  14
ATOM     14  S   UNL     1      -0.756  -1.996   0.000  0.00  0.00    +0.074 S 
ATOM     15  N   UNL     1      -0.344  -1.281   0.000  0.00  0.00    +0.035 NA
ATOM     16  O   UNL     1      -1.169  -2.710   0.000  0.00  0.00    -0.155 OA
ATOM     17  O   UNL     1      -1.471  -1.583   0.000  0.00  0.00    -0.155 OA
ENDBRANCH  13  14
ENDBRANCH  12  13
ENDBRANCH  11  12
ENDBRANCH  10  11
ENDBRANCH   2  10
TORSDOF 7
