REMARK  Name = 
REMARK  2 active torsions:
REMARK  status: ('A' for Active; 'I' for Inactive)
REMARK    1  A    between atoms: C_2  and  C_3
REMARK    2  A    between atoms: N_7  and  C_8
REMARK                            x       y       z     vdW  Elec       q    Type
REMARK                         _______ _______ _______ _____ _____    ______ ____
ROOT
ATOM      1  C   UNL     1      -0.551   3.429   0.000  0.00  0.00    +0.088 A 
ATOM      2  C   UNL     1      -1.265   3.017   0.000  0.00  0.00    +0.111 A 
ATOM      3  N   UNL     1      -1.265   2.192   0.000  0.00  0.00    -0.227 NA
ATOM      4  C   UNL     1      -0.551   1.779   0.000  0.00  0.00    +0.148 A 
ATOM      5  N   UNL     1      -0.551   0.954   0.000  0.00  0.00    -0.220 NA
ATOM      6  C   UNL     1       0.164   2.192   0.000  0.00  0.00    +0.036 A 
ATOM      7  C   UNL     1       0.164   3.017   0.000  0.00  0.00    +0.015 A 
ENDROOT
BRANCH   5   8
ATOM      8  C   UNL     1       0.164   0.542   0.000  0.00  0.00    +0.123 C 
ATOM      9  C   UNL     1       0.878   0.954   0.000  0.00  0.00    +0.135 C 
ATOM     10  O   UNL     1       0.672   0.129   0.000  0.00  0.00    -0.357 OA
ATOM     11  C   UNL     1       0.878  -0.696   0.000  0.00  0.00    +0.117 C 
ATOM     12  C   UNL     1       1.593  -0.283   0.000  0.00  0.00    +0.032 C 
ATOM     13  C   UNL     1       1.593   0.542   0.000  0.00  0.00    +0.034 C 
ATOM     14  C   UNL     1       0.164  -0.283   0.000  0.00  0.00    +0.054 C 
ENDBRANCH   5   8
BRANCH   1  16
ATOM     15  N   UNL     1      -0.551   5.079   0.000  0.00  0.00    -0.191 NA
ATOM     16  C   UNL     1      -0.551   4.254   0.000  0.00  0.00    +0.102 C 
ENDBRANCH   1  16
TORSDOF 2
