REMARK  Name = 
REMARK  4 active torsions:
REMARK  status: ('A' for Active; 'I' for Inactive)
REMARK    1  A    between atoms: C_4  and  C_5
REMARK    2  A    between atoms: C_5  and  S_6
REMARK    3  A    between atoms: S_6  and  N_9
REMARK    4  A    between atoms: N_9  and  C_10
REMARK                            x       y       z     vdW  Elec       q    Type
REMARK                         _______ _______ _______ _____ _____    ______ ____
ROOT
ATOM      1  S   UNL     1       3.049  -5.078   0.000  0.00  0.00    +0.065 S 
ATOM      2  O   UNL     1       2.963  -4.258   0.000  0.00  0.00    -0.156 OA
ATOM      3  O   UNL     1       3.135  -5.899   0.000  0.00  0.00    -0.156 OA
ENDROOT
BRANCH   1   4
ATOM      4  C   UNL     1       2.229  -5.165   0.000  0.00  0.00    +0.237 C 
BRANCH   4   9
ATOM      5  C   UNL     1       1.331  -2.403   0.000  0.00  0.00    +0.056 C 
ATOM      6  C   UNL     1       1.331  -3.228   0.000  0.00  0.00    +0.101 A 
ATOM      7  N   UNL     1       0.664  -3.713   0.000  0.00  0.00    -0.082 NA
ATOM      8  O   UNL     1       0.919  -4.497   0.000  0.00  0.00    -0.356 OA
ATOM      9  C   UNL     1       1.744  -4.497   0.000  0.00  0.00    +0.180 A 
ATOM     10  C   UNL     1       1.999  -3.713   0.000  0.00  0.00    +0.055 A 
ENDBRANCH   4   9
ENDBRANCH   1   4
BRANCH   1  11
ATOM     11  N   UNL     1       3.870  -4.992   0.000  0.00  0.00    -0.083 NA
BRANCH  11  12
ATOM     12  C   UNL     1       4.354  -5.660   0.000  0.00  0.00    +0.097 C 
ATOM     13  C   UNL     1       3.964  -6.386   0.000  0.00  0.00    +0.019 C 
ATOM     14  C   UNL     1       4.288  -7.145   0.000  0.00  0.00    +0.001 C 
ATOM     15  C   UNL     1       5.083  -7.364   0.000  0.00  0.00    +0.000 C 
ATOM     16  C   UNL     1       5.750  -6.879   0.000  0.00  0.00    +0.000 C 
ATOM     17  C   UNL     1       5.788  -6.055   0.000  0.00  0.00    +0.001 C 
ATOM     18  C   UNL     1       5.166  -5.512   0.000  0.00  0.00    +0.019 C 
ENDBRANCH  11  12
ENDBRANCH   1  11
TORSDOF 4
