REMARK  Name = 
REMARK  4 active torsions:
REMARK  status: ('A' for Active; 'I' for Inactive)
REMARK    1  A    between atoms: N_3  and  C_4
REMARK    2  A    between atoms: C_4  and  C_5
REMARK    3  A    between atoms: C_5  and  N_6
REMARK    4  A    between atoms: N_11  and  C_12
REMARK                            x       y       z     vdW  Elec       q    Type
REMARK                         _______ _______ _______ _____ _____    ______ ____
ROOT
ATOM      1  O   UNL     1       2.784  -5.417   0.000  0.00  0.00    -0.249 OA
ATOM      2  C   UNL     1       2.784  -4.591   0.000  0.00  0.00    +0.339 C 
ATOM      3  N   UNL     1       3.499  -4.179   0.000  0.00  0.00    -0.189 NA
ATOM      4  N   UNL     1       2.070  -4.179   0.000  0.00  0.00    -0.185 NA
ENDROOT
BRANCH   3   5
ATOM      5  C   UNL     1       4.213  -4.591   0.000  0.00  0.00    +0.097 C 
ATOM      6  C   UNL     1       4.105  -5.409   0.000  0.00  0.00    +0.022 C 
ATOM      7  C   UNL     1       4.608  -6.064   0.000  0.00  0.00    +0.002 C 
ATOM      8  C   UNL     1       5.426  -6.172   0.000  0.00  0.00    +0.000 C 
ATOM      9  C   UNL     1       6.080  -5.669   0.000  0.00  0.00    +0.000 C 
ATOM     10  C   UNL     1       6.188  -4.851   0.000  0.00  0.00    +0.000 C 
ATOM     11  C   UNL     1       5.686  -4.197   0.000  0.00  0.00    +0.002 C 
ATOM     12  C   UNL     1       4.867  -4.089   0.000  0.00  0.00    +0.022 C 
ENDBRANCH   3   5
BRANCH   4  13
ATOM     13  C   UNL     1       1.355  -4.591   0.000  0.00  0.00    +0.141 C 
BRANCH  13  14
ATOM     14  C   UNL     1       0.641  -4.179   0.000  0.00  0.00    +0.131 C 
BRANCH  14  15
ATOM     15  N   UNL     1      -0.074  -4.591   0.000  0.00  0.00    -0.306 N 
ATOM     16  C   UNL     1      -0.828  -4.256   0.000  0.00  0.00    +0.179 A 
ATOM     17  N   UNL     1      -1.379  -4.869   0.000  0.00  0.00    -0.222 NA
ATOM     18  C   UNL     1      -0.967  -5.583   0.000  0.00  0.00    +0.119 A 
ATOM     19  C   UNL     1      -0.160  -5.412   0.000  0.00  0.00    +0.098 A 
ENDBRANCH  14  15
ENDBRANCH  13  14
ENDBRANCH   4  13
TORSDOF 4
