REMARK  Name = 
REMARK  3 active torsions:
REMARK  status: ('A' for Active; 'I' for Inactive)
REMARK    1  A    between atoms: N_9  and  C_10
REMARK    2  A    between atoms: C_10  and  C_11
REMARK    3  A    between atoms: C_14  and  C_16
REMARK                            x       y       z     vdW  Elec       q    Type
REMARK                         _______ _______ _______ _____ _____    ______ ____
ROOT
ATOM      1  C   UNL     1      -1.915  -4.183   0.000  0.00  0.00    +0.053 C 
ATOM      2  C   UNL     1      -1.580  -3.429   0.000  0.00  0.00    +0.068 A 
ATOM      3  N   UNL     1      -0.773  -3.258   0.000  0.00  0.00    -0.227 NA
ATOM      4  C   UNL     1      -0.686  -2.437   0.000  0.00  0.00    +0.187 A 
ATOM      5  N   UNL     1       0.028  -2.025   0.000  0.00  0.00    -0.136 NA
ATOM      6  C   UNL     1       0.743  -2.437   0.000  0.00  0.00    +0.345 C 
ATOM      7  N   UNL     1       1.457  -2.025   0.000  0.00  0.00    -0.184 NA
ATOM      8  O   UNL     1       0.743  -3.262   0.000  0.00  0.00    -0.249 OA
ATOM      9  S   UNL     1      -1.440  -2.102   0.000  0.00  0.00    -0.049 S 
ATOM     10  C   UNL     1      -1.992  -2.715   0.000  0.00  0.00    +0.053 A 
ENDROOT
BRANCH   7  11
ATOM     11  C   UNL     1       2.171  -2.437   0.000  0.00  0.00    +0.146 C 
BRANCH  11  12
ATOM     12  C   UNL     1       2.886  -2.025   0.000  0.00  0.00    +0.138 C 
ATOM     13  O   UNL     1       3.640  -2.360   0.000  0.00  0.00    -0.348 OA
ATOM     14  C   UNL     1       4.192  -1.747   0.000  0.00  0.00    +0.194 C 
ATOM     15  C   UNL     1       3.779  -1.033   0.000  0.00  0.00    +0.042 C 
ATOM     16  C   UNL     1       2.972  -1.204   0.000  0.00  0.00    +0.034 C 
BRANCH  14  17
ATOM     17  C   UNL     1       5.012  -1.833   0.000  0.00  0.00    +0.288 C 
ATOM     18  N   UNL     1       5.348  -2.587   0.000  0.00  0.00    -0.086 NA
ATOM     19  O   UNL     1       5.497  -1.166   0.000  0.00  0.00    -0.269 OA
ENDBRANCH  14  17
ENDBRANCH  11  12
ENDBRANCH   7  11
TORSDOF 3
