REMARK  Name = 
REMARK  3 active torsions:
REMARK  status: ('A' for Active; 'I' for Inactive)
REMARK    1  A    between atoms: C_3  and  C_5
REMARK    2  A    between atoms: C_10  and  N_11
REMARK    3  A    between atoms: N_11  and  C_12
REMARK                            x       y       z     vdW  Elec       q    Type
REMARK                         _______ _______ _______ _____ _____    ______ ____
ROOT
ATOM      1  C   UNL     1      -1.265   2.192   0.000  0.00  0.00    +0.088 A 
ATOM      2  C   UNL     1      -0.551   1.779   0.000  0.00  0.00    +0.152 A 
ATOM      3  N   UNL     1       0.164   2.192   0.000  0.00  0.00    -0.228 NA
ATOM      4  C   UNL     1       0.164   3.017   0.000  0.00  0.00    +0.100 A 
ATOM      5  C   UNL     1      -0.551   3.429   0.000  0.00  0.00    +0.021 A 
ATOM      6  C   UNL     1      -1.265   3.017   0.000  0.00  0.00    +0.009 A 
ENDROOT
BRANCH   1   9
ATOM      7  C   UNL     1      -3.409   1.779   0.000  0.00  0.00    +0.139 C 
ATOM      8  N   UNL     1      -2.694   2.192   0.000  0.00  0.00    -0.200 NA
ATOM      9  C   UNL     1      -1.980   1.779   0.000  0.00  0.00    +0.268 C 
ATOM     10  O   UNL     1      -1.980   0.954   0.000  0.00  0.00    -0.268 OA
ENDBRANCH   1   9
BRANCH   2  11
ATOM     11  N   UNL     1      -0.551   0.954   0.000  0.00  0.00    -0.219 NA
BRANCH  11  12
ATOM     12  C   UNL     1       0.164   0.542   0.000  0.00  0.00    +0.123 C 
ATOM     13  C   UNL     1       0.878   0.954   0.000  0.00  0.00    +0.135 C 
ATOM     14  O   UNL     1       0.672   0.129   0.000  0.00  0.00    -0.357 OA
ATOM     15  C   UNL     1       0.878  -0.696   0.000  0.00  0.00    +0.117 C 
ATOM     16  C   UNL     1       1.593  -0.283   0.000  0.00  0.00    +0.032 C 
ATOM     17  C   UNL     1       1.593   0.542   0.000  0.00  0.00    +0.034 C 
ATOM     18  C   UNL     1       0.164  -0.283   0.000  0.00  0.00    +0.054 C 
ENDBRANCH  11  12
ENDBRANCH   2  11
TORSDOF 3
