REMARK  Name = 
REMARK  2 active torsions:
REMARK  status: ('A' for Active; 'I' for Inactive)
REMARK    1  A    between atoms: N_11  and  C_12
REMARK    2  A    between atoms: C_12  and  C_13
REMARK                            x       y       z     vdW  Elec       q    Type
REMARK                         _______ _______ _______ _____ _____    ______ ____
ROOT
ATOM      1  C   UNL     1       4.067   2.348   0.000  0.00  0.00    +0.138 C 
ATOM      2  N   UNL     1       3.352   1.935   0.000  0.00  0.00    -0.245 N 
ATOM      3  C   UNL     1       2.638   2.348   0.000  0.00  0.00    +0.283 A 
ATOM      4  O   UNL     1       2.638   3.173   0.000  0.00  0.00    -0.265 OA
ATOM      5  C   UNL     1       1.923   1.935   0.000  0.00  0.00    +0.153 A 
ATOM      6  C   UNL     1       1.923   1.110   0.000  0.00  0.00    +0.170 A 
ATOM      7  N   UNL     1       1.139   0.856   0.000  0.00  0.00    -0.199 NA
ATOM      8  C   UNL     1       0.654   1.523   0.000  0.00  0.00    +0.207 A 
ATOM      9 CL   UNL     1      -0.171   1.523   0.000  0.00  0.00    -0.043 Cl
ATOM     10  N   UNL     1       2.638   0.698   0.000  0.00  0.00    -0.263 N 
ATOM     11  C   UNL     1       2.638  -0.127   0.000  0.00  0.00    +0.137 C 
ATOM     12  N   UNL     1       1.139   2.190   0.000  0.00  0.00    -0.295 N 
ATOM     13  C   UNL     1       3.352   1.110   0.000  0.00  0.00    +0.335 A 
ATOM     14  O   UNL     1       4.067   0.698   0.000  0.00  0.00    -0.246 OA
ENDROOT
BRANCH  12  15
ATOM     15  C   UNL     1       0.884   2.975   0.000  0.00  0.00    +0.144 C 
BRANCH  15  16
ATOM     16  C   UNL     1       1.436   3.588   0.000  0.00  0.00    +0.207 C 
ATOM     17  O   UNL     1       1.181   4.373   0.000  0.00  0.00    -0.218 OA
ENDBRANCH  15  16
ENDBRANCH  12  15
TORSDOF 2
