REMARK  Name = 
REMARK  3 active torsions:
REMARK  status: ('A' for Active; 'I' for Inactive)
REMARK    1  A    between atoms: C_3  and  C_5
REMARK    2  A    between atoms: C_5  and  C_6
REMARK    3  A    between atoms: C_9  and  C_11
REMARK                            x       y       z     vdW  Elec       q    Type
REMARK                         _______ _______ _______ _____ _____    ______ ____
ROOT
ATOM      1  C   UNL     1      -1.857   1.232   0.000  0.00  0.00    +0.190 A 
ATOM      2  N   UNL     1      -1.305   0.619   0.000  0.00  0.00    -0.194 NA
ATOM      3  C   UNL     1      -0.551   0.954   0.000  0.00  0.00    +0.236 A 
ATOM      4  O   UNL     1      -0.637   1.775   0.000  0.00  0.00    -0.337 OA
ATOM      5  N   UNL     1      -1.444   1.946   0.000  0.00  0.00    -0.060 NA
ENDROOT
BRANCH   3   6
ATOM      6  C   UNL     1       0.164   0.542   0.000  0.00  0.00    +0.079 C 
ATOM      7  C   UNL     1       0.878   0.954   0.000  0.00  0.00    +0.009 C 
ATOM      8  C   UNL     1       0.672   0.129   0.000  0.00  0.00    +0.000 C 
ATOM      9  C   UNL     1       0.878  -0.696   0.000  0.00  0.00    +0.000 C 
ATOM     10  C   UNL     1       1.593  -0.283   0.000  0.00  0.00    +0.000 C 
ATOM     11  C   UNL     1       1.593   0.542   0.000  0.00  0.00    +0.000 C 
ATOM     12  C   UNL     1       0.164  -0.283   0.000  0.00  0.00    +0.009 C 
ENDBRANCH   3   6
BRANCH   1  13
ATOM     13  C   UNL     1      -2.677   1.146   0.000  0.00  0.00    +0.156 C 
BRANCH  13  16
ATOM     14  C   UNL     1      -4.468   2.394   0.000  0.00  0.00    +0.139 C 
ATOM     15  N   UNL     1      -3.982   1.727   0.000  0.00  0.00    -0.203 NA
ATOM     16  C   UNL     1      -3.162   1.813   0.000  0.00  0.00    +0.249 C 
ATOM     17  O   UNL     1      -2.826   2.567   0.000  0.00  0.00    -0.273 OA
ENDBRANCH  13  16
ENDBRANCH   1  13
TORSDOF 3
