REMARK  Name = 
REMARK  4 active torsions:
REMARK  status: ('A' for Active; 'I' for Inactive)
REMARK    1  A    between atoms: N_9  and  C_10
REMARK    2  A    between atoms: C_10  and  C_11
REMARK    3  A    between atoms: N_14  and  C_15
REMARK    4  A    between atoms: C_15  and  C_16
REMARK                            x       y       z     vdW  Elec       q    Type
REMARK                         _______ _______ _______ _____ _____    ______ ____
ROOT
ATOM      1  C   UNL     1      -2.126  -2.284   0.000  0.00  0.00    +0.053 C 
ATOM      2  C   UNL     1      -1.306  -2.197   0.000  0.00  0.00    +0.068 A 
ATOM      3  N   UNL     1      -0.754  -2.811   0.000  0.00  0.00    -0.227 NA
ATOM      4  C   UNL     1       0.000  -2.475   0.000  0.00  0.00    +0.187 A 
ATOM      5  N   UNL     1       0.715  -2.888   0.000  0.00  0.00    -0.136 NA
ATOM      6  C   UNL     1       1.429  -2.475   0.000  0.00  0.00    +0.345 C 
ATOM      7  N   UNL     1       2.143  -2.888   0.000  0.00  0.00    -0.187 NA
ATOM      8  O   UNL     1       1.429  -1.650   0.000  0.00  0.00    -0.249 OA
ATOM      9  S   UNL     1      -0.086  -1.655   0.000  0.00  0.00    -0.049 S 
ATOM     10  C   UNL     1      -0.893  -1.483   0.000  0.00  0.00    +0.053 A 
ENDROOT
BRANCH   7  11
ATOM     11  C   UNL     1       2.858  -2.475   0.000  0.00  0.00    +0.117 C 
BRANCH  11  12
ATOM     12  C   UNL     1       3.572  -2.888   0.000  0.00  0.00    +0.025 C 
ATOM     13  C   UNL     1       3.572  -3.712   0.000  0.00  0.00    +0.019 C 
ATOM     14  C   UNL     1       4.287  -4.125   0.000  0.00  0.00    +0.073 C 
ATOM     15  N   UNL     1       5.001  -3.712   0.000  0.00  0.00    -0.260 NA
ATOM     16  C   UNL     1       5.001  -2.888   0.000  0.00  0.00    +0.073 C 
ATOM     17  C   UNL     1       4.287  -2.475   0.000  0.00  0.00    +0.019 C 
BRANCH  15  18
ATOM     18  C   UNL     1       5.716  -4.125   0.000  0.00  0.00    +0.179 C 
BRANCH  18  19
ATOM     19  C   UNL     1       6.430  -3.712   0.000  0.00  0.00    +0.091 C 
ATOM     20  N   UNL     1       7.145  -3.300   0.000  0.00  0.00    -0.194 NA
ENDBRANCH  18  19
ENDBRANCH  15  18
ENDBRANCH  11  12
ENDBRANCH   7  11
TORSDOF 4
