REMARK  Name = 
REMARK  6 active torsions:
REMARK  status: ('A' for Active; 'I' for Inactive)
REMARK    1  A    between atoms: CG_2  and  CB_4
REMARK    2  A    between atoms: CB_4  and  CA_5
REMARK    3  A    between atoms: CA_5  and  N_6
REMARK    4  A    between atoms: CA_5  and  C_18
REMARK    5  A    between atoms: C_7  and  C_9
REMARK    6  A    between atoms: C_9  and  N_11
REMARK                            x       y       z     vdW  Elec       q    Type
REMARK                         _______ _______ _______ _____ _____    ______ ____
ROOT
ATOM      1  N   LEU A   1       4.592  -2.952   0.000  0.00  0.00    -0.194 NA
ATOM      2  C   UNK A   0       5.307  -3.364   0.000  0.00  0.00    +0.264 C 
ATOM      3  O   UNK A   0       5.307  -4.189   0.000  0.00  0.00    -0.271 OA
ENDROOT
BRANCH   2   4
ATOM      4  C   UNK A   0       6.021  -2.952   0.000  0.00  0.00    +0.182 C 
ATOM      5  C   UNK A   0       6.021  -2.127   0.000  0.00  0.00    +0.036 C 
BRANCH   4   6
ATOM      6  N   UNK A   0       6.736  -3.364   0.000  0.00  0.00    -0.248 N 
ATOM      7  C   UNK A   0       6.822  -4.185   0.000  0.00  0.00    +0.058 A 
ATOM      8  C   UNK A   0       6.209  -4.737   0.000  0.00  0.00    +0.052 C 
ATOM      9  C   UNK A   0       7.629  -4.356   0.000  0.00  0.00    +0.031 A 
ATOM     10  C   UNK A   0       8.041  -3.642   0.000  0.00  0.00    +0.080 A 
ATOM     11  C   UNK A   0       8.862  -3.556   0.000  0.00  0.00    +0.054 C 
ATOM     12  N   UNK A   0       7.489  -3.029   0.000  0.00  0.00    -0.174 NA
ENDBRANCH   4   6
ENDBRANCH   2   4
BRANCH   1  13
ATOM     13  CA  LEU A   1       3.878  -3.364   0.000  0.00  0.00    +0.198 C 
BRANCH  13  14
ATOM     14  C   LEU A   1       3.878  -4.189   0.000  0.00  0.00    +0.384 C 
ATOM     15  OXT LEU A   1       3.163  -4.602   0.000  0.00  0.00    -0.244 OA
ATOM     16  O   LEU A   1       4.592  -4.602   0.000  0.00  0.00    -0.244 OA
ENDBRANCH  13  14
BRANCH  13  17
ATOM     17  CB  LEU A   1       3.163  -2.952   0.000  0.00  0.00    +0.033 C 
BRANCH  17  19
ATOM     18  CD1 LEU A   1       1.734  -2.952   0.000  0.00  0.00    +0.000 C 
ATOM     19  CG  LEU A   1       2.449  -3.364   0.000  0.00  0.00    +0.002 C 
ATOM     20  CD2 LEU A   1       2.449  -4.189   0.000  0.00  0.00    +0.000 C 
ENDBRANCH  17  19
ENDBRANCH  13  17
ENDBRANCH   1  13
TORSDOF 6
