REMARK  Name = 
REMARK  4 active torsions:
REMARK  status: ('A' for Active; 'I' for Inactive)
REMARK    1  A    between atoms: C_2  and  C_3
REMARK    2  A    between atoms: C_3  and  C_4
REMARK    3  A    between atoms: C_4  and  N_5
REMARK    4  A    between atoms: C_4  and  C_15
REMARK                            x       y       z     vdW  Elec       q    Type
REMARK                         _______ _______ _______ _____ _____    ______ ____
ROOT
ATOM      1  C   UNL     1       0.412  -0.935   0.000  0.00  0.00    +0.100 C 
ENDROOT
BRANCH   1   2
ATOM      2  N   UNL     1       1.238  -0.935   0.000  0.00  0.00    -0.189 NA
ATOM      3  C   UNL     1       1.650  -1.650   0.000  0.00  0.00    +0.345 C 
ATOM      4  N   UNL     1       2.475  -1.650   0.000  0.00  0.00    -0.142 NA
ATOM      5  C   UNL     1       2.888  -2.365   0.000  0.00  0.00    +0.156 A 
ATOM      6  N   UNL     1       2.475  -3.079   0.000  0.00  0.00    -0.227 NA
ATOM      7  C   UNL     1       2.888  -3.793   0.000  0.00  0.00    +0.100 A 
ATOM      8  C   UNL     1       3.712  -3.793   0.000  0.00  0.00    +0.021 A 
ATOM      9  C   UNL     1       4.125  -3.079   0.000  0.00  0.00    +0.005 A 
ATOM     10  C   UNL     1       3.712  -2.365   0.000  0.00  0.00    +0.036 A 
ATOM     11  O   UNL     1       1.238  -2.365   0.000  0.00  0.00    -0.249 OA
ENDBRANCH   1   2
BRANCH   1  12
ATOM     12  C   UNL     1       0.000  -0.221   0.000  0.00  0.00    +0.020 C 
ATOM     13  C   UNL     1       0.412   0.493   0.000  0.00  0.00    +0.002 C 
ATOM     14  C   UNL     1       0.000   1.208   0.000  0.00  0.00    +0.000 C 
ATOM     15  C   UNL     1      -0.825   1.208   0.000  0.00  0.00    +0.000 C 
ATOM     16  C   UNL     1      -1.238   0.493   0.000  0.00  0.00    +0.000 C 
ATOM     17  C   UNL     1      -0.825  -0.221   0.000  0.00  0.00    +0.002 C 
ENDBRANCH   1  12
BRANCH   1  18
ATOM     18  C   UNL     1       0.000  -1.650   0.000  0.00  0.00    +0.057 C 
BRANCH  18  20
ATOM     19  O   UNL     1       0.000  -3.079   0.000  0.00  0.00    -0.220 OA
ATOM     20  C   UNL     1       0.412  -2.365   0.000  0.00  0.00    +0.184 C 
ENDBRANCH  18  20
ENDBRANCH   1  18
TORSDOF 4
