REMARK  Name = 
REMARK  5 active torsions:
REMARK  status: ('A' for Active; 'I' for Inactive)
REMARK    1  A    between atoms: N_5  and  C_6
REMARK    2  A    between atoms: C_6  and  C_7
REMARK    3  A    between atoms: C_7  and  N_8
REMARK    4  A    between atoms: N_8  and  C_9
REMARK    5  A    between atoms: C_9  and  C_10
REMARK                            x       y       z     vdW  Elec       q    Type
REMARK                         _______ _______ _______ _____ _____    ______ ____
ROOT
ATOM      1  N   UNL     1       3.572  -3.712   0.000  0.00  0.00    -0.206 NA
ENDROOT
BRANCH   1   2
ATOM      2  C   UNL     1       2.858  -4.125   0.000  0.00  0.00    +0.116 C 
BRANCH   2   3
ATOM      3  C   UNL     1       2.143  -3.712   0.000  0.00  0.00    +0.146 C 
BRANCH   3   7
ATOM      4  C   UNL     1       0.200  -5.871   0.000  0.00  0.00    +0.034 C 
ATOM      5  C   UNL     1       0.536  -5.117   0.000  0.00  0.00    +0.018 A 
ATOM      6  C   UNL     1       1.343  -4.946   0.000  0.00  0.00    +0.092 A 
ATOM      7  N   UNL     1       1.429  -4.125   0.000  0.00  0.00    -0.248 N 
ATOM      8  N   UNL     1       0.675  -3.789   0.000  0.00  0.00    -0.168 NA
ATOM      9  C   UNL     1       0.123  -4.402   0.000  0.00  0.00    +0.117 A 
ENDBRANCH   3   7
ENDBRANCH   2   3
ENDBRANCH   1   2
BRANCH   1  10
ATOM     10  C   UNL     1       4.287  -4.125   0.000  0.00  0.00    +0.174 C 
BRANCH  10  11
ATOM     11  C   UNL     1       5.001  -3.712   0.000  0.00  0.00    +0.244 C 
ATOM     12  N   UNL     1       5.716  -4.125   0.000  0.00  0.00    -0.273 N 
ATOM     13  C   UNL     1       5.716  -4.950   0.000  0.00  0.00    +0.126 C 
ATOM     14  C   UNL     1       6.430  -5.362   0.000  0.00  0.00    +0.164 C 
ATOM     15  O   UNL     1       7.145  -4.950   0.000  0.00  0.00    -0.350 OA
ATOM     16  C   UNL     1       7.145  -4.125   0.000  0.00  0.00    +0.164 C 
ATOM     17  C   UNL     1       6.430  -3.712   0.000  0.00  0.00    +0.126 C 
ATOM     18  O   UNL     1       5.001  -2.888   0.000  0.00  0.00    -0.273 OA
ENDBRANCH  10  11
ENDBRANCH   1  10
TORSDOF 5
