REMARK  Name = 
REMARK  3 active torsions:
REMARK  status: ('A' for Active; 'I' for Inactive)
REMARK    1  A    between atoms: C_2  and  C_3
REMARK    2  A    between atoms: C_8  and  N_9
REMARK    3  A    between atoms: N_9  and  C_10
REMARK                            x       y       z     vdW  Elec       q    Type
REMARK                         _______ _______ _______ _____ _____    ______ ____
ROOT
ATOM      1  C   UNL     1      -1.265   2.192   0.000  0.00  0.00    +0.182 A 
ATOM      2  C   UNL     1      -0.551   1.779   0.000  0.00  0.00    +0.175 A 
ATOM      3  N   UNL     1       0.164   2.192   0.000  0.00  0.00    -0.224 NA
ATOM      4  C   UNL     1       0.164   3.017   0.000  0.00  0.00    +0.121 A 
ATOM      5  C   UNL     1      -0.551   3.429   0.000  0.00  0.00    +0.120 A 
ATOM      6  N   UNL     1      -1.265   3.017   0.000  0.00  0.00    -0.229 NA
ENDROOT
BRANCH   1   8
ATOM      7  N   UNL     1      -2.694   1.367   0.000  0.00  0.00    -0.189 NA
ATOM      8  C   UNL     1      -1.980   1.779   0.000  0.00  0.00    +0.123 C 
ENDBRANCH   1   8
BRANCH   2   9
ATOM      9  N   UNL     1      -0.551   0.954   0.000  0.00  0.00    -0.218 NA
BRANCH   9  10
ATOM     10  C   UNL     1       0.164   0.542   0.000  0.00  0.00    +0.124 C 
ATOM     11  C   UNL     1       0.878   0.954   0.000  0.00  0.00    +0.135 C 
ATOM     12  O   UNL     1       0.672   0.129   0.000  0.00  0.00    -0.357 OA
ATOM     13  C   UNL     1       0.878  -0.696   0.000  0.00  0.00    +0.117 C 
ATOM     14  C   UNL     1       1.593  -0.283   0.000  0.00  0.00    +0.032 C 
ATOM     15  C   UNL     1       1.593   0.542   0.000  0.00  0.00    +0.034 C 
ATOM     16  C   UNL     1       0.164  -0.283   0.000  0.00  0.00    +0.054 C 
ENDBRANCH   9  10
ENDBRANCH   2   9
TORSDOF 3
