REMARK  Name = 
REMARK  5 active torsions:
REMARK  status: ('A' for Active; 'I' for Inactive)
REMARK    1  A    between atoms: C_1  and  C_11
REMARK    2  A    between atoms: C_2  and  C_4
REMARK    3  A    between atoms: N_5  and  C_22
REMARK    4  A    between atoms: C_11  and  O_21
REMARK    5  A    between atoms: O_21  and  C_24
REMARK                            x       y       z     vdW  Elec       q    Type
REMARK                         _______ _______ _______ _____ _____    ______ ____
ROOT
ATOM      1  C   UNL     1       2.410  -0.500   0.000  0.00  0.00    +0.117 C 
ATOM      2  C   UNL     1       3.165  -0.834   0.000  0.00  0.00    +0.040 C 
ATOM      3  C   UNL     1       3.086  -1.655   0.000  0.00  0.00    +0.094 C 
ATOM      4  O   UNL     1       2.277  -1.831   0.000  0.00  0.00    -0.363 OA
ATOM      5  C   UNL     1       3.703  -2.202   0.000  0.00  0.00    +0.030 C 
ATOM      6  C   UNL     1       2.602  -1.163   0.000  0.00  0.00    +0.040 C 
ATOM      7  C   UNL     1       1.860  -1.118   0.000  0.00  0.00    +0.105 C 
ATOM      8  C   UNL     1       1.380  -1.789   0.000  0.00  0.00    +0.049 C 
ATOM      9  C   UNL     1       0.559  -1.710   0.000  0.00  0.00    +0.096 C 
ATOM     10  N   UNL     1       0.217  -0.959   0.000  0.00  0.00    -0.275 N 
ATOM     11  C   UNL     1       0.696  -0.288   0.000  0.00  0.00    +0.096 C 
ATOM     12  C   UNL     1      -0.605  -0.876   0.000  0.00  0.00    +0.268 C 
ATOM     13  O   UNL     1      -0.947  -0.125   0.000  0.00  0.00    -0.268 OA
ATOM     14  C   UNL     1       1.518  -0.367   0.000  0.00  0.00    +0.049 C 
ENDROOT
BRANCH  12  15
ATOM     15  C   UNL     1      -1.084  -1.547   0.000  0.00  0.00    +0.154 A 
ATOM     16  C   UNL     1      -0.826  -2.331   0.000  0.00  0.00    +0.147 A 
ATOM     17  N   UNL     1      -1.489  -2.819   0.000  0.00  0.00    -0.127 NA
ATOM     18  N   UNL     1      -2.160  -2.339   0.000  0.00  0.00    -0.064 NA
ATOM     19  N   UNL     1      -1.910  -1.551   0.000  0.00  0.00    -0.227 N 
BRANCH  19  20
ATOM     20  C   UNL     1      -2.402  -0.888   0.000  0.00  0.00    +0.129 C 
ATOM     21  C   UNL     1      -3.223  -0.980   0.000  0.00  0.00    +0.028 C 
ENDBRANCH  19  20
ENDBRANCH  12  15
BRANCH   1  22
ATOM     22  C   UNL     1       2.231   0.304   0.000  0.00  0.00    +0.318 C 
ATOM     23  O   UNL     1       1.443   0.555   0.000  0.00  0.00    -0.250 OA
BRANCH  22  24
ATOM     24  O   UNL     1       2.840   0.859   0.000  0.00  0.00    -0.448 OA
BRANCH  24  25
ATOM     25  C   UNL     1       2.665   1.668   0.000  0.00  0.00    +0.209 C 
ATOM     26  C   UNL     1       3.273   2.223   0.000  0.00  0.00    +0.051 C 
ENDBRANCH  24  25
ENDBRANCH  22  24
ENDBRANCH   1  22
TORSDOF 5
