REMARK  Name = 
REMARK  6 active torsions:
REMARK  status: ('A' for Active; 'I' for Inactive)
REMARK    1  A    between atoms: N_2  and  C_4
REMARK    2  A    between atoms: N_6  and  C_7
REMARK    3  A    between atoms: C_7  and  C_8
REMARK    4  A    between atoms: N_10  and  C_11
REMARK    5  A    between atoms: C_11  and  C_12
REMARK    6  A    between atoms: C_12  and  C_13
REMARK                            x       y       z     vdW  Elec       q    Type
REMARK                         _______ _______ _______ _____ _____    ______ ____
ROOT
ATOM      1  C   UNL     1      -0.715   1.238   0.000  0.00  0.00    +0.194 C 
ENDROOT
BRANCH   1   7
ATOM      2  C   UNL     1      -2.858   0.825   0.000  0.00  0.00    +0.345 A 
ATOM      3  C   UNL     1      -2.858   0.000   0.000  0.00  0.00    +0.267 A 
ATOM      4  O   UNL     1      -3.572  -0.412   0.000  0.00  0.00    -0.280 OA
ATOM      5  C   UNL     1      -2.143  -0.412   0.000  0.00  0.00    +0.067 A 
ATOM      6  C   UNL     1      -1.429   0.000   0.000  0.00  0.00    +0.080 A 
ATOM      7  N   UNL     1      -1.429   0.825   0.000  0.00  0.00    -0.311 N 
ATOM      8  C   UNL     1      -2.143   1.238   0.000  0.00  0.00    +0.156 A 
BRANCH   2  10
ATOM      9  O   UNL     1      -4.287   0.825   0.000  0.00  0.00    -0.576 OA
ATOM     10  N   UNL     1      -3.572   1.238   0.000  0.00  0.00    +0.086 N 
ATOM     11  O   UNL     1      -3.572   2.062   0.000  0.00  0.00    +0.042 OA
ENDBRANCH   2  10
ENDBRANCH   1   7
BRANCH   1  12
ATOM     12  C   UNL     1       0.000   0.825   0.000  0.00  0.00    +0.264 C 
ATOM     13  N   UNL     1       0.715   1.238   0.000  0.00  0.00    -0.203 NA
ATOM     14  O   UNL     1       0.000   0.000   0.000  0.00  0.00    -0.271 OA
BRANCH  13  15
ATOM     15  C   UNL     1       1.429   0.825   0.000  0.00  0.00    +0.120 C 
BRANCH  15  16
ATOM     16  C   UNL     1       2.143   1.238   0.000  0.00  0.00    +0.045 C 
BRANCH  16  17
ATOM     17  C   UNL     1       2.858   0.825   0.000  0.00  0.00    -0.047 C 
ATOM     18  C   UNL     1       2.944   0.004   0.000  0.00  0.00    +0.022 C 
ATOM     19  C   UNL     1       3.751  -0.167   0.000  0.00  0.00    +0.009 C 
ATOM     20  C   UNL     1       4.164   0.547   0.000  0.00  0.00    +0.026 C 
ATOM     21  C   UNL     1       3.612   1.161   0.000  0.00  0.00    -0.035 C 
ENDBRANCH  16  17
ENDBRANCH  15  16
ENDBRANCH  13  15
ENDBRANCH   1  12
TORSDOF 6
