REMARK  Name = 
REMARK  5 active torsions:
REMARK  status: ('A' for Active; 'I' for Inactive)
REMARK    1  A    between atoms: C_2  and  O_3
REMARK    2  A    between atoms: O_3  and  C_4
REMARK    3  A    between atoms: C_6  and  N_7
REMARK    4  A    between atoms: C_8  and  C_10
REMARK    5  A    between atoms: C_10  and  N_11
REMARK                            x       y       z     vdW  Elec       q    Type
REMARK                         _______ _______ _______ _____ _____    ______ ____
ROOT
ATOM      1  C   UNL     1       0.412  -0.171   0.000  0.00  0.00    +0.118 C 
ATOM      2  C   UNL     1       0.996   0.412   0.000  0.00  0.00    +0.044 C 
ATOM      3  C   UNL     1       1.408  -0.302   0.000  0.00  0.00    +0.004 C 
ATOM      4  C   UNL     1       2.233  -0.302   0.000  0.00  0.00    +0.000 C 
ATOM      5  C   UNL     1       2.646   0.412   0.000  0.00  0.00    +0.000 C 
ATOM      6  C   UNL     1       2.233   1.127   0.000  0.00  0.00    +0.000 C 
ATOM      7  C   UNL     1       1.408   1.127   0.000  0.00  0.00    +0.004 C 
ATOM      8  C   UNL     1       0.412   0.996   0.000  0.00  0.00    +0.100 C 
ATOM      9  C   UNL     1      -0.171   0.412   0.000  0.00  0.00    +0.051 C 
ENDROOT
BRANCH   8  10
ATOM     10  N   UNL     1       0.412   1.821   0.000  0.00  0.00    -0.205 NA
ATOM     11  C   UNL     1       1.127   2.233   0.000  0.00  0.00    +0.264 C 
ATOM     12  O   UNL     1       1.841   1.821   0.000  0.00  0.00    -0.271 OA
BRANCH  11  13
ATOM     13  C   UNL     1       1.127   3.058   0.000  0.00  0.00    +0.196 C 
BRANCH  13  14
ATOM     14  N   UNL     1       0.412   3.471   0.000  0.00  0.00    -0.285 N 
ATOM     15  C   UNL     1       0.412   4.296   0.000  0.00  0.00    +0.261 A 
ATOM     16  O   UNL     1       1.127   4.708   0.000  0.00  0.00    -0.267 OA
ATOM     17  C   UNL     1      -0.302   4.708   0.000  0.00  0.00    +0.061 A 
ATOM     18  C   UNL     1      -1.016   4.296   0.000  0.00  0.00    +0.006 A 
ATOM     19  C   UNL     1      -1.016   3.471   0.000  0.00  0.00    +0.019 A 
ATOM     20  C   UNL     1      -0.302   3.058   0.000  0.00  0.00    +0.079 A 
ENDBRANCH  13  14
ENDBRANCH  11  13
ENDBRANCH   8  10
BRANCH   1  21
ATOM     21  O   UNL     1       0.412  -0.996   0.000  0.00  0.00    -0.356 OA
BRANCH  21  23
ATOM     22  C   UNL     1       1.127  -2.233   0.000  0.00  0.00    +0.035 C 
ATOM     23  C   UNL     1       1.127  -1.408   0.000  0.00  0.00    +0.142 C 
ENDBRANCH  21  23
ENDBRANCH   1  21
TORSDOF 5
