REMARK  Name = 
REMARK  2 active torsions:
REMARK  status: ('A' for Active; 'I' for Inactive)
REMARK    1  A    between atoms: C_7  and  N_8
REMARK    2  A    between atoms: N_11  and  C_12
REMARK                            x       y       z     vdW  Elec       q    Type
REMARK                         _______ _______ _______ _____ _____    ______ ____
ROOT
ATOM      1  N   UNL     1       2.564   3.300   0.000  0.00  0.00    -0.159 NA
ATOM      2  C   UNL     1       2.564   2.475   0.000  0.00  0.00    +0.344 C 
ATOM      3  N   UNL     1       3.279   2.062   0.000  0.00  0.00    -0.189 NA
ATOM      4  O   UNL     1       1.850   2.062   0.000  0.00  0.00    -0.249 OA
ENDROOT
BRANCH   3   5
ATOM      5  C   UNL     1       3.279   1.238   0.000  0.00  0.00    +0.099 C 
ATOM      6  C   UNL     1       2.564   0.825   0.000  0.00  0.00    +0.050 C 
ATOM      7  C   UNL     1       2.564   0.000   0.000  0.00  0.00    +0.117 C 
ATOM      8  O   UNL     1       1.780  -0.255   0.000  0.00  0.00    -0.356 OA
ATOM      9  C   UNL     1       1.295   0.412   0.000  0.00  0.00    +0.142 C 
ATOM     10  C   UNL     1       3.279  -0.412   0.000  0.00  0.00    +0.030 C 
ATOM     11  C   UNL     1       3.993   0.000   0.000  0.00  0.00    +0.004 C 
ATOM     12  C   UNL     1       1.780   1.080   0.000  0.00  0.00    +0.036 C 
ATOM     13  C   UNL     1       3.993   0.825   0.000  0.00  0.00    +0.022 C 
ENDBRANCH   3   5
BRANCH   1  16
ATOM     14  F   UNL     1       1.135   2.475   0.000  0.00  0.00    -0.201 F 
ATOM     15  C   UNL     1       1.135   3.300   0.000  0.00  0.00    +0.174 A 
ATOM     16  C   UNL     1       1.850   3.712   0.000  0.00  0.00    +0.105 A 
ATOM     17  C   UNL     1       1.850   4.537   0.000  0.00  0.00    +0.040 A 
ATOM     18  C   UNL     1       1.135   4.950   0.000  0.00  0.00    +0.100 A 
ATOM     19  N   UNL     1       0.421   4.537   0.000  0.00  0.00    -0.240 NA
ATOM     20  C   UNL     1       0.421   3.712   0.000  0.00  0.00    +0.130 A 
ENDBRANCH   1  16
TORSDOF 2
