REMARK  Name = 
REMARK  6 active torsions:
REMARK  status: ('A' for Active; 'I' for Inactive)
REMARK    1  A    between atoms: N_1  and  C_10
REMARK    2  A    between atoms: N_2  and  C_9
REMARK    3  A    between atoms: S_4  and  N_8
REMARK    4  A    between atoms: S_4  and  C_12
REMARK    5  A    between atoms: C_10  and  C_11
REMARK    6  A    between atoms: N_17  and  C_23
REMARK                            x       y       z     vdW  Elec       q    Type
REMARK                         _______ _______ _______ _____ _____    ______ ____
ROOT
ATOM      1  C   UNL     1       1.425  -1.650   0.000  0.00  0.00    +0.269 C 
ATOM      2  O   UNL     1       2.142  -1.238   0.000  0.00  0.00    -0.271 OA
ATOM      3  N   UNL     1       0.713  -1.238   0.000  0.00  0.00    -0.178 NA
ENDROOT
BRANCH   3   4
ATOM      4  C   UNL     1       0.713  -0.412   0.000  0.00  0.00    +0.074 A 
ATOM      5  C   UNL     1       1.425   0.000   0.000  0.00  0.00    +0.018 A 
ATOM      6  C   UNL     1       1.425   0.825   0.000  0.00  0.00    +0.021 A 
ATOM      7  C   UNL     1       0.713   1.238   0.000  0.00  0.00    +0.122 A 
ATOM      8  C   UNL     1       0.000   0.825   0.000  0.00  0.00    +0.021 A 
ATOM      9  C   UNL     1       0.000   0.000   0.000  0.00  0.00    +0.018 A 
BRANCH   7  10
ATOM     10  S   UNL     1       0.713   2.062   0.000  0.00  0.00    +0.063 S 
ATOM     11  O   UNL     1      -0.113   2.062   0.000  0.00  0.00    -0.153 OA
ATOM     12  O   UNL     1       1.538   2.062   0.000  0.00  0.00    -0.153 OA
BRANCH  10  13
ATOM     13  N   UNL     1       0.713   2.892   0.000  0.00  0.00    -0.156 NA
ATOM     14  C   UNL     1       1.379   3.375   0.000  0.00  0.00    +0.096 C 
ATOM     15  C   UNL     1       1.125   4.154   0.000  0.00  0.00    +0.021 C 
ATOM     16  C   UNL     1       0.300   4.154   0.000  0.00  0.00    +0.021 C 
ATOM     17  C   UNL     1       0.046   3.375   0.000  0.00  0.00    +0.096 C 
ENDBRANCH  10  13
ENDBRANCH   7  10
ENDBRANCH   3   4
BRANCH   1  18
ATOM     18  C   UNL     1       1.425  -2.475   0.000  0.00  0.00    +0.201 C 
BRANCH  18  19
ATOM     19  N   UNL     1       2.142  -2.888   0.000  0.00  0.00    -0.238 N 
ATOM     20  C   UNL     1       2.854  -2.475   0.000  0.00  0.00    +0.294 A 
ATOM     21  O   UNL     1       2.854  -1.650   0.000  0.00  0.00    -0.264 OA
ATOM     22  C   UNL     1       3.571  -2.888   0.000  0.00  0.00    +0.213 A 
ATOM     23  F   UNL     1       4.283  -2.475   0.000  0.00  0.00    -0.198 F 
ATOM     24  C   UNL     1       3.571  -3.712   0.000  0.00  0.00    +0.116 A 
ATOM     25  N   UNL     1       2.854  -4.125   0.000  0.00  0.00    -0.255 N 
ATOM     26  C   UNL     1       2.142  -3.712   0.000  0.00  0.00    +0.336 A 
ATOM     27  O   UNL     1       1.425  -4.125   0.000  0.00  0.00    -0.246 OA
BRANCH  25  28
ATOM     28  C   UNL     1       2.854  -4.950   0.000  0.00  0.00    +0.208 C 
ATOM     29  C   UNL     1       3.525  -5.433   0.000  0.00  0.00    +0.057 C 
ATOM     30  C   UNL     1       3.267  -6.217   0.000  0.00  0.00    +0.037 C 
ATOM     31  C   UNL     1       2.442  -6.217   0.000  0.00  0.00    +0.144 C 
ATOM     32  O   UNL     1       2.188  -5.433   0.000  0.00  0.00    -0.335 OA
ENDBRANCH  25  28
ENDBRANCH  18  19
ENDBRANCH   1  18
TORSDOF 6
