REMARK  Name = 
REMARK  5 active torsions:
REMARK  status: ('A' for Active; 'I' for Inactive)
REMARK    1  A    between atoms: N_2  and  C_4
REMARK    2  A    between atoms: C_4  and  C_5
REMARK    3  A    between atoms: C_5  and  N_6
REMARK    4  A    between atoms: N_9  and  C_10
REMARK    5  A    between atoms: C_13  and  C_16
REMARK                            x       y       z     vdW  Elec       q    Type
REMARK                         _______ _______ _______ _____ _____    ______ ____
ROOT
ATOM      1  N   UNL     1       3.572  -3.712   0.000  0.00  0.00    -0.185 NA
ATOM      2  C   UNL     1       4.287  -4.125   0.000  0.00  0.00    +0.344 C 
ATOM      3  N   UNL     1       5.001  -3.712   0.000  0.00  0.00    -0.158 NA
ATOM      4  O   UNL     1       4.287  -4.950   0.000  0.00  0.00    -0.249 OA
ENDROOT
BRANCH   3   5
ATOM      5  C   UNL     1       5.716  -4.125   0.000  0.00  0.00    +0.113 A 
ATOM      6  C   UNL     1       5.716  -4.950   0.000  0.00  0.00    +0.118 A 
ATOM      7  N   UNL     1       6.430  -5.362   0.000  0.00  0.00    -0.228 NA
ATOM      8  C   UNL     1       7.145  -4.950   0.000  0.00  0.00    +0.139 A 
ATOM      9  N   UNL     1       7.145  -4.125   0.000  0.00  0.00    -0.228 NA
ATOM     10  C   UNL     1       6.430  -3.712   0.000  0.00  0.00    +0.118 A 
BRANCH   8  11
ATOM     11  C   UNL     1       7.859  -5.362   0.000  0.00  0.00    +0.059 C 
ATOM     12  C   UNL     1       8.272  -6.077   0.000  0.00  0.00    +0.008 C 
ATOM     13  C   UNL     1       8.684  -5.362   0.000  0.00  0.00    +0.008 C 
ENDBRANCH   8  11
ENDBRANCH   3   5
BRANCH   1  14
ATOM     14  C   UNL     1       2.858  -4.125   0.000  0.00  0.00    +0.134 C 
BRANCH  14  15
ATOM     15  C   UNL     1       2.143  -3.712   0.000  0.00  0.00    +0.096 C 
BRANCH  15  17
ATOM     16  C   UNL     1       0.715  -3.712   0.000  0.00  0.00    +0.090 C 
ATOM     17  N   UNL     1       1.429  -4.125   0.000  0.00  0.00    -0.269 NA
ATOM     18  C   UNL     1       1.429  -4.950   0.000  0.00  0.00    +0.090 C 
ENDBRANCH  15  17
ENDBRANCH  14  15
ENDBRANCH   1  14
TORSDOF 5
