REMARK  Name = 
REMARK  5 active torsions:
REMARK  status: ('A' for Active; 'I' for Inactive)
REMARK    1  A    between atoms: C_2  and  N_4
REMARK    2  A    between atoms: C_5  and  C_7
REMARK    3  A    between atoms: C_7  and  N_8
REMARK    4  A    between atoms: C_9  and  C_11
REMARK    5  A    between atoms: C_11  and  N_12
REMARK                            x       y       z     vdW  Elec       q    Type
REMARK                         _______ _______ _______ _____ _____    ______ ____
ROOT
ATOM      1  N   UNL     1       7.083  -3.908   0.000  0.00  0.00    -0.194 NA
ATOM      2  C   UNL     1       7.798  -4.321   0.000  0.00  0.00    +0.267 C 
ATOM      3  O   UNL     1       7.798  -5.146   0.000  0.00  0.00    -0.271 OA
ENDROOT
BRANCH   1   4
ATOM      4  C   UNL     1       6.369  -4.321   0.000  0.00  0.00    +0.201 C 
BRANCH   4   6
ATOM      5  N   UNL     1       4.940  -4.321   0.000  0.00  0.00    -0.206 NA
ATOM      6  C   UNL     1       5.654  -3.908   0.000  0.00  0.00    +0.263 C 
ATOM      7  O   UNL     1       5.654  -3.083   0.000  0.00  0.00    -0.271 OA
BRANCH   5   9
ATOM      8  C   UNL     1       3.511  -4.321   0.000  0.00  0.00    +0.023 C 
ATOM      9  C   UNL     1       4.225  -3.908   0.000  0.00  0.00    +0.095 C 
ATOM     10  C   UNL     1       4.225  -3.083   0.000  0.00  0.00    +0.023 C 
ENDBRANCH   5   9
ENDBRANCH   4   6
ENDBRANCH   1   4
BRANCH   2  11
ATOM     11  C   UNL     1       8.512  -3.908   0.000  0.00  0.00    +0.215 C 
BRANCH  11  12
ATOM     12  N   UNL     1       9.227  -4.321   0.000  0.00  0.00    -0.221 N 
ATOM     13  N   UNL     1       9.313  -5.141   0.000  0.00  0.00    -0.145 NA
ATOM     14  C   UNL     1      10.120  -5.312   0.000  0.00  0.00    +0.221 A 
ATOM     15  N   UNL     1      10.532  -4.598   0.000  0.00  0.00    -0.201 NA
ATOM     16  C   UNL     1       9.980  -3.985   0.000  0.00  0.00    +0.198 A 
ENDBRANCH  11  12
ENDBRANCH   2  11
TORSDOF 5
