REMARK  Name = 
REMARK  4 active torsions:
REMARK  status: ('A' for Active; 'I' for Inactive)
REMARK    1  A    between atoms: C_2  and  C_3
REMARK    2  A    between atoms: C_2  and  C_11
REMARK    3  A    between atoms: C_3  and  N_4
REMARK    4  A    between atoms: N_4  and  C_5
REMARK                            x       y       z     vdW  Elec       q    Type
REMARK                         _______ _______ _______ _____ _____    ______ ____
ROOT
ATOM      1  O   UNL     1       2.858   0.000   0.000  0.00  0.00    -0.217 OA
ATOM      2  C   UNL     1       3.572  -0.412   0.000  0.00  0.00    +0.192 C 
ENDROOT
BRANCH   2   3
ATOM      3  C   UNL     1       4.287   0.000   0.000  0.00  0.00    +0.012 A 
ATOM      4  C   UNL     1       5.001  -0.412   0.000  0.00  0.00    +0.019 A 
ATOM      5  C   UNL     1       5.716   0.000   0.000  0.00  0.00    +0.099 A 
ATOM      6  N   UNL     1       5.716   0.825   0.000  0.00  0.00    -0.242 NA
ATOM      7  C   UNL     1       5.001   1.238   0.000  0.00  0.00    +0.099 A 
ATOM      8  C   UNL     1       4.287   0.825   0.000  0.00  0.00    +0.019 A 
ENDBRANCH   2   3
BRANCH   2   9
ATOM      9  C   UNL     1       3.572  -1.238   0.000  0.00  0.00    +0.126 C 
BRANCH   9  10
ATOM     10  N   UNL     1       2.858  -1.650   0.000  0.00  0.00    -0.216 NA
BRANCH  10  11
ATOM     11  C   UNL     1       2.858  -2.475   0.000  0.00  0.00    +0.084 C 
ATOM     12  C   UNL     1       2.143  -2.888   0.000  0.00  0.00    +0.075 C 
ATOM     13  S   UNL     1       2.143  -3.712   0.000  0.00  0.00    -0.139 S 
ATOM     14  C   UNL     1       2.858  -4.125   0.000  0.00  0.00    +0.058 C 
ATOM     15  C   UNL     1       3.572  -3.712   0.000  0.00  0.00    +0.013 C 
ATOM     16  C   UNL     1       3.572  -2.888   0.000  0.00  0.00    +0.019 C 
ENDBRANCH  10  11
ENDBRANCH   9  10
ENDBRANCH   2   9
TORSDOF 4
