REMARK  Name = 
REMARK  3 active torsions:
REMARK  status: ('A' for Active; 'I' for Inactive)
REMARK    1  A    between atoms: C_6  and  N_7
REMARK    2  A    between atoms: N_10  and  C_11
REMARK    3  A    between atoms: C_11  and  C_12
REMARK                            x       y       z     vdW  Elec       q    Type
REMARK                         _______ _______ _______ _____ _____    ______ ____
ROOT
ATOM      1  N   UNL     1       1.429   1.650   0.000  0.00  0.00    -0.156 NA
ATOM      2  C   UNL     1       2.143   2.062   0.000  0.00  0.00    +0.344 C 
ATOM      3  N   UNL     1       2.858   1.650   0.000  0.00  0.00    -0.184 NA
ATOM      4  O   UNL     1       2.143   2.888   0.000  0.00  0.00    -0.249 OA
ENDROOT
BRANCH   1   9
ATOM      5  C   UNL     1      -1.429   1.650   0.000  0.00  0.00    +0.134 C 
ATOM      6  N   UNL     1      -0.715   2.062   0.000  0.00  0.00    -0.291 N 
ATOM      7  C   UNL     1       0.000   1.650   0.000  0.00  0.00    +0.276 A 
ATOM      8  O   UNL     1       0.000   0.825   0.000  0.00  0.00    -0.266 OA
ATOM      9  C   UNL     1       0.715   2.062   0.000  0.00  0.00    +0.131 A 
ATOM     10  C   UNL     1       0.715   2.888   0.000  0.00  0.00    +0.023 A 
ATOM     11  C   UNL     1       0.000   3.300   0.000  0.00  0.00    +0.020 A 
ATOM     12  C   UNL     1      -0.715   2.888   0.000  0.00  0.00    +0.078 A 
ENDBRANCH   1   9
BRANCH   3  13
ATOM     13  C   UNL     1       3.572   2.062   0.000  0.00  0.00    +0.146 C 
BRANCH  13  14
ATOM     14  C   UNL     1       4.287   1.650   0.000  0.00  0.00    +0.137 C 
ATOM     15  O   UNL     1       4.373   0.830   0.000  0.00  0.00    -0.354 OA
ATOM     16  C   UNL     1       5.180   0.658   0.000  0.00  0.00    +0.142 C 
ATOM     17  C   UNL     1       5.593   1.373   0.000  0.00  0.00    +0.035 C 
ATOM     18  C   UNL     1       5.040   1.986   0.000  0.00  0.00    +0.034 C 
ENDBRANCH  13  14
ENDBRANCH   3  13
TORSDOF 3
