REMARK  Name = 
REMARK  8 active torsions:
REMARK  status: ('A' for Active; 'I' for Inactive)
REMARK    1  A    between atoms: N_2  and  C_11
REMARK    2  A    between atoms: N_6  and  C_8
REMARK    3  A    between atoms: N_6  and  C_15
REMARK    4  A    between atoms: C_11  and  C_17
REMARK    5  A    between atoms: C_12  and  C_15
REMARK    6  A    between atoms: C_16  and  N_18
REMARK    7  A    between atoms: C_17  and  C_24
REMARK    8  A    between atoms: C_17  and  C_25
REMARK                            x       y       z     vdW  Elec       q    Type
REMARK                         _______ _______ _______ _____ _____    ______ ____
ROOT
ATOM      1  C   UNL     1       1.924  -0.284   0.000  0.00  0.00    +0.149 A 
ATOM      2  N   UNL     1       1.139  -0.029   0.000  0.00  0.00    -0.219 NA
ATOM      3  C   UNL     1       0.651  -0.697   0.000  0.00  0.00    +0.180 A 
ATOM      4  N   UNL     1       1.139  -1.365   0.000  0.00  0.00    -0.294 N 
ATOM      5  C   UNL     1       1.924  -1.110   0.000  0.00  0.00    +0.167 A 
ATOM      6  N   UNL     1       2.642  -1.523   0.000  0.00  0.00    -0.205 NA
ATOM      7  C   UNL     1       3.356  -1.110   0.000  0.00  0.00    +0.201 A 
ATOM      8  N   UNL     1       3.356  -0.284   0.000  0.00  0.00    -0.207 NA
ATOM      9  C   UNL     1       2.642   0.129   0.000  0.00  0.00    +0.155 A 
ATOM     10  N   UNL     1       2.642   0.956   0.000  0.00  0.00    -0.286 N 
ENDROOT
BRANCH  10  11
ATOM     11  C   UNL     1       1.924   1.369   0.000  0.00  0.00    +0.075 C 
ATOM     12  C   UNL     1       1.511   2.083   0.000  0.00  0.00    +0.021 C 
ATOM     13  C   UNL     1       1.098   1.369   0.000  0.00  0.00    +0.021 C 
ENDBRANCH  10  11
BRANCH   4  14
ATOM     14  C   UNL     1       0.885  -2.154   0.000  0.00  0.00    +0.112 C 
BRANCH  14  15
ATOM     15  C   UNL     1       1.436  -2.767   0.000  0.00  0.00    +0.058 C 
BRANCH  15  16
ATOM     16  C   UNL     1       1.181  -3.552   0.000  0.00  0.00    +0.037 C 
ATOM     17  C   UNL     1       1.665  -4.220   0.000  0.00  0.00    +0.035 C 
ATOM     18  C   UNL     1       1.181  -4.887   0.000  0.00  0.00    +0.142 C 
ATOM     19  O   UNL     1       0.397  -4.633   0.000  0.00  0.00    -0.354 OA
ATOM     20  C   UNL     1       0.397  -3.806   0.000  0.00  0.00    +0.142 C 
ENDBRANCH  15  16
BRANCH  15  21
ATOM     21  C   UNL     1       2.245  -2.592   0.000  0.00  0.00    +0.184 C 
ATOM     22  O   UNL     1       2.796  -3.210   0.000  0.00  0.00    -0.220 OA
ENDBRANCH  15  21
ENDBRANCH  14  15
ENDBRANCH   4  14
BRANCH  10  23
ATOM     23  C   UNL     1       3.356   1.369   0.000  0.00  0.00    +0.180 C 
BRANCH  23  24
ATOM     24  C   UNL     1       3.356   2.195   0.000  0.00  0.00    +0.262 C 
ATOM     25  O   UNL     1       2.642   2.609   0.000  0.00  0.00    -0.271 OA
ATOM     26  N   UNL     1       4.074   2.609   0.000  0.00  0.00    -0.206 NA
BRANCH  26  27
ATOM     27  C   UNL     1       4.074   3.435   0.000  0.00  0.00    +0.095 C 
ATOM     28  C   UNL     1       3.660   4.144   0.000  0.00  0.00    +0.023 C 
ATOM     29  C   UNL     1       4.487   4.144   0.000  0.00  0.00    +0.023 C 
ENDBRANCH  26  27
ENDBRANCH  23  24
ENDBRANCH  10  23
TORSDOF 8
