REMARK  Name = 
REMARK  7 active torsions:
REMARK  status: ('A' for Active; 'I' for Inactive)
REMARK    1  A    between atoms: C_2  and  N_3
REMARK    2  A    between atoms: C_2  and  C_15
REMARK    3  A    between atoms: N_3  and  C_4
REMARK    4  A    between atoms: C_4  and  C_6
REMARK    5  A    between atoms: N_8  and  C_9
REMARK    6  A    between atoms: C_9  and  C_10
REMARK    7  A    between atoms: C_15  and  N_17
REMARK                            x       y       z     vdW  Elec       q    Type
REMARK                         _______ _______ _______ _____ _____    ______ ____
ROOT
ATOM      1  C   UNL     1       6.369  -4.321   0.000  0.00  0.00    +0.150 C 
ATOM      2  C   UNL     1       6.369  -5.146   0.000  0.00  0.00    +0.029 C 
ENDROOT
BRANCH   1   3
ATOM      3  C   UNL     1       5.654  -3.908   0.000  0.00  0.00    +0.257 C 
ATOM      4  N   UNL     1       4.940  -4.321   0.000  0.00  0.00    -0.202 NA
ATOM      5  O   UNL     1       5.654  -3.083   0.000  0.00  0.00    -0.272 OA
BRANCH   4   6
ATOM      6  C   UNL     1       4.225  -3.908   0.000  0.00  0.00    +0.145 C 
BRANCH   6   7
ATOM      7  C   UNL     1       3.511  -4.321   0.000  0.00  0.00    +0.137 C 
ATOM      8  O   UNL     1       2.757  -3.985   0.000  0.00  0.00    -0.354 OA
ATOM      9  C   UNL     1       2.205  -4.598   0.000  0.00  0.00    +0.142 C 
ATOM     10  C   UNL     1       2.618  -5.312   0.000  0.00  0.00    +0.035 C 
ATOM     11  C   UNL     1       3.425  -5.141   0.000  0.00  0.00    +0.034 C 
ENDBRANCH   6   7
ENDBRANCH   4   6
ENDBRANCH   1   3
BRANCH   1  12
ATOM     12  N   UNL     1       7.083  -3.908   0.000  0.00  0.00    -0.210 NA
BRANCH  12  14
ATOM     13  C   UNL     1       7.798  -5.146   0.000  0.00  0.00    +0.021 C 
ATOM     14  C   UNL     1       7.798  -4.321   0.000  0.00  0.00    +0.096 C 
BRANCH  14  15
ATOM     15  C   UNL     1       8.512  -3.908   0.000  0.00  0.00    +0.121 C 
ATOM     16  C   UNL     1       8.512  -3.083   0.000  0.00  0.00    +0.028 C 
BRANCH  15  17
ATOM     17  N   UNL     1       9.227  -4.321   0.000  0.00  0.00    -0.250 N 
ATOM     18  N   UNL     1       9.313  -5.141   0.000  0.00  0.00    -0.168 NA
ATOM     19  C   UNL     1      10.120  -5.312   0.000  0.00  0.00    +0.122 A 
ATOM     20  C   UNL     1      10.532  -4.598   0.000  0.00  0.00    +0.043 A 
ATOM     21  C   UNL     1       9.980  -3.985   0.000  0.00  0.00    +0.097 A 
ENDBRANCH  15  17
ENDBRANCH  14  15
ENDBRANCH  12  14
ENDBRANCH   1  12
TORSDOF 7
