REMARK  Name = 
REMARK  2 active torsions:
REMARK  status: ('A' for Active; 'I' for Inactive)
REMARK    1  A    between atoms: N_9  and  C_10
REMARK    2  A    between atoms: C_10  and  C_11
REMARK                            x       y       z     vdW  Elec       q    Type
REMARK                         _______ _______ _______ _____ _____    ______ ____
ROOT
ATOM      1  C   UNL     1      -3.816  -3.279   0.000  0.00  0.00    +0.061 C 
ATOM      2  C   UNL     1      -3.481  -2.525   0.000  0.00  0.00    +0.113 A 
ATOM      3  S   UNL     1      -2.674  -2.354   0.000  0.00  0.00    -0.033 S 
ATOM      4  C   UNL     1      -2.587  -1.533   0.000  0.00  0.00    +0.209 A 
ATOM      5  N   UNL     1      -1.873  -1.121   0.000  0.00  0.00    -0.134 NA
ATOM      6  C   UNL     1      -1.159  -1.533   0.000  0.00  0.00    +0.345 C 
ATOM      7  N   UNL     1      -0.444  -1.121   0.000  0.00  0.00    -0.184 NA
ATOM      8  O   UNL     1      -1.159  -2.358   0.000  0.00  0.00    -0.249 OA
ATOM      9  N   UNL     1      -3.341  -1.198   0.000  0.00  0.00    -0.124 NA
ATOM     10  N   UNL     1      -3.893  -1.811   0.000  0.00  0.00    -0.144 NA
ENDROOT
BRANCH   7  11
ATOM     11  C   UNL     1       0.270  -1.533   0.000  0.00  0.00    +0.147 C 
BRANCH  11  12
ATOM     12  C   UNL     1       0.985  -1.121   0.000  0.00  0.00    +0.147 C 
ATOM     13  C   UNL     1       1.797  -0.978   0.000  0.00  0.00    +0.032 C 
ATOM     14  C   UNL     1       2.079  -0.202   0.000  0.00  0.00    +0.003 C 
ATOM     15  C   UNL     1       1.549   0.430   0.000  0.00  0.00    +0.000 C 
ATOM     16  C   UNL     1       0.737   0.286   0.000  0.00  0.00    +0.003 C 
ATOM     17  C   UNL     1       0.455  -0.489   0.000  0.00  0.00    +0.032 C 
ATOM     18  O   UNL     1       1.267  -1.896   0.000  0.00  0.00    -0.224 OA
ENDBRANCH  11  12
ENDBRANCH   7  11
TORSDOF 2
