REMARK  Name = 
REMARK  4 active torsions:
REMARK  status: ('A' for Active; 'I' for Inactive)
REMARK    1  A    between atoms: N_11  and  C_12
REMARK    2  A    between atoms: C_12  and  C_13
REMARK    3  A    between atoms: N_16  and  C_17
REMARK    4  A    between atoms: C_17  and  C_18
REMARK                            x       y       z     vdW  Elec       q    Type
REMARK                         _______ _______ _______ _____ _____    ______ ____
ROOT
ATOM      1  C   UNL     1       0.715  -1.238   0.000  0.00  0.00    +0.031 C 
ATOM      2  C   UNL     1       0.715  -0.412   0.000  0.00  0.00    -0.018 A 
ATOM      3  C   UNL     1       1.429   0.000   0.000  0.00  0.00    +0.032 A 
ATOM      4  C   UNL     1       1.429   0.825   0.000  0.00  0.00    +0.155 A 
ATOM      5  N   UNL     1       2.143   1.238   0.000  0.00  0.00    -0.142 NA
ATOM      6  C   UNL     1       2.858   0.825   0.000  0.00  0.00    +0.345 C 
ATOM      7  N   UNL     1       3.572   1.238   0.000  0.00  0.00    -0.187 NA
ATOM      8  O   UNL     1       2.858   0.000   0.000  0.00  0.00    -0.249 OA
ATOM      9  N   UNL     1       0.715   1.238   0.000  0.00  0.00    -0.233 NA
ATOM     10  C   UNL     1       0.000   0.825   0.000  0.00  0.00    +0.061 A 
ATOM     11  C   UNL     1      -0.715   1.238   0.000  0.00  0.00    +0.052 C 
ATOM     12  C   UNL     1       0.000   0.000   0.000  0.00  0.00    +0.011 A 
ENDROOT
BRANCH   7  13
ATOM     13  C   UNL     1       4.287   0.825   0.000  0.00  0.00    +0.118 C 
BRANCH  13  14
ATOM     14  C   UNL     1       5.001   1.238   0.000  0.00  0.00    +0.039 C 
ATOM     15  C   UNL     1       5.755   0.902   0.000  0.00  0.00    +0.074 C 
ATOM     16  N   UNL     1       6.307   1.515   0.000  0.00  0.00    -0.266 NA
ATOM     17  C   UNL     1       5.894   2.229   0.000  0.00  0.00    +0.072 C 
ATOM     18  C   UNL     1       5.088   2.058   0.000  0.00  0.00    +0.020 C 
BRANCH  16  19
ATOM     19  C   UNL     1       7.128   1.429   0.000  0.00  0.00    +0.177 C 
BRANCH  19  20
ATOM     20  C   UNL     1       7.612   2.096   0.000  0.00  0.00    +0.412 C 
ATOM     21  F   UNL     1       6.945   2.581   0.000  0.00  0.00    -0.168 F 
ATOM     22  F   UNL     1       8.280   1.611   0.000  0.00  0.00    -0.168 F 
ATOM     23  F   UNL     1       8.097   2.764   0.000  0.00  0.00    -0.168 F 
ENDBRANCH  19  20
ENDBRANCH  16  19
ENDBRANCH  13  14
ENDBRANCH   7  13
TORSDOF 4
