REMARK  Name = 
REMARK  2 active torsions:
REMARK  status: ('A' for Active; 'I' for Inactive)
REMARK    1  A    between atoms: C_2  and  N_4
REMARK    2  A    between atoms: C_5  and  C_7
REMARK                            x       y       z     vdW  Elec       q    Type
REMARK                         _______ _______ _______ _____ _____    ______ ____
ROOT
ATOM      1  C   UNL     1       0.715  -1.238   0.000  0.00  0.00    +0.158 A 
ATOM      2  N   UNL     1       0.000  -1.650   0.000  0.00  0.00    -0.142 NA
ATOM      3  N   UNL     1       0.000  -2.475   0.000  0.00  0.00    -0.133 NA
ATOM      4  C   UNL     1       0.715  -2.888   0.000  0.00  0.00    +0.154 A 
ATOM      5  N   UNL     1       0.715  -3.712   0.000  0.00  0.00    -0.287 N 
ATOM      6  C   UNL     1       0.000  -4.125   0.000  0.00  0.00    +0.119 C 
ATOM      7  C   UNL     1       0.000  -4.950   0.000  0.00  0.00    +0.111 C 
ATOM      8  C   UNL     1      -0.812  -4.807   0.000  0.00  0.00    +0.031 C 
ATOM      9  C   UNL     1      -0.282  -5.725   0.000  0.00  0.00    +0.031 C 
ATOM     10  O   UNL     1       0.715  -5.362   0.000  0.00  0.00    -0.355 OA
ATOM     11  C   UNL     1       1.429  -4.950   0.000  0.00  0.00    +0.163 C 
ATOM     12  C   UNL     1       1.429  -4.125   0.000  0.00  0.00    +0.124 C 
ATOM     13  C   UNL     1       1.429  -2.475   0.000  0.00  0.00    +0.038 A 
ATOM     14  C   UNL     1       1.429  -1.650   0.000  0.00  0.00    +0.029 A 
ENDROOT
BRANCH   1  16
ATOM     15  N   UNL     1       0.000   0.000   0.000  0.00  0.00    -0.202 NA
ATOM     16  C   UNL     1       0.715  -0.412   0.000  0.00  0.00    +0.284 C 
ATOM     17  O   UNL     1       1.429   0.000   0.000  0.00  0.00    -0.267 OA
BRANCH  15  19
ATOM     18  C   UNL     1      -0.715   1.238   0.000  0.00  0.00    +0.023 C 
ATOM     19  C   UNL     1       0.000   0.825   0.000  0.00  0.00    +0.096 C 
ATOM     20  C   UNL     1       0.715   1.238   0.000  0.00  0.00    +0.023 C 
ENDBRANCH  15  19
ENDBRANCH   1  16
TORSDOF 2
