REMARK  Name = 
REMARK  2 active torsions:
REMARK  status: ('A' for Active; 'I' for Inactive)
REMARK    1  A    between atoms: C_4  and  N_5
REMARK    2  A    between atoms: C_13  and  C_15
REMARK                            x       y       z     vdW  Elec       q    Type
REMARK                         _______ _______ _______ _____ _____    ______ ____
ROOT
ATOM      1  N   UNL     1      -2.254  -3.776   0.000  0.00  0.00    -0.189 NA
ATOM      2  C   UNL     1      -2.254  -4.601   0.000  0.00  0.00    +0.345 C 
ATOM      3  N   UNL     1      -2.968  -5.014   0.000  0.00  0.00    -0.142 NA
ATOM      4  C   UNL     1      -2.968  -5.839   0.000  0.00  0.00    +0.156 A 
ATOM      5  N   UNL     1      -3.683  -6.251   0.000  0.00  0.00    -0.225 NA
ATOM      6  C   UNL     1      -3.683  -7.076   0.000  0.00  0.00    +0.154 A 
ATOM      7  C   UNL     1      -2.968  -7.489   0.000  0.00  0.00    +0.023 A 
ATOM      8  C   UNL     1      -2.254  -7.076   0.000  0.00  0.00    +0.004 A 
ATOM      9  C   UNL     1      -2.254  -6.251   0.000  0.00  0.00    +0.036 A 
ATOM     10  O   UNL     1      -1.540  -5.014   0.000  0.00  0.00    -0.249 OA
ENDROOT
BRANCH   1  13
ATOM     11  C   UNL     1      -1.127  -1.824   0.000  0.00  0.00    +0.002 C 
ATOM     12  C   UNL     1      -1.127  -2.649   0.000  0.00  0.00    +0.022 C 
ATOM     13  C   UNL     1      -1.540  -3.364   0.000  0.00  0.00    +0.097 C 
ATOM     14  C   UNL     1      -0.715  -3.364   0.000  0.00  0.00    +0.023 C 
ENDBRANCH   1  13
BRANCH   6  15
ATOM     15  C   UNL     1      -4.397  -7.489   0.000  0.00  0.00    +0.435 C 
ATOM     16  F   UNL     1      -3.985  -8.203   0.000  0.00  0.00    -0.164 F 
ATOM     17  F   UNL     1      -4.810  -6.774   0.000  0.00  0.00    -0.164 F 
ATOM     18  F   UNL     1      -5.112  -7.901   0.000  0.00  0.00    -0.164 F 
ENDBRANCH   6  15
TORSDOF 2
