REMARK  Name = 
REMARK  5 active torsions:
REMARK  status: ('A' for Active; 'I' for Inactive)
REMARK    1  A    between atoms: C_2  and  C_3
REMARK    2  A    between atoms: C_5  and  C_6
REMARK    3  A    between atoms: C_6  and  C_7
REMARK    4  A    between atoms: C_7  and  N_8
REMARK    5  A    between atoms: C_9  and  C_11
REMARK                            x       y       z     vdW  Elec       q    Type
REMARK                         _______ _______ _______ _____ _____    ______ ____
ROOT
ATOM      1  C   UNL     1       1.429  -2.475   0.000  0.00  0.00    +0.122 C 
ENDROOT
BRANCH   1   2
ATOM      2  N   UNL     1       2.143  -2.888   0.000  0.00  0.00    -0.205 NA
ATOM      3  C   UNL     1       2.858  -2.475   0.000  0.00  0.00    +0.241 C 
ATOM      4  O   UNL     1       2.858  -1.650   0.000  0.00  0.00    -0.273 OA
BRANCH   3   5
ATOM      5  C   UNL     1       3.572  -2.888   0.000  0.00  0.00    +0.078 C 
ATOM      6  C   UNL     1       3.572  -3.712   0.000  0.00  0.00    +0.009 C 
ATOM      7  C   UNL     1       4.287  -4.125   0.000  0.00  0.00    +0.000 C 
ATOM      8  C   UNL     1       5.001  -3.712   0.000  0.00  0.00    +0.000 C 
ATOM      9  C   UNL     1       5.001  -2.888   0.000  0.00  0.00    +0.000 C 
ATOM     10  C   UNL     1       4.287  -2.475   0.000  0.00  0.00    +0.009 C 
ENDBRANCH   3   5
ENDBRANCH   1   2
BRANCH   1  11
ATOM     11  C   UNL     1       0.715  -2.888   0.000  0.00  0.00    +0.076 C 
BRANCH  11  16
ATOM     12  C   UNL     1      -0.893  -1.483   0.000  0.00  0.00    +0.061 A 
ATOM     13  C   UNL     1      -1.306  -2.197   0.000  0.00  0.00    +0.022 A 
ATOM     14  C   UNL     1      -2.126  -2.284   0.000  0.00  0.00    +0.039 C 
ATOM     15  S   UNL     1      -0.754  -2.811   0.000  0.00  0.00    -0.075 S 
ATOM     16  C   UNL     1       0.000  -2.475   0.000  0.00  0.00    +0.089 A 
ATOM     17  N   UNL     1      -0.086  -1.655   0.000  0.00  0.00    -0.247 NA
BRANCH  12  19
ATOM     18  C   UNL     1      -2.049  -0.643   0.000  0.00  0.00    +0.007 C 
ATOM     19  C   UNL     1      -1.229  -0.729   0.000  0.00  0.00    +0.046 C 
ENDBRANCH  12  19
ENDBRANCH  11  16
ENDBRANCH   1  11
TORSDOF 5
