REMARK  Name = 
REMARK  3 active torsions:
REMARK  status: ('A' for Active; 'I' for Inactive)
REMARK    1  A    between atoms: C_2  and  C_3
REMARK    2  A    between atoms: C_2  and  N_13
REMARK    3  A    between atoms: C_3  and  N_4
REMARK                            x       y       z     vdW  Elec       q    Type
REMARK                         _______ _______ _______ _____ _____    ______ ____
ROOT
ATOM      1  C   UNL     1       0.715  -2.062   0.000  0.00  0.00    +0.019 C 
ATOM      2  C   UNL     1       0.715  -1.238   0.000  0.00  0.00    +0.079 C 
ENDROOT
BRANCH   2   3
ATOM      3  N   UNL     1       0.000  -0.825   0.000  0.00  0.00    -0.268 NA
ATOM      4  C   UNL     1       0.000   0.000   0.000  0.00  0.00    +0.102 C 
ATOM      5  C   UNL     1      -0.715   0.412   0.000  0.00  0.00    +0.131 C 
ATOM      6  C   UNL     1      -0.715   1.238   0.000  0.00  0.00    +0.034 C 
ATOM      7  O   UNL     1      -1.429   0.000   0.000  0.00  0.00    -0.356 OA
ATOM      8  C   UNL     1      -1.429  -0.825   0.000  0.00  0.00    +0.131 C 
ATOM      9  C   UNL     1      -2.143  -1.238   0.000  0.00  0.00    +0.034 C 
ATOM     10  C   UNL     1      -0.715  -1.238   0.000  0.00  0.00    +0.102 C 
ENDBRANCH   2   3
BRANCH   2  11
ATOM     11  C   UNL     1       1.429  -0.825   0.000  0.00  0.00    +0.133 C 
BRANCH  11  12
ATOM     12  N   UNL     1       2.143  -1.238   0.000  0.00  0.00    -0.185 NA
ATOM     13  C   UNL     1       2.858  -0.825   0.000  0.00  0.00    +0.345 C 
ATOM     14  N   UNL     1       3.572  -1.238   0.000  0.00  0.00    -0.136 NA
ATOM     15  C   UNL     1       4.287  -0.825   0.000  0.00  0.00    +0.187 A 
ATOM     16  S   UNL     1       5.040  -1.161   0.000  0.00  0.00    -0.049 S 
ATOM     17  C   UNL     1       5.593  -0.547   0.000  0.00  0.00    +0.059 A 
ATOM     18  C   UNL     1       5.180   0.167   0.000  0.00  0.00    +0.108 A 
ATOM     19  N   UNL     1       4.373  -0.004   0.000  0.00  0.00    -0.221 NA
ATOM     20  O   UNL     1       2.858   0.000   0.000  0.00  0.00    -0.249 OA
ENDBRANCH  11  12
ENDBRANCH   2  11
TORSDOF 3
