REMARK  Name = 
REMARK  1 active torsions:
REMARK  status: ('A' for Active; 'I' for Inactive)
REMARK    1  A    between atoms: C_2  and  C_9
REMARK                            x       y       z     vdW  Elec       q    Type
REMARK                         _______ _______ _______ _____ _____    ______ ____
ROOT
ATOM      1  C   UNL     1       0.632  -0.444   0.000  0.00  0.00    +0.036 C 
ATOM      2  C   UNL     1       1.184  -1.057   0.000  0.00  0.00    +0.170 C 
ATOM      3  C   UNL     1       0.517  -1.542   0.000  0.00  0.00    +0.271 C 
ATOM      4  O   UNL     1      -0.268  -1.287   0.000  0.00  0.00    -0.271 OA
ATOM      5  N   UNL     1       0.772  -2.327   0.000  0.00  0.00    -0.125 NA
ATOM      6  C   UNL     1       1.597  -2.327   0.000  0.00  0.00    +0.347 C 
ATOM      7  O   UNL     1       2.082  -2.994   0.000  0.00  0.00    -0.249 OA
ATOM      8  N   UNL     1       1.851  -1.542   0.000  0.00  0.00    -0.177 NA
ENDROOT
BRANCH   2   9
ATOM      9  C   UNL     1       1.736  -0.444   0.000  0.00  0.00    +0.023 A 
ATOM     10  C   UNL     1       2.543  -0.616   0.000  0.00  0.00    +0.097 A 
ATOM     11  N   UNL     1       3.095  -0.003   0.000  0.00  0.00    -0.243 NA
ATOM     12  C   UNL     1       2.840   0.782   0.000  0.00  0.00    +0.099 A 
ATOM     13  C   UNL     1       2.033   0.954   0.000  0.00  0.00    +0.020 A 
ATOM     14  C   UNL     1       1.481   0.341   0.000  0.00  0.00    +0.001 A 
ENDBRANCH   2   9
TORSDOF 1
