REMARK  Name = 
REMARK  5 active torsions:
REMARK  status: ('A' for Active; 'I' for Inactive)
REMARK    1  A    between atoms: N_7  and  C_8
REMARK    2  A    between atoms: C_8  and  C_9
REMARK    3  A    between atoms: C_9  and  C_11
REMARK    4  A    between atoms: C_11  and  O_12
REMARK    5  A    between atoms: O_12  and  C_13
REMARK                            x       y       z     vdW  Elec       q    Type
REMARK                         _______ _______ _______ _____ _____    ______ ____
ROOT
ATOM      1  C   UNL     1       0.715  -2.888   0.000  0.00  0.00    +0.150 C 
ENDROOT
BRANCH   1   6
ATOM      2  C   UNL     1      -2.143  -2.888   0.000  0.00  0.00    +0.135 C 
ATOM      3  N   UNL     1      -1.429  -2.475   0.000  0.00  0.00    -0.278 N 
ATOM      4  C   UNL     1      -0.715  -2.888   0.000  0.00  0.00    +0.334 A 
ATOM      5  O   UNL     1      -0.715  -3.712   0.000  0.00  0.00    -0.246 OA
ATOM      6  N   UNL     1       0.000  -2.475   0.000  0.00  0.00    -0.246 N 
ATOM      7  C   UNL     1       0.000  -1.650   0.000  0.00  0.00    +0.266 A 
ATOM      8  O   UNL     1       0.715  -1.238   0.000  0.00  0.00    -0.267 OA
ATOM      9  C   UNL     1      -0.715  -1.238   0.000  0.00  0.00    +0.080 A 
ATOM     10  C   UNL     1      -1.429  -1.650   0.000  0.00  0.00    +0.085 A 
ENDBRANCH   1   6
BRANCH   1  11
ATOM     11  C   UNL     1       1.429  -2.475   0.000  0.00  0.00    +0.218 C 
ATOM     12  O   UNL     1       1.429  -1.650   0.000  0.00  0.00    -0.217 OA
BRANCH  11  13
ATOM     13  C   UNL     1       2.143  -2.888   0.000  0.00  0.00    +0.240 C 
BRANCH  13  14
ATOM     14  O   UNL     1       2.858  -2.475   0.000  0.00  0.00    -0.473 OA
BRANCH  14  15
ATOM     15  C   UNL     1       3.572  -2.888   0.000  0.00  0.00    +0.139 A 
ATOM     16  C   UNL     1       3.572  -3.712   0.000  0.00  0.00    +0.037 A 
ATOM     17  C   UNL     1       4.287  -4.125   0.000  0.00  0.00    +0.003 A 
ATOM     18  C   UNL     1       5.001  -3.712   0.000  0.00  0.00    +0.000 A 
ATOM     19  C   UNL     1       5.001  -2.888   0.000  0.00  0.00    +0.003 A 
ATOM     20  C   UNL     1       4.287  -2.475   0.000  0.00  0.00    +0.037 A 
ENDBRANCH  14  15
ENDBRANCH  13  14
ENDBRANCH  11  13
ENDBRANCH   1  11
TORSDOF 5
