REMARK  Name = 
REMARK  5 active torsions:
REMARK  status: ('A' for Active; 'I' for Inactive)
REMARK    1  A    between atoms: C_7  and  C_8
REMARK    2  A    between atoms: C_8  and  N_9
REMARK    3  A    between atoms: N_9  and  C_10
REMARK    4  A    between atoms: C_10  and  C_11
REMARK    5  A    between atoms: C_11  and  N_12
REMARK                            x       y       z     vdW  Elec       q    Type
REMARK                         _______ _______ _______ _____ _____    ______ ____
ROOT
ATOM      1  C   UNL     1      -0.715   2.062   0.000  0.00  0.00    +0.089 C 
ENDROOT
BRANCH   1   7
ATOM      2  C   UNL     1      -4.287   3.300   0.000  0.00  0.00    +0.095 C 
ATOM      3  C   UNL     1      -3.572   3.712   0.000  0.00  0.00    +0.226 C 
ATOM      4  N   UNL     1      -2.858   3.300   0.000  0.00  0.00    -0.280 N 
ATOM      5  C   UNL     1      -2.858   2.475   0.000  0.00  0.00    +0.093 C 
ATOM      6  C   UNL     1      -2.143   2.062   0.000  0.00  0.00    +0.023 C 
ATOM      7  C   UNL     1      -1.429   2.475   0.000  0.00  0.00    +0.021 C 
ATOM      8  C   UNL     1      -1.429   3.300   0.000  0.00  0.00    +0.023 C 
ATOM      9  C   UNL     1      -2.143   3.712   0.000  0.00  0.00    +0.093 C 
ATOM     10  O   UNL     1      -3.572   4.537   0.000  0.00  0.00    -0.275 OA
ENDBRANCH   1   7
BRANCH   1  11
ATOM     11  N   UNL     1       0.000   2.475   0.000  0.00  0.00    -0.216 NA
BRANCH  11  12
ATOM     12  C   UNL     1       0.715   2.062   0.000  0.00  0.00    +0.115 C 
BRANCH  12  13
ATOM     13  C   UNL     1       1.429   2.475   0.000  0.00  0.00    +0.146 C 
BRANCH  13  14
ATOM     14  N   UNL     1       2.143   2.062   0.000  0.00  0.00    -0.248 N 
ATOM     15  N   UNL     1       2.230   1.242   0.000  0.00  0.00    -0.168 NA
ATOM     16  C   UNL     1       3.037   1.071   0.000  0.00  0.00    +0.117 A 
ATOM     17  C   UNL     1       3.449   1.785   0.000  0.00  0.00    +0.018 A 
ATOM     18  C   UNL     1       4.270   1.871   0.000  0.00  0.00    +0.034 C 
ATOM     19  C   UNL     1       2.897   2.398   0.000  0.00  0.00    +0.092 A 
ENDBRANCH  13  14
ENDBRANCH  12  13
ENDBRANCH  11  12
ENDBRANCH   1  11
TORSDOF 5
