REMARK  Name = 
REMARK  5 active torsions:
REMARK  status: ('A' for Active; 'I' for Inactive)
REMARK    1  A    between atoms: N_2  and  C_4
REMARK    2  A    between atoms: C_9  and  N_10
REMARK    3  A    between atoms: C_11  and  C_13
REMARK    4  A    between atoms: C_13  and  O_14
REMARK    5  A    between atoms: O_14  and  C_15
REMARK                            x       y       z     vdW  Elec       q    Type
REMARK                         _______ _______ _______ _____ _____    ______ ____
ROOT
ATOM      1  N   UNL     1       0.715  -2.888   0.000  0.00  0.00    -0.174 NA
ATOM      2  C   UNL     1       1.429  -2.475   0.000  0.00  0.00    +0.276 C 
ATOM      3  O   UNL     1       1.429  -1.650   0.000  0.00  0.00    -0.270 OA
ENDROOT
BRANCH   1   5
ATOM      4  C   UNL     1      -0.715  -2.888   0.000  0.00  0.00    +0.147 A 
ATOM      5  C   UNL     1       0.000  -2.475   0.000  0.00  0.00    +0.105 A 
ATOM      6  C   UNL     1       0.000  -1.650   0.000  0.00  0.00    +0.021 A 
ATOM      7  C   UNL     1      -0.715  -1.238   0.000  0.00  0.00    +0.022 A 
ATOM      8  C   UNL     1      -1.429  -1.650   0.000  0.00  0.00    +0.100 A 
ATOM      9  N   UNL     1      -1.429  -2.475   0.000  0.00  0.00    -0.228 NA
BRANCH   4  11
ATOM     10  C   UNL     1      -1.429  -4.125   0.000  0.00  0.00    +0.114 C 
ATOM     11  N   UNL     1      -0.715  -3.712   0.000  0.00  0.00    -0.289 N 
ATOM     12  C   UNL     1       0.000  -4.125   0.000  0.00  0.00    +0.114 C 
ENDBRANCH   4  11
ENDBRANCH   1   5
BRANCH   2  13
ATOM     13  C   UNL     1       2.143  -2.888   0.000  0.00  0.00    +0.229 C 
BRANCH  13  14
ATOM     14  O   UNL     1       2.858  -2.475   0.000  0.00  0.00    -0.347 OA
BRANCH  14  15
ATOM     15  C   UNL     1       3.572  -2.888   0.000  0.00  0.00    +0.116 C 
ATOM     16  C   UNL     1       3.572  -3.712   0.000  0.00  0.00    +0.030 C 
ATOM     17  C   UNL     1       4.287  -4.125   0.000  0.00  0.00    +0.002 C 
ATOM     18  C   UNL     1       5.001  -3.712   0.000  0.00  0.00    +0.000 C 
ATOM     19  C   UNL     1       5.001  -2.888   0.000  0.00  0.00    +0.002 C 
ATOM     20  C   UNL     1       4.287  -2.475   0.000  0.00  0.00    +0.030 C 
ENDBRANCH  14  15
ENDBRANCH  13  14
ENDBRANCH   2  13
TORSDOF 5
