REMARK  Name = 
REMARK  2 active torsions:
REMARK  status: ('A' for Active; 'I' for Inactive)
REMARK    1  A    between atoms: C_9  and  N_10
REMARK    2  A    between atoms: C_12  and  C_13
REMARK                            x       y       z     vdW  Elec       q    Type
REMARK                         _______ _______ _______ _____ _____    ______ ____
ROOT
ATOM      1 CL   UNL     1       0.000   0.000   0.000  0.00  0.00    +0.000 Cl
ENDROOT
TORSDOF 0
REMARK  Name = 
REMARK  2 active torsions:
REMARK  status: ('A' for Active; 'I' for Inactive)
REMARK    1  A    between atoms: C_9  and  N_10
REMARK    2  A    between atoms: C_12  and  C_13
REMARK                            x       y       z     vdW  Elec       q    Type
REMARK                         _______ _______ _______ _____ _____    ______ ____
ROOT
ATOM      1 CL   UNL     1       2.004   0.000   0.000  0.00  0.00    +0.000 Cl
ENDROOT
TORSDOF 0
REMARK  Name = 
REMARK  2 active torsions:
REMARK  status: ('A' for Active; 'I' for Inactive)
REMARK    1  A    between atoms: C_9  and  N_10
REMARK    2  A    between atoms: C_12  and  C_13
REMARK                            x       y       z     vdW  Elec       q    Type
REMARK                         _______ _______ _______ _____ _____    ______ ____
ROOT
ATOM      1  N   UNL     1      -1.514  -3.300   0.000  0.00  0.00    -0.131 NA
ATOM      2  C   UNL     1      -0.799  -2.888   0.000  0.00  0.00    +0.114 C 
ATOM      3  C   UNL     1      -0.085  -3.300   0.000  0.00  0.00    +0.124 C 
ATOM      4  C   UNL     1       0.630  -2.888   0.000  0.00  0.00    +0.026 C 
ATOM      5  C   UNL     1       0.630  -2.062   0.000  0.00  0.00    +0.002 C 
ATOM      6  C   UNL     1      -0.085  -1.650   0.000  0.00  0.00    +0.002 C 
ATOM      7  C   UNL     1      -0.799  -2.062   0.000  0.00  0.00    +0.021 C 
ENDROOT
BRANCH   3   8
ATOM      8  N   UNL     1      -0.085  -4.125   0.000  0.00  0.00    -0.231 N 
ATOM      9  N   UNL     1      -0.752  -4.610   0.000  0.00  0.00    -0.064 NA
ATOM     10  N   UNL     1      -0.497  -5.394   0.000  0.00  0.00    -0.130 NA
ATOM     11  C   UNL     1       0.328  -5.394   0.000  0.00  0.00    +0.134 A 
ATOM     12  C   UNL     1       0.583  -4.610   0.000  0.00  0.00    +0.116 A 
BRANCH  11  13
ATOM     13  C   UNL     1       0.813  -6.062   0.000  0.00  0.00    +0.231 C 
ATOM     14  O   UNL     1       1.633  -5.976   0.000  0.00  0.00    -0.213 OA
ENDBRANCH  11  13
ENDBRANCH   3   8
TORSDOF 2
