REMARK  Name = 
REMARK  7 active torsions:
REMARK  status: ('A' for Active; 'I' for Inactive)
REMARK    1  A    between atoms: C_2  and  C_3
REMARK    2  A    between atoms: C_3  and  O_4
REMARK    3  A    between atoms: O_4  and  C_5
REMARK    4  A    between atoms: C_5  and  C_6
REMARK    5  A    between atoms: C_6  and  N_7
REMARK    6  A    between atoms: C_11  and  S_14
REMARK    7  A    between atoms: S_14  and  N_17
REMARK                            x       y       z     vdW  Elec       q    Type
REMARK                         _______ _______ _______ _____ _____    ______ ____
ROOT
ATOM      1  N   UNL     1       5.001  -7.013   0.000  0.00  0.00    -0.218 NA
ATOM      2  C   UNL     1       5.716  -7.425   0.000  0.00  0.00    +0.148 A 
ATOM      3  N   UNL     1       5.716  -8.250   0.000  0.00  0.00    -0.226 NA
ATOM      4  C   UNL     1       6.430  -8.662   0.000  0.00  0.00    +0.120 A 
ATOM      5  C   UNL     1       7.145  -8.250   0.000  0.00  0.00    +0.141 A 
ATOM      6  C   UNL     1       7.145  -7.425   0.000  0.00  0.00    +0.024 A 
ATOM      7  C   UNL     1       6.430  -7.013   0.000  0.00  0.00    +0.037 A 
ENDROOT
BRANCH   5   8
ATOM      8  S   UNL     1       7.859  -8.662   0.000  0.00  0.00    +0.065 S 
ATOM      9  O   UNL     1       8.272  -7.948   0.000  0.00  0.00    -0.153 OA
ATOM     10  O   UNL     1       7.447  -9.377   0.000  0.00  0.00    -0.153 OA
BRANCH   8  11
ATOM     11  N   UNL     1       8.574  -9.075   0.000  0.00  0.00    -0.155 NA
ATOM     12  C   UNL     1       8.574  -9.900   0.000  0.00  0.00    +0.096 C 
ATOM     13  C   UNL     1       9.288 -10.312   0.000  0.00  0.00    +0.019 C 
ATOM     14  C   UNL     1      10.003  -9.900   0.000  0.00  0.00    +0.003 C 
ATOM     15  C   UNL     1      10.003  -9.075   0.000  0.00  0.00    +0.019 C 
ATOM     16  C   UNL     1       9.288  -8.662   0.000  0.00  0.00    +0.096 C 
ENDBRANCH   8  11
ENDBRANCH   5   8
BRANCH   1  17
ATOM     17  C   UNL     1       4.287  -7.425   0.000  0.00  0.00    +0.146 C 
BRANCH  17  18
ATOM     18  C   UNL     1       3.572  -7.013   0.000  0.00  0.00    +0.166 C 
BRANCH  18  19
ATOM     19  O   UNL     1       2.858  -7.425   0.000  0.00  0.00    -0.349 OA
BRANCH  19  20
ATOM     20  C   UNL     1       2.143  -7.013   0.000  0.00  0.00    +0.178 C 
BRANCH  20  22
ATOM     21  O   UNL     1       0.715  -7.013   0.000  0.00  0.00    -0.218 OA
ATOM     22  C   UNL     1       1.429  -7.425   0.000  0.00  0.00    +0.214 C 
ENDBRANCH  20  22
ENDBRANCH  19  20
ENDBRANCH  18  19
ENDBRANCH  17  18
ENDBRANCH   1  17
TORSDOF 7
