REMARK  Name = 
REMARK  7 active torsions:
REMARK  status: ('A' for Active; 'I' for Inactive)
REMARK    1  A    between atoms: O_2  and  C_3
REMARK    2  A    between atoms: C_3  and  C_4
REMARK    3  A    between atoms: C_4  and  N_6
REMARK    4  A    between atoms: C_7  and  C_9
REMARK    5  A    between atoms: C_9  and  N_10
REMARK    6  A    between atoms: C_11  and  C_20
REMARK    7  A    between atoms: C_14  and  C_15
REMARK                            x       y       z     vdW  Elec       q    Type
REMARK                         _______ _______ _______ _____ _____    ______ ____
ROOT
ATOM      1  N   UNL     1       6.430  -2.062   0.000  0.00  0.00    -0.283 N 
ATOM      2  C   UNL     1       5.716  -2.475   0.000  0.00  0.00    +0.266 A 
ATOM      3  O   UNL     1       5.001  -2.062   0.000  0.00  0.00    -0.267 OA
ATOM      4  C   UNL     1       5.716  -3.300   0.000  0.00  0.00    +0.113 A 
ATOM      5  C   UNL     1       6.430  -3.712   0.000  0.00  0.00    +0.011 A 
ATOM      6  C   UNL     1       7.145  -3.300   0.000  0.00  0.00    +0.021 A 
ATOM      7  C   UNL     1       7.145  -2.475   0.000  0.00  0.00    +0.135 A 
ENDROOT
BRANCH   7   8
ATOM      8  C   UNL     1       7.859  -2.062   0.000  0.00  0.00    +0.433 C 
ATOM      9  F   UNL     1       7.447  -1.348   0.000  0.00  0.00    -0.164 F 
ATOM     10  F   UNL     1       8.272  -2.777   0.000  0.00  0.00    -0.164 F 
ATOM     11  F   UNL     1       8.574  -1.650   0.000  0.00  0.00    -0.164 F 
ENDBRANCH   7   8
BRANCH   4  12
ATOM     12  C   UNL     1       5.001  -3.712   0.000  0.00  0.00    +0.289 C 
ATOM     13  N   UNL     1       4.287  -3.300   0.000  0.00  0.00    -0.084 NA
ATOM     14  O   UNL     1       5.001  -4.537   0.000  0.00  0.00    -0.266 OA
ENDBRANCH   4  12
BRANCH   1  15
ATOM     15  C   UNL     1       6.430  -1.238   0.000  0.00  0.00    +0.196 C 
BRANCH  15  17
ATOM     16  N   UNL     1       5.001  -1.238   0.000  0.00  0.00    -0.203 NA
ATOM     17  C   UNL     1       5.716  -0.825   0.000  0.00  0.00    +0.265 C 
ATOM     18  O   UNL     1       5.716   0.000   0.000  0.00  0.00    -0.271 OA
BRANCH  16  19
ATOM     19  C   UNL     1       4.287  -0.825   0.000  0.00  0.00    +0.125 C 
ATOM     20  C   UNL     1       4.287   0.000   0.000  0.00  0.00    +0.026 C 
BRANCH  19  21
ATOM     21  C   UNL     1       3.572  -1.238   0.000  0.00  0.00    +0.164 C 
BRANCH  21  23
ATOM     22  C   UNL     1       2.143  -1.238   0.000  0.00  0.00    +0.174 C 
ATOM     23  O   UNL     1       2.858  -0.825   0.000  0.00  0.00    -0.349 OA
ENDBRANCH  21  23
ENDBRANCH  19  21
ENDBRANCH  16  19
ENDBRANCH  15  17
ENDBRANCH   1  15
TORSDOF 7
