REMARK  Name = 
REMARK  4 active torsions:
REMARK  status: ('A' for Active; 'I' for Inactive)
REMARK    1  A    between atoms: C_7  and  N_10
REMARK    2  A    between atoms: N_13  and  C_14
REMARK    3  A    between atoms: C_14  and  C_15
REMARK    4  A    between atoms: C_15  and  N_16
REMARK                            x       y       z     vdW  Elec       q    Type
REMARK                         _______ _______ _______ _____ _____    ______ ____
ROOT
ATOM      1  N   UNL     1       0.715   2.062   0.000  0.00  0.00    -0.189 NA
ATOM      2  C   UNL     1       1.429   1.650   0.000  0.00  0.00    +0.339 C 
ATOM      3  N   UNL     1       2.143   2.062   0.000  0.00  0.00    -0.185 NA
ATOM      4  O   UNL     1       1.429   0.825   0.000  0.00  0.00    -0.249 OA
ENDROOT
BRANCH   1  10
ATOM      5  C   UNL     1      -2.143  -0.412   0.000  0.00  0.00    +0.095 C 
ATOM      6  C   UNL     1      -2.143   0.412   0.000  0.00  0.00    +0.226 C 
ATOM      7  N   UNL     1      -1.429   0.825   0.000  0.00  0.00    -0.279 N 
ATOM      8  C   UNL     1      -0.715   0.412   0.000  0.00  0.00    +0.095 C 
ATOM      9  C   UNL     1       0.000   0.825   0.000  0.00  0.00    +0.043 C 
ATOM     10  C   UNL     1       0.000   1.650   0.000  0.00  0.00    +0.100 C 
ATOM     11  C   UNL     1      -0.715   2.062   0.000  0.00  0.00    +0.043 C 
ATOM     12  C   UNL     1      -1.429   1.650   0.000  0.00  0.00    +0.095 C 
ATOM     13  O   UNL     1      -2.858   0.825   0.000  0.00  0.00    -0.275 OA
ENDBRANCH   1  10
BRANCH   3  14
ATOM     14  C   UNL     1       2.858   1.650   0.000  0.00  0.00    +0.141 C 
BRANCH  14  15
ATOM     15  C   UNL     1       3.572   2.062   0.000  0.00  0.00    +0.131 C 
BRANCH  15  16
ATOM     16  N   UNL     1       4.287   1.650   0.000  0.00  0.00    -0.306 N 
ATOM     17  C   UNL     1       4.373   0.830   0.000  0.00  0.00    +0.179 A 
ATOM     18  N   UNL     1       5.180   0.658   0.000  0.00  0.00    -0.222 NA
ATOM     19  C   UNL     1       5.593   1.373   0.000  0.00  0.00    +0.119 A 
ATOM     20  C   UNL     1       5.040   1.986   0.000  0.00  0.00    +0.098 A 
ENDBRANCH  15  16
ENDBRANCH  14  15
ENDBRANCH   3  14
TORSDOF 4
