REMARK  Name = 
REMARK  5 active torsions:
REMARK  status: ('A' for Active; 'I' for Inactive)
REMARK    1  A    between atoms: C_2  and  C_3
REMARK    2  A    between atoms: C_3  and  N_4
REMARK    3  A    between atoms: N_9  and  C_10
REMARK    4  A    between atoms: C_10  and  C_11
REMARK    5  A    between atoms: C_10  and  C_14
REMARK                            x       y       z     vdW  Elec       q    Type
REMARK                         _______ _______ _______ _____ _____    ______ ____
ROOT
ATOM      1  O   UNL     1       1.847  -0.386   0.000  0.00  0.00    -0.271 OA
ATOM      2  C   UNL     1       1.847  -1.211   0.000  0.00  0.00    +0.266 C 
ATOM      3  N   UNL     1       2.561  -1.624   0.000  0.00  0.00    -0.206 NA
ENDROOT
BRANCH   3   4
ATOM      4  C   UNL     1       3.276  -1.211   0.000  0.00  0.00    +0.095 C 
BRANCH   4   5
ATOM      5  C   UNL     1       3.276  -0.386   0.000  0.00  0.00    +0.020 C 
ATOM      6  C   UNL     1       3.688   0.328   0.000  0.00  0.00    +0.002 C 
ATOM      7  C   UNL     1       2.863   0.328   0.000  0.00  0.00    +0.002 C 
ENDBRANCH   4   5
BRANCH   4   8
ATOM      8  C   UNL     1       3.990  -1.624   0.000  0.00  0.00    +0.020 C 
ATOM      9  C   UNL     1       4.402  -2.338   0.000  0.00  0.00    +0.002 C 
ATOM     10  C   UNL     1       4.815  -1.624   0.000  0.00  0.00    +0.002 C 
ENDBRANCH   4   8
ENDBRANCH   3   4
BRANCH   2  11
ATOM     11  C   UNL     1       1.132  -1.624   0.000  0.00  0.00    +0.215 C 
BRANCH  11  12
ATOM     12  N   UNL     1       0.418  -1.211   0.000  0.00  0.00    -0.221 N 
ATOM     13  N   UNL     1       0.331  -0.391   0.000  0.00  0.00    -0.145 NA
ATOM     14  C   UNL     1      -0.476  -0.219   0.000  0.00  0.00    +0.221 A 
ATOM     15  N   UNL     1      -0.888  -0.934   0.000  0.00  0.00    -0.201 NA
ATOM     16  C   UNL     1      -0.336  -1.547   0.000  0.00  0.00    +0.198 A 
ENDBRANCH  11  12
ENDBRANCH   2  11
TORSDOF 5
