REMARK  Name = 
REMARK  2 active torsions:
REMARK  status: ('A' for Active; 'I' for Inactive)
REMARK    1  A    between atoms: C_6  and  C_7
REMARK    2  A    between atoms: C_7  and  N_8
REMARK                            x       y       z     vdW  Elec       q    Type
REMARK                         _______ _______ _______ _____ _____    ______ ____
ROOT
ATOM      1  N   UNL     1       0.743  -2.437   0.000  0.00  0.00    -0.185 NA
ATOM      2  C   UNL     1       1.457  -2.025   0.000  0.00  0.00    +0.345 C 
ATOM      3  N   UNL     1       2.171  -2.437   0.000  0.00  0.00    -0.134 NA
ATOM      4  C   UNL     1       2.886  -2.025   0.000  0.00  0.00    +0.209 A 
ATOM      5  S   UNL     1       3.640  -2.360   0.000  0.00  0.00    -0.033 S 
ATOM      6  C   UNL     1       4.192  -1.747   0.000  0.00  0.00    +0.113 A 
ATOM      7  C   UNL     1       5.012  -1.833   0.000  0.00  0.00    +0.061 C 
ATOM      8  N   UNL     1       3.779  -1.033   0.000  0.00  0.00    -0.144 NA
ATOM      9  N   UNL     1       2.972  -1.204   0.000  0.00  0.00    -0.124 NA
ATOM     10  O   UNL     1       1.457  -1.200   0.000  0.00  0.00    -0.249 OA
ENDROOT
BRANCH   1  11
ATOM     11  C   UNL     1       0.028  -2.025   0.000  0.00  0.00    +0.133 C 
BRANCH  11  14
ATOM     12  C   UNL     1      -0.160  -3.810   0.000  0.00  0.00    +0.090 C 
ATOM     13  N   UNL     1      -0.773  -3.258   0.000  0.00  0.00    -0.271 NA
ATOM     14  C   UNL     1      -0.686  -2.437   0.000  0.00  0.00    +0.079 C 
ATOM     15  C   UNL     1      -1.440  -2.102   0.000  0.00  0.00    +0.019 C 
ATOM     16  C   UNL     1      -1.992  -2.715   0.000  0.00  0.00    +0.019 C 
ATOM     17  C   UNL     1      -1.580  -3.429   0.000  0.00  0.00    +0.072 C 
ENDBRANCH  11  14
ENDBRANCH   1  11
TORSDOF 2
