REMARK  Name = 
REMARK  3 active torsions:
REMARK  status: ('A' for Active; 'I' for Inactive)
REMARK    1  A    between atoms: N_10  and  C_11
REMARK    2  A    between atoms: C_11  and  C_12
REMARK    3  A    between atoms: C_12  and  C_13
REMARK                            x       y       z     vdW  Elec       q    Type
REMARK                         _______ _______ _______ _____ _____    ______ ____
ROOT
ATOM      1  C   UNL     1       0.715  -6.188   0.000  0.00  0.00    +0.031 C 
ATOM      2  C   UNL     1       0.715  -5.362   0.000  0.00  0.00    -0.017 A 
ATOM      3  C   UNL     1       1.429  -4.950   0.000  0.00  0.00    +0.032 A 
ATOM      4  C   UNL     1       1.429  -4.125   0.000  0.00  0.00    +0.156 A 
ATOM      5  N   UNL     1       2.143  -3.712   0.000  0.00  0.00    -0.142 NA
ATOM      6  C   UNL     1       2.858  -4.125   0.000  0.00  0.00    +0.345 C 
ATOM      7  N   UNL     1       3.572  -3.712   0.000  0.00  0.00    -0.187 NA
ATOM      8  O   UNL     1       2.858  -4.950   0.000  0.00  0.00    -0.249 OA
ATOM      9  N   UNL     1       0.715  -3.712   0.000  0.00  0.00    -0.227 NA
ATOM     10  C   UNL     1       0.000  -4.125   0.000  0.00  0.00    +0.100 A 
ATOM     11  C   UNL     1       0.000  -4.950   0.000  0.00  0.00    +0.017 A 
ENDROOT
BRANCH   7  12
ATOM     12  C   UNL     1       4.287  -4.125   0.000  0.00  0.00    +0.119 C 
BRANCH  12  13
ATOM     13  C   UNL     1       5.001  -3.712   0.000  0.00  0.00    +0.053 C 
BRANCH  13  14
ATOM     14  C   UNL     1       5.716  -4.125   0.000  0.00  0.00    +0.117 C 
ATOM     15  O   UNL     1       5.716  -4.950   0.000  0.00  0.00    -0.356 OA
ATOM     16  C   UNL     1       6.430  -5.362   0.000  0.00  0.00    +0.142 C 
ATOM     17  C   UNL     1       7.145  -4.950   0.000  0.00  0.00    +0.032 C 
ATOM     18  C   UNL     1       7.145  -4.125   0.000  0.00  0.00    +0.005 C 
ATOM     19  C   UNL     1       6.430  -3.712   0.000  0.00  0.00    +0.030 C 
ENDBRANCH  13  14
ENDBRANCH  12  13
ENDBRANCH   7  12
TORSDOF 3
