REMARK  Name = 
REMARK  3 active torsions:
REMARK  status: ('A' for Active; 'I' for Inactive)
REMARK    1  A    between atoms: N_8  and  C_9
REMARK    2  A    between atoms: C_9  and  C_11
REMARK    3  A    between atoms: C_9  and  C_13
REMARK                            x       y       z     vdW  Elec       q    Type
REMARK                         _______ _______ _______ _____ _____    ______ ____
ROOT
ATOM      1  C   UNL     1       2.751  -2.537   0.000  0.00  0.00    +0.075 C 
ATOM      2  C   UNL     1       2.751  -3.362   0.000  0.00  0.00    +0.156 A 
ATOM      3  O   UNL     1       2.084  -3.846   0.000  0.00  0.00    -0.356 OA
ATOM      4  N   UNL     1       2.339  -4.631   0.000  0.00  0.00    -0.060 NA
ATOM      5  C   UNL     1       3.164  -4.631   0.000  0.00  0.00    +0.197 A 
ATOM      6  N   UNL     1       3.649  -5.299   0.000  0.00  0.00    -0.139 NA
ATOM      7  C   UNL     1       3.313  -6.052   0.000  0.00  0.00    +0.345 C 
ATOM      8  N   UNL     1       3.798  -6.720   0.000  0.00  0.00    -0.188 NA
ATOM      9  O   UNL     1       2.493  -6.138   0.000  0.00  0.00    -0.249 OA
ATOM     10  C   UNL     1       3.419  -3.846   0.000  0.00  0.00    +0.075 A 
ENDROOT
BRANCH   8  11
ATOM     11  C   UNL     1       3.462  -7.473   0.000  0.00  0.00    +0.111 C 
ATOM     12  C   UNL     1       2.709  -7.138   0.000  0.00  0.00    +0.024 C 
BRANCH  11  13
ATOM     13  C   UNL     1       3.127  -8.227   0.000  0.00  0.00    +0.021 C 
ATOM     14  C   UNL     1       2.306  -8.313   0.000  0.00  0.00    +0.002 C 
ATOM     15  C   UNL     1       1.971  -9.067   0.000  0.00  0.00    +0.000 C 
ATOM     16  C   UNL     1       2.456  -9.734   0.000  0.00  0.00    +0.000 C 
ATOM     17  C   UNL     1       3.276  -9.648   0.000  0.00  0.00    +0.000 C 
ATOM     18  C   UNL     1       3.612  -8.895   0.000  0.00  0.00    +0.002 C 
ENDBRANCH  11  13
BRANCH  11  19
ATOM     19  C   UNL     1       4.216  -7.809   0.000  0.00  0.00    +0.202 C 
ATOM     20  O   UNL     1       4.302  -8.629   0.000  0.00  0.00    -0.219 OA
ENDBRANCH  11  19
ENDBRANCH   8  11
TORSDOF 3
