REMARK  Name = 
REMARK  5 active torsions:
REMARK  status: ('A' for Active; 'I' for Inactive)
REMARK    1  A    between atoms: N_8  and  C_9
REMARK    2  A    between atoms: C_9  and  C_10
REMARK    3  A    between atoms: N_17  and  C_18
REMARK    4  A    between atoms: C_18  and  C_19
REMARK    5  A    between atoms: C_19  and  C_20
REMARK                            x       y       z     vdW  Elec       q    Type
REMARK                         _______ _______ _______ _____ _____    ______ ____
ROOT
ATOM      1  C   UNL     1      -0.556  -0.250   0.000  0.00  0.00    +0.052 C 
ATOM      2  C   UNL     1      -0.221  -1.004   0.000  0.00  0.00    +0.059 A 
ATOM      3  N   UNL     1      -0.633  -1.718   0.000  0.00  0.00    -0.253 N 
ATOM      4  N   UNL     1      -0.081  -2.331   0.000  0.00  0.00    -0.153 NA
ATOM      5  C   UNL     1       0.672  -1.996   0.000  0.00  0.00    +0.177 A 
ATOM      6  N   UNL     1       1.387  -2.408   0.000  0.00  0.00    -0.140 NA
ATOM      7  C   UNL     1       2.102  -1.996   0.000  0.00  0.00    +0.345 C 
ATOM      8  N   UNL     1       2.816  -2.408   0.000  0.00  0.00    -0.187 NA
ATOM      9  O   UNL     1       2.102  -1.171   0.000  0.00  0.00    -0.249 OA
ATOM     10  C   UNL     1       0.586  -1.175   0.000  0.00  0.00    +0.052 A 
ENDROOT
BRANCH   3  11
ATOM     11  C   UNL     1      -1.454  -1.804   0.000  0.00  0.00    +0.143 C 
BRANCH  11  12
ATOM     12  C   UNL     1      -1.939  -1.137   0.000  0.00  0.00    +0.132 C 
BRANCH  12  13
ATOM     13  C   UNL     1      -2.759  -1.223   0.000  0.00  0.00    +0.075 C 
ATOM     14  N   UNL     1      -3.579  -1.309   0.000  0.00  0.00    -0.196 NA
ENDBRANCH  12  13
ENDBRANCH  11  12
ENDBRANCH   3  11
BRANCH   8  15
ATOM     15  C   UNL     1       3.530  -1.996   0.000  0.00  0.00    +0.119 C 
BRANCH  15  16
ATOM     16  C   UNL     1       4.245  -2.408   0.000  0.00  0.00    +0.052 C 
ATOM     17  C   UNL     1       4.331  -3.229   0.000  0.00  0.00    +0.154 C 
ATOM     18  O   UNL     1       3.718  -3.781   0.000  0.00  0.00    -0.223 OA
ATOM     19  C   UNL     1       5.138  -3.400   0.000  0.00  0.00    +0.033 C 
ATOM     20  C   UNL     1       5.551  -2.686   0.000  0.00  0.00    +0.003 C 
ATOM     21  C   UNL     1       4.999  -2.073   0.000  0.00  0.00    +0.004 C 
ENDBRANCH  15  16
ENDBRANCH   8  15
TORSDOF 5
