REMARK  Name = 
REMARK  7 active torsions:
REMARK  status: ('A' for Active; 'I' for Inactive)
REMARK    1  A    between atoms: C_2  and  C_4
REMARK    2  A    between atoms: C_4  and  C_5
REMARK    3  A    between atoms: C_5  and  N_6
REMARK    4  A    between atoms: N_6  and  C_7
REMARK    5  A    between atoms: C_7  and  C_8
REMARK    6  A    between atoms: C_7  and  C_15
REMARK    7  A    between atoms: C_8  and  C_9
REMARK                            x       y       z     vdW  Elec       q    Type
REMARK                         _______ _______ _______ _____ _____    ______ ____
ROOT
ATOM      1  C   UNL     1       0.715  -2.888   0.000  0.00  0.00    +0.172 C 
ENDROOT
BRANCH   1   2
ATOM      2  C   UNL     1       1.429  -2.475   0.000  0.00  0.00    +0.412 C 
ATOM      3  F   UNL     1       2.143  -2.062   0.000  0.00  0.00    -0.168 F 
ATOM      4  F   UNL     1       1.016  -1.760   0.000  0.00  0.00    -0.168 F 
ATOM      5  F   UNL     1       1.841  -3.189   0.000  0.00  0.00    -0.168 F 
ENDBRANCH   1   2
BRANCH   1   6
ATOM      6  N   UNL     1       0.000  -2.475   0.000  0.00  0.00    -0.210 NA
BRANCH   6   7
ATOM      7  C   UNL     1       0.000  -1.650   0.000  0.00  0.00    +0.098 C 
BRANCH   7   8
ATOM      8  C   UNL     1      -0.715  -1.238   0.000  0.00  0.00    +0.093 C 
ATOM      9  C   UNL     1      -0.184  -0.606   0.000  0.00  0.00    +0.042 C 
ATOM     10  C   UNL     1      -0.466   0.170   0.000  0.00  0.00    +0.143 C 
ATOM     11  O   UNL     1      -1.279   0.313   0.000  0.00  0.00    -0.354 OA
ATOM     12  C   UNL     1      -1.809  -0.319   0.000  0.00  0.00    +0.143 C 
ATOM     13  C   UNL     1      -1.527  -1.094   0.000  0.00  0.00    +0.042 C 
BRANCH   8  15
ATOM     14  N   UNL     1      -1.809  -2.156   0.000  0.00  0.00    -0.088 NA
ATOM     15  C   UNL     1      -0.997  -2.013   0.000  0.00  0.00    +0.261 C 
ATOM     16  O   UNL     1      -0.466  -2.645   0.000  0.00  0.00    -0.272 OA
ENDBRANCH   8  15
ENDBRANCH   7   8
ENDBRANCH   6   7
ENDBRANCH   1   6
BRANCH   1  17
ATOM     17  C   UNL     1       0.715  -3.712   0.000  0.00  0.00    +0.053 C 
BRANCH  17  18
ATOM     18  C   UNL     1       1.429  -4.125   0.000  0.00  0.00    -0.017 A 
ATOM     19  C   UNL     1       1.429  -4.950   0.000  0.00  0.00    +0.016 A 
ATOM     20  C   UNL     1       2.143  -5.362   0.000  0.00  0.00    +0.099 A 
ATOM     21  N   UNL     1       2.858  -4.950   0.000  0.00  0.00    -0.242 NA
ATOM     22  C   UNL     1       2.858  -4.125   0.000  0.00  0.00    +0.099 A 
ATOM     23  C   UNL     1       2.143  -3.712   0.000  0.00  0.00    +0.016 A 
ENDBRANCH  17  18
ENDBRANCH   1  17
TORSDOF 7
