REMARK  Name = 
REMARK  4 active torsions:
REMARK  status: ('A' for Active; 'I' for Inactive)
REMARK    1  A    between atoms: C_2  and  C_4
REMARK    2  A    between atoms: C_4  and  N_5
REMARK    3  A    between atoms: N_10  and  C_11
REMARK    4  A    between atoms: C_11  and  C_12
REMARK                            x       y       z     vdW  Elec       q    Type
REMARK                         _______ _______ _______ _____ _____    ______ ____
ROOT
ATOM      1  N   UNL     1       2.143  -1.238   0.000  0.00  0.00    -0.237 N 
ATOM      2  C   UNL     1       1.429  -1.650   0.000  0.00  0.00    +0.335 A 
ATOM      3  O   UNL     1       0.715  -1.238   0.000  0.00  0.00    -0.246 OA
ATOM      4  N   UNL     1       1.429  -2.475   0.000  0.00  0.00    -0.276 N 
ATOM      5  C   UNL     1       2.143  -2.888   0.000  0.00  0.00    +0.085 A 
ATOM      6  C   UNL     1       2.858  -2.475   0.000  0.00  0.00    +0.080 A 
ATOM      7  C   UNL     1       2.858  -1.650   0.000  0.00  0.00    +0.266 A 
ATOM      8  O   UNL     1       3.572  -1.238   0.000  0.00  0.00    -0.267 OA
ENDROOT
BRANCH   1   9
ATOM      9  C   UNL     1       2.143  -0.412   0.000  0.00  0.00    +0.227 C 
BRANCH   9  11
ATOM     10  O   UNL     1       2.858   0.825   0.000  0.00  0.00    -0.243 OA
ATOM     11  C   UNL     1       2.858   0.000   0.000  0.00  0.00    +0.388 C 
ATOM     12  O   UNL     1       3.572  -0.412   0.000  0.00  0.00    -0.243 OA
ENDBRANCH   9  11
ENDBRANCH   1   9
BRANCH   4  13
ATOM     13  C   UNL     1       0.715  -2.888   0.000  0.00  0.00    +0.137 C 
BRANCH  13  14
ATOM     14  C   UNL     1       0.000  -2.475   0.000  0.00  0.00    +0.001 A 
ATOM     15  C   UNL     1       0.000  -1.650   0.000  0.00  0.00    -0.002 A 
ATOM     16  C   UNL     1      -0.715  -1.238   0.000  0.00  0.00    -0.000 A 
ATOM     17  C   UNL     1      -1.429  -1.650   0.000  0.00  0.00    -0.000 A 
ATOM     18  C   UNL     1      -1.429  -2.475   0.000  0.00  0.00    -0.000 A 
ATOM     19  C   UNL     1      -0.715  -2.888   0.000  0.00  0.00    -0.002 A 
ENDBRANCH  13  14
ENDBRANCH   4  13
TORSDOF 4
