REMARK  Name = 
REMARK  1 active torsions:
REMARK  status: ('A' for Active; 'I' for Inactive)
REMARK    1  A    between atoms: N_9  and  C_10
REMARK                            x       y       z     vdW  Elec       q    Type
REMARK                         _______ _______ _______ _____ _____    ______ ____
ROOT
ATOM      1  F   UNL     1       6.223  -2.948   0.000  0.00  0.00    -0.203 F 
ATOM      2  C   UNL     1       5.810  -2.234   0.000  0.00  0.00    +0.159 A 
ATOM      3  C   UNL     1       6.223  -1.519   0.000  0.00  0.00    +0.130 A 
ATOM      4  N   UNL     1       5.810  -0.805   0.000  0.00  0.00    -0.225 NA
ATOM      5  C   UNL     1       4.985  -0.805   0.000  0.00  0.00    +0.156 A 
ATOM      6  N   UNL     1       4.573  -0.090   0.000  0.00  0.00    -0.142 NA
ATOM      7  C   UNL     1       3.748  -0.090   0.000  0.00  0.00    +0.345 C 
ATOM      8  N   UNL     1       3.335   0.624   0.000  0.00  0.00    -0.189 NA
ATOM      9  O   UNL     1       3.335  -0.805   0.000  0.00  0.00    -0.249 OA
ATOM     10  C   UNL     1       4.573  -1.519   0.000  0.00  0.00    +0.039 A 
ATOM     11  C   UNL     1       4.985  -2.234   0.000  0.00  0.00    +0.034 A 
ENDROOT
BRANCH   8  12
ATOM     12  C   UNL     1       2.510   0.624   0.000  0.00  0.00    +0.097 C 
ATOM     13  C   UNL     1       1.796   1.037   0.000  0.00  0.00    +0.022 C 
ATOM     14  C   UNL     1       1.081   1.449   0.000  0.00  0.00    +0.002 C 
ATOM     15  C   UNL     1       1.288   0.624   0.000  0.00  0.00    +0.000 C 
ATOM     16  C   UNL     1       1.081  -0.201   0.000  0.00  0.00    +0.002 C 
ATOM     17  C   UNL     1       0.367   0.212   0.000  0.00  0.00    +0.000 C 
ATOM     18  C   UNL     1       0.367   1.037   0.000  0.00  0.00    +0.000 C 
ATOM     19  C   UNL     1       1.796   0.212   0.000  0.00  0.00    +0.022 C 
ENDBRANCH   8  12
TORSDOF 1
