REMARK  Name = 
REMARK  6 active torsions:
REMARK  status: ('A' for Active; 'I' for Inactive)
REMARK    1  A    between atoms: O_2  and  C_3
REMARK    2  A    between atoms: C_3  and  C_4
REMARK    3  A    between atoms: C_4  and  N_5
REMARK    4  A    between atoms: C_7  and  C_14
REMARK    5  A    between atoms: C_9  and  C_10
REMARK    6  A    between atoms: C_14  and  C_16
REMARK                            x       y       z     vdW  Elec       q    Type
REMARK                         _______ _______ _______ _____ _____    ______ ____
ROOT
ATOM      1  N   UNL     1       2.143  -1.238   0.000  0.00  0.00    -0.291 N 
ATOM      2  C   UNL     1       1.429  -1.650   0.000  0.00  0.00    +0.271 A 
ATOM      3  O   UNL     1       0.715  -1.238   0.000  0.00  0.00    -0.266 OA
ATOM      4  C   UNL     1       1.429  -2.475   0.000  0.00  0.00    +0.125 A 
ATOM      5  C   UNL     1       2.143  -2.888   0.000  0.00  0.00    +0.020 A 
ATOM      6  C   UNL     1       2.858  -2.475   0.000  0.00  0.00    +0.057 A 
ATOM      7  C   UNL     1       2.858  -1.650   0.000  0.00  0.00    +0.082 A 
ENDROOT
BRANCH   4   8
ATOM      8  C   UNL     1       0.715  -2.888   0.000  0.00  0.00    +0.105 C 
ATOM      9  N   UNL     1       0.000  -3.300   0.000  0.00  0.00    -0.191 NA
ENDBRANCH   4   8
BRANCH   6  10
ATOM     10  C   UNL     1       3.572  -2.888   0.000  0.00  0.00    +0.200 C 
ATOM     11  O   UNL     1       4.287  -2.475   0.000  0.00  0.00    -0.286 OA
BRANCH  10  12
ATOM     12  C   UNL     1       3.572  -3.712   0.000  0.00  0.00    +0.078 A 
ATOM     13  C   UNL     1       2.858  -4.125   0.000  0.00  0.00    +0.199 A 
ATOM     14  O   UNL     1       2.143  -3.712   0.000  0.00  0.00    -0.286 OA
ATOM     15  C   UNL     1       2.858  -4.950   0.000  0.00  0.00    +0.042 A 
ATOM     16  C   UNL     1       3.572  -5.362   0.000  0.00  0.00    -0.001 A 
ATOM     17  C   UNL     1       4.287  -4.950   0.000  0.00  0.00    -0.022 A 
ATOM     18  C   UNL     1       5.001  -5.362   0.000  0.00  0.00    +0.031 C 
ATOM     19  C   UNL     1       4.287  -4.125   0.000  0.00  0.00    +0.002 A 
ENDBRANCH  10  12
ENDBRANCH   6  10
BRANCH   1  20
ATOM     20  C   UNL     1       2.143  -0.412   0.000  0.00  0.00    +0.141 C 
BRANCH  20  21
ATOM     21  C   UNL     1       1.429   0.000   0.000  0.00  0.00    +0.167 C 
BRANCH  21  23
ATOM     22  C   UNL     1       0.715   1.238   0.000  0.00  0.00    +0.174 C 
ATOM     23  O   UNL     1       1.429   0.825   0.000  0.00  0.00    -0.349 OA
ENDBRANCH  21  23
ENDBRANCH  20  21
ENDBRANCH   1  20
TORSDOF 6
