REMARK  Name = 
REMARK  4 active torsions:
REMARK  status: ('A' for Active; 'I' for Inactive)
REMARK    1  A    between atoms: N_5  and  C_6
REMARK    2  A    between atoms: C_6  and  C_7
REMARK    3  A    between atoms: N_9  and  C_10
REMARK    4  A    between atoms: C_10  and  C_11
REMARK                            x       y       z     vdW  Elec       q    Type
REMARK                         _______ _______ _______ _____ _____    ______ ____
ROOT
ATOM      1  C   UNL     1       0.715  -2.888   0.000  0.00  0.00    +0.217 C 
ENDROOT
BRANCH   1   8
ATOM      2 CL   UNL     1      -2.143  -1.238   0.000  0.00  0.00    -0.080 Cl
ATOM      3  C   UNL     1      -1.429  -1.650   0.000  0.00  0.00    +0.094 A 
ATOM      4  C   UNL     1      -1.429  -2.475   0.000  0.00  0.00    +0.127 A 
ATOM      5 CL   UNL     1      -2.143  -2.888   0.000  0.00  0.00    -0.076 Cl
ATOM      6  C   UNL     1      -0.715  -2.888   0.000  0.00  0.00    +0.288 A 
ATOM      7  O   UNL     1      -0.715  -3.712   0.000  0.00  0.00    -0.265 OA
ATOM      8  N   UNL     1       0.000  -2.475   0.000  0.00  0.00    -0.206 N 
ATOM      9  N   UNL     1       0.000  -1.650   0.000  0.00  0.00    -0.164 NA
ATOM     10  C   UNL     1      -0.715  -1.238   0.000  0.00  0.00    +0.133 A 
ENDBRANCH   1   8
BRANCH   1  11
ATOM     11  C   UNL     1       1.429  -2.475   0.000  0.00  0.00    +0.266 C 
ATOM     12  N   UNL     1       2.143  -2.888   0.000  0.00  0.00    -0.204 NA
ATOM     13  O   UNL     1       1.429  -1.650   0.000  0.00  0.00    -0.271 OA
BRANCH  12  14
ATOM     14  C   UNL     1       2.858  -2.475   0.000  0.00  0.00    +0.115 C 
BRANCH  14  15
ATOM     15  C   UNL     1       3.572  -2.888   0.000  0.00  0.00    +0.022 C 
ATOM     16  C   UNL     1       3.572  -3.712   0.000  0.00  0.00    +0.002 C 
ATOM     17  C   UNL     1       4.287  -4.125   0.000  0.00  0.00    +0.000 C 
ATOM     18  C   UNL     1       5.001  -3.712   0.000  0.00  0.00    +0.000 C 
ATOM     19  C   UNL     1       5.001  -2.888   0.000  0.00  0.00    +0.000 C 
ATOM     20  C   UNL     1       4.287  -2.475   0.000  0.00  0.00    +0.002 C 
ENDBRANCH  14  15
ENDBRANCH  12  14
ENDBRANCH   1  11
TORSDOF 4
