REMARK  Name = 
REMARK  3 active torsions:
REMARK  status: ('A' for Active; 'I' for Inactive)
REMARK    1  A    between atoms: C_2  and  N_3
REMARK    2  A    between atoms: C_2  and  C_14
REMARK    3  A    between atoms: N_6  and  C_7
REMARK                            x       y       z     vdW  Elec       q    Type
REMARK                         _______ _______ _______ _____ _____    ______ ____
ROOT
ATOM      1  N   UNL     1       1.847  -1.211   0.000  0.00  0.00    -0.186 NA
ATOM      2  C   UNL     1       2.561  -1.624   0.000  0.00  0.00    +0.344 C 
ATOM      3  N   UNL     1       3.276  -1.211   0.000  0.00  0.00    -0.157 NA
ATOM      4  O   UNL     1       2.561  -2.449   0.000  0.00  0.00    -0.249 OA
ENDROOT
BRANCH   3   5
ATOM      5  C   UNL     1       3.990  -1.624   0.000  0.00  0.00    +0.124 A 
ATOM      6  C   UNL     1       4.076  -2.444   0.000  0.00  0.00    +0.170 A 
ATOM      7  C   UNL     1       3.463  -2.996   0.000  0.00  0.00    +0.077 C 
ATOM      8  O   UNL     1       4.883  -2.616   0.000  0.00  0.00    -0.357 OA
ATOM      9  N   UNL     1       5.296  -1.901   0.000  0.00  0.00    -0.080 NA
ATOM     10  C   UNL     1       4.744  -1.288   0.000  0.00  0.00    +0.116 A 
ATOM     11  C   UNL     1       4.915  -0.481   0.000  0.00  0.00    +0.057 C 
ENDBRANCH   3   5
BRANCH   1  13
ATOM     12  C   UNL     1       1.132  -2.449   0.000  0.00  0.00    +0.026 C 
ATOM     13  C   UNL     1       1.132  -1.624   0.000  0.00  0.00    +0.124 C 
BRANCH  13  14
ATOM     14  C   UNL     1       0.418  -1.211   0.000  0.00  0.00    +0.135 C 
ATOM     15  O   UNL     1       0.331  -0.391   0.000  0.00  0.00    -0.354 OA
ATOM     16  C   UNL     1      -0.476  -0.219   0.000  0.00  0.00    +0.142 C 
ATOM     17  C   UNL     1      -0.888  -0.934   0.000  0.00  0.00    +0.035 C 
ATOM     18  C   UNL     1      -0.336  -1.547   0.000  0.00  0.00    +0.034 C 
ENDBRANCH  13  14
ENDBRANCH   1  13
TORSDOF 3
