REMARK  Name = 
REMARK  6 active torsions:
REMARK  status: ('A' for Active; 'I' for Inactive)
REMARK    1  A    between atoms: C_2  and  C_4
REMARK    2  A    between atoms: C_4  and  C_7
REMARK    3  A    between atoms: C_7  and  O_8
REMARK    4  A    between atoms: O_8  and  C_9
REMARK    5  A    between atoms: C_12  and  N_13
REMARK    6  A    between atoms: C_14  and  C_16
REMARK                            x       y       z     vdW  Elec       q    Type
REMARK                         _______ _______ _______ _____ _____    ______ ____
ROOT
ATOM      1  C   UNL     1       1.429  -2.475   0.000  0.00  0.00    +0.225 A 
ATOM      2  N   UNL     1       0.715  -2.888   0.000  0.00  0.00    -0.209 NA
ATOM      3  C   UNL     1       0.715  -3.712   0.000  0.00  0.00    +0.119 A 
ATOM      4  C   UNL     1       1.429  -4.125   0.000  0.00  0.00    +0.093 A 
ATOM      5  C   UNL     1       2.143  -3.712   0.000  0.00  0.00    +0.023 A 
ATOM      6  C   UNL     1       2.143  -2.888   0.000  0.00  0.00    +0.059 A 
ENDROOT
BRANCH   4   7
ATOM      7  N   UNL     1       1.429  -4.950   0.000  0.00  0.00    -0.176 NA
ATOM      8  C   UNL     1       2.143  -5.362   0.000  0.00  0.00    +0.275 C 
ATOM      9  O   UNL     1       2.858  -4.950   0.000  0.00  0.00    -0.270 OA
BRANCH   8  10
ATOM     10  C   UNL     1       2.143  -6.188   0.000  0.00  0.00    +0.223 C 
ATOM     11  O   UNL     1       1.429  -6.600   0.000  0.00  0.00    -0.342 OA
ATOM     12  C   UNL     1       1.429  -7.425   0.000  0.00  0.00    +0.175 C 
ATOM     13  C   UNL     1       2.143  -7.838   0.000  0.00  0.00    +0.174 C 
ATOM     14  O   UNL     1       2.858  -7.425   0.000  0.00  0.00    -0.348 OA
ATOM     15  C   UNL     1       2.858  -6.600   0.000  0.00  0.00    +0.181 C 
ENDBRANCH   8  10
ENDBRANCH   4   7
BRANCH   1  16
ATOM     16  O   UNL     1       1.429  -1.650   0.000  0.00  0.00    -0.454 OA
BRANCH  16  17
ATOM     17  C   UNL     1       0.715  -1.238   0.000  0.00  0.00    +0.279 C 
BRANCH  17  18
ATOM     18  C   UNL     1       0.715  -0.412   0.000  0.00  0.00    +0.363 C 
ATOM     19  F   UNL     1       1.540  -0.412   0.000  0.00  0.00    -0.194 F 
ATOM     20  F   UNL     1      -0.111  -0.412   0.000  0.00  0.00    -0.194 F 
BRANCH  18  22
ATOM     21  F   UNL     1       0.000   0.825   0.000  0.00  0.00    -0.192 F 
ATOM     22  C   UNL     1       0.715   0.412   0.000  0.00  0.00    +0.382 C 
ATOM     23  F   UNL     1       1.429   0.825   0.000  0.00  0.00    -0.192 F 
ENDBRANCH  18  22
ENDBRANCH  17  18
ENDBRANCH  16  17
ENDBRANCH   1  16
TORSDOF 6
