REMARK  Name = 
REMARK  5 active torsions:
REMARK  status: ('A' for Active; 'I' for Inactive)
REMARK    1  A    between atoms: C_2  and  C_4
REMARK    2  A    between atoms: C_4  and  N_5
REMARK    3  A    between atoms: C_9  and  C_10
REMARK    4  A    between atoms: C_10  and  N_11
REMARK    5  A    between atoms: N_14  and  C_15
REMARK                            x       y       z     vdW  Elec       q    Type
REMARK                         _______ _______ _______ _____ _____    ______ ____
ROOT
ATOM      1  N   UNL     1      -0.715   2.062   0.000  0.00  0.00    -0.268 NA
ATOM      2  C   UNL     1       0.000   1.650   0.000  0.00  0.00    +0.104 C 
ATOM      3  C   UNL     1       0.715   2.062   0.000  0.00  0.00    +0.153 C 
ATOM      4  O   UNL     1       0.715   2.888   0.000  0.00  0.00    -0.352 OA
ATOM      5  C   UNL     1       0.000   3.300   0.000  0.00  0.00    +0.159 C 
ATOM      6  C   UNL     1      -0.715   2.888   0.000  0.00  0.00    +0.105 C 
ENDROOT
BRANCH   1   7
ATOM      7  C   UNL     1      -1.429   1.650   0.000  0.00  0.00    +0.072 C 
BRANCH   7   9
ATOM      8  C   UNL     1      -2.858   1.650   0.000  0.00  0.00    +0.001 C 
ATOM      9  C   UNL     1      -2.143   2.062   0.000  0.00  0.00    +0.016 C 
ATOM     10  C   UNL     1      -2.143   2.888   0.000  0.00  0.00    +0.001 C 
ENDBRANCH   7   9
ENDBRANCH   1   7
BRANCH   3  11
ATOM     11  C   UNL     1       1.429   1.650   0.000  0.00  0.00    +0.148 C 
BRANCH  11  12
ATOM     12  N   UNL     1       2.143   2.062   0.000  0.00  0.00    -0.184 NA
ATOM     13  C   UNL     1       2.858   1.650   0.000  0.00  0.00    +0.344 C 
ATOM     14  N   UNL     1       3.572   2.062   0.000  0.00  0.00    -0.158 NA
ATOM     15  O   UNL     1       2.858   0.825   0.000  0.00  0.00    -0.249 OA
BRANCH  14  16
ATOM     16  C   UNL     1       4.287   1.650   0.000  0.00  0.00    +0.117 A 
ATOM     17  C   UNL     1       4.373   0.830   0.000  0.00  0.00    +0.140 A 
ATOM     18  N   UNL     1       5.180   0.658   0.000  0.00  0.00    -0.145 NA
ATOM     19  N   UNL     1       5.593   1.373   0.000  0.00  0.00    -0.145 NA
ATOM     20  C   UNL     1       5.040   1.986   0.000  0.00  0.00    +0.140 A 
ENDBRANCH  14  16
ENDBRANCH  11  12
ENDBRANCH   3  11
TORSDOF 5
