REMARK  Name = 
REMARK  7 active torsions:
REMARK  status: ('A' for Active; 'I' for Inactive)
REMARK    1  A    between atoms: O_2  and  C_3
REMARK    2  A    between atoms: C_3  and  C_4
REMARK    3  A    between atoms: C_4  and  O_5
REMARK    4  A    between atoms: O_5  and  C_6
REMARK    5  A    between atoms: C_9  and  C_10
REMARK    6  A    between atoms: C_10  and  N_11
REMARK    7  A    between atoms: N_11  and  C_12
REMARK                            x       y       z     vdW  Elec       q    Type
REMARK                         _______ _______ _______ _____ _____    ______ ____
ROOT
ATOM      1  C   UNL     1       3.572  -2.888   0.000  0.00  0.00    +0.225 A 
ATOM      2  N   UNL     1       3.572  -3.712   0.000  0.00  0.00    -0.210 NA
ATOM      3  C   UNL     1       4.287  -4.125   0.000  0.00  0.00    +0.099 A 
ATOM      4  C   UNL     1       5.001  -3.712   0.000  0.00  0.00    +0.015 A 
ATOM      5  C   UNL     1       5.001  -2.888   0.000  0.00  0.00    +0.003 A 
ATOM      6  C   UNL     1       4.287  -2.475   0.000  0.00  0.00    +0.057 A 
ENDROOT
BRANCH   1   7
ATOM      7  O   UNL     1       2.858  -2.475   0.000  0.00  0.00    -0.457 OA
BRANCH   7   8
ATOM      8  C   UNL     1       2.143  -2.888   0.000  0.00  0.00    +0.239 C 
BRANCH   8   9
ATOM      9  C   UNL     1       1.429  -2.475   0.000  0.00  0.00    +0.189 C 
BRANCH   9  11
ATOM     10  C   UNL     1       0.000  -2.475   0.000  0.00  0.00    +0.174 C 
ATOM     11  O   UNL     1       0.715  -2.888   0.000  0.00  0.00    -0.347 OA
ENDBRANCH   9  11
ENDBRANCH   8   9
ENDBRANCH   7   8
ENDBRANCH   1   7
BRANCH   4  12
ATOM     12  C   UNL     1       5.716  -4.125   0.000  0.00  0.00    +0.117 C 
BRANCH  12  13
ATOM     13  N   UNL     1       6.430  -3.712   0.000  0.00  0.00    -0.212 NA
BRANCH  13  14
ATOM     14  C   UNL     1       7.145  -4.125   0.000  0.00  0.00    +0.100 C 
ATOM     15  C   UNL     1       7.231  -4.946   0.000  0.00  0.00    +0.107 C 
ATOM     16  C   UNL     1       6.426  -5.125   0.000  0.00  0.00    +0.031 C 
ATOM     17  C   UNL     1       6.968  -5.727   0.000  0.00  0.00    +0.031 C 
ATOM     18  O   UNL     1       8.038  -5.117   0.000  0.00  0.00    -0.362 OA
ATOM     19  C   UNL     1       8.450  -4.402   0.000  0.00  0.00    +0.094 C 
ATOM     20  C   UNL     1       9.118  -4.888   0.000  0.00  0.00    +0.030 C 
ATOM     21  C   UNL     1       9.002  -3.789   0.000  0.00  0.00    +0.030 C 
ATOM     22  C   UNL     1       7.898  -3.789   0.000  0.00  0.00    +0.047 C 
ENDBRANCH  13  14
ENDBRANCH  12  13
ENDBRANCH   4  12
TORSDOF 7
