REMARK  Name = 
REMARK  5 active torsions:
REMARK  status: ('A' for Active; 'I' for Inactive)
REMARK    1  A    between atoms: C_2  and  C_3
REMARK    2  A    between atoms: C_2  and  N_13
REMARK    3  A    between atoms: N_5  and  C_6
REMARK    4  A    between atoms: C_6  and  C_7
REMARK    5  A    between atoms: C_6  and  C_10
REMARK                            x       y       z     vdW  Elec       q    Type
REMARK                         _______ _______ _______ _____ _____    ______ ____
ROOT
ATOM      1  C   UNL     1       1.847  -1.211   0.000  0.00  0.00    +0.262 C 
ATOM      2  N   UNL     1       2.561  -1.624   0.000  0.00  0.00    -0.206 NA
ATOM      3  O   UNL     1       1.847  -0.386   0.000  0.00  0.00    -0.271 OA
ENDROOT
BRANCH   1   5
ATOM      4  C   UNL     1       1.132  -2.449   0.000  0.00  0.00    +0.035 C 
ATOM      5  C   UNL     1       1.132  -1.624   0.000  0.00  0.00    +0.165 C 
BRANCH   5   6
ATOM      6  N   UNL     1       0.418  -1.211   0.000  0.00  0.00    -0.301 N 
ATOM      7  C   UNL     1       0.331  -0.391   0.000  0.00  0.00    +0.179 A 
ATOM      8  N   UNL     1      -0.476  -0.219   0.000  0.00  0.00    -0.222 NA
ATOM      9  C   UNL     1      -0.888  -0.934   0.000  0.00  0.00    +0.119 A 
ATOM     10  C   UNL     1      -0.336  -1.547   0.000  0.00  0.00    +0.098 A 
ENDBRANCH   5   6
ENDBRANCH   1   5
BRANCH   2  11
ATOM     11  C   UNL     1       3.276  -1.211   0.000  0.00  0.00    +0.095 C 
BRANCH  11  12
ATOM     12  C   UNL     1       3.276  -0.386   0.000  0.00  0.00    +0.020 C 
ATOM     13  C   UNL     1       3.688   0.328   0.000  0.00  0.00    +0.002 C 
ATOM     14  C   UNL     1       2.863   0.328   0.000  0.00  0.00    +0.002 C 
ENDBRANCH  11  12
BRANCH  11  15
ATOM     15  C   UNL     1       3.990  -1.624   0.000  0.00  0.00    +0.020 C 
ATOM     16  C   UNL     1       4.402  -2.338   0.000  0.00  0.00    +0.002 C 
ATOM     17  C   UNL     1       4.815  -1.624   0.000  0.00  0.00    +0.002 C 
ENDBRANCH  11  15
ENDBRANCH   2  11
TORSDOF 5
