REMARK  Name = 
REMARK  5 active torsions:
REMARK  status: ('A' for Active; 'I' for Inactive)
REMARK    1  A    between atoms: C_2  and  C_3
REMARK    2  A    between atoms: C_3  and  C_4
REMARK    3  A    between atoms: C_4  and  N_5
REMARK    4  A    between atoms: C_8  and  N_9
REMARK    5  A    between atoms: C_11  and  C_13
REMARK                            x       y       z     vdW  Elec       q    Type
REMARK                         _______ _______ _______ _____ _____    ______ ____
ROOT
ATOM      1  N   UNL     1       1.429  -2.475   0.000  0.00  0.00    -0.264 N 
ATOM      2  C   UNL     1       0.715  -2.888   0.000  0.00  0.00    +0.354 A 
ATOM      3  O   UNL     1       0.000  -2.475   0.000  0.00  0.00    -0.244 OA
ATOM      4  N   UNL     1       0.715  -3.712   0.000  0.00  0.00    -0.152 NA
ATOM      5  C   UNL     1       1.429  -4.125   0.000  0.00  0.00    +0.300 A 
ATOM      6  O   UNL     1       1.429  -4.950   0.000  0.00  0.00    -0.264 OA
ATOM      7  C   UNL     1       2.143  -3.712   0.000  0.00  0.00    +0.146 A 
ATOM      8  C   UNL     1       2.143  -2.888   0.000  0.00  0.00    +0.173 A 
ATOM      9  N   UNL     1       2.858  -2.475   0.000  0.00  0.00    -0.107 NA
ENDROOT
BRANCH   7  10
ATOM     10  N   UNL     1       2.858  -4.125   0.000  0.00  0.00    -0.244 N 
ATOM     11  C   UNL     1       3.572  -3.712   0.000  0.00  0.00    +0.290 C 
ATOM     12  O   UNL     1       3.572  -2.888   0.000  0.00  0.00    -0.266 OA
ATOM     13  C   UNL     1       2.858  -4.950   0.000  0.00  0.00    +0.121 C 
BRANCH  11  14
ATOM     14  C   UNL     1       4.287  -4.125   0.000  0.00  0.00    +0.230 C 
ATOM     15  O   UNL     1       4.287  -4.950   0.000  0.00  0.00    -0.464 OA
ATOM     16  C   UNL     1       5.001  -5.362   0.000  0.00  0.00    +0.253 C 
ATOM     17  C   UNL     1       5.716  -4.950   0.000  0.00  0.00    +0.253 C 
ATOM     18  O   UNL     1       5.716  -4.125   0.000  0.00  0.00    -0.465 OA
ATOM     19  C   UNL     1       5.001  -3.712   0.000  0.00  0.00    +0.214 C 
ENDBRANCH  11  14
ENDBRANCH   7  10
BRANCH   1  20
ATOM     20  C   UNL     1       1.429  -1.650   0.000  0.00  0.00    +0.112 C 
BRANCH  20  21
ATOM     21  C   UNL     1       0.715  -1.238   0.000  0.00  0.00    +0.025 C 
BRANCH  21  23
ATOM     22  C   UNL     1       0.000   0.000   0.000  0.00  0.00    +0.000 C 
ATOM     23  C   UNL     1       0.715  -0.412   0.000  0.00  0.00    +0.002 C 
ENDBRANCH  21  23
ENDBRANCH  20  21
ENDBRANCH   1  20
TORSDOF 5
