REMARK  Name = 
REMARK  5 active torsions:
REMARK  status: ('A' for Active; 'I' for Inactive)
REMARK    1  A    between atoms: N_2  and  C_3
REMARK    2  A    between atoms: N_4  and  C_15
REMARK    3  A    between atoms: C_11  and  C_21
REMARK    4  A    between atoms: C_15  and  C_16
REMARK    5  A    between atoms: C_16  and  C_20
REMARK                            x       y       z     vdW  Elec       q    Type
REMARK                         _______ _______ _______ _____ _____    ______ ____
ROOT
ATOM      1  C   UNL     1       3.496  -2.758   0.000  0.00  0.00    +0.149 A 
ATOM      2  N   UNL     1       2.712  -2.504   0.000  0.00  0.00    -0.219 NA
ATOM      3  C   UNL     1       2.229  -3.171   0.000  0.00  0.00    +0.180 A 
ATOM      4  N   UNL     1       2.712  -3.837   0.000  0.00  0.00    -0.294 N 
ATOM      5  C   UNL     1       3.496  -3.583   0.000  0.00  0.00    +0.167 A 
ATOM      6  N   UNL     1       4.213  -3.996   0.000  0.00  0.00    -0.205 NA
ATOM      7  C   UNL     1       4.925  -3.583   0.000  0.00  0.00    +0.201 A 
ATOM      8  N   UNL     1       4.925  -2.758   0.000  0.00  0.00    -0.207 NA
ATOM      9  C   UNL     1       4.213  -2.346   0.000  0.00  0.00    +0.154 A 
ENDROOT
BRANCH   9  10
ATOM     10  N   UNL     1       4.213  -1.521   0.000  0.00  0.00    -0.291 N 
ATOM     11  C   UNL     1       3.496  -1.108   0.000  0.00  0.00    +0.090 C 
ATOM     12  C   UNL     1       3.496  -0.283   0.000  0.00  0.00    +0.092 C 
ATOM     13  N   UNL     1       4.213   0.129   0.000  0.00  0.00    -0.271 NA
ATOM     14  C   UNL     1       4.925  -0.283   0.000  0.00  0.00    +0.077 C 
ATOM     15  C   UNL     1       5.642   0.129   0.000  0.00  0.00    +0.018 C 
ATOM     16  C   UNL     1       5.642   0.954   0.000  0.00  0.00    +0.003 C 
ATOM     17  C   UNL     1       4.925   1.367   0.000  0.00  0.00    +0.017 C 
ATOM     18  C   UNL     1       4.213   0.954   0.000  0.00  0.00    +0.072 C 
ATOM     19  C   UNL     1       4.925  -1.108   0.000  0.00  0.00    +0.108 C 
BRANCH  11  20
ATOM     20  C   UNL     1       2.783  -1.521   0.000  0.00  0.00    +0.021 C 
ATOM     21  C   UNL     1       2.067  -1.108   0.000  0.00  0.00    +0.002 C 
ENDBRANCH  11  20
ENDBRANCH   9  10
BRANCH   4  22
ATOM     22  C   UNL     1       2.458  -4.625   0.000  0.00  0.00    +0.112 C 
BRANCH  22  23
ATOM     23  C   UNL     1       3.008  -5.237   0.000  0.00  0.00    +0.056 C 
ATOM     24  C   UNL     1       3.517  -4.588   0.000  0.00  0.00    +0.037 C 
ATOM     25  C   UNL     1       4.333  -4.700   0.000  0.00  0.00    +0.142 C 
ATOM     26  O   UNL     1       4.642  -5.467   0.000  0.00  0.00    -0.354 OA
ATOM     27  C   UNL     1       4.138  -6.117   0.000  0.00  0.00    +0.142 C 
ATOM     28  C   UNL     1       3.317  -6.000   0.000  0.00  0.00    +0.037 C 
BRANCH  23  29
ATOM     29  C   UNL     1       2.308  -5.675   0.000  0.00  0.00    +0.184 C 
ATOM     30  O   UNL     1       2.337  -6.496   0.000  0.00  0.00    -0.220 OA
ENDBRANCH  23  29
ENDBRANCH  22  23
ENDBRANCH   4  22
TORSDOF 5
