REMARK  Name = 
REMARK  3 active torsions:
REMARK  status: ('A' for Active; 'I' for Inactive)
REMARK    1  A    between atoms: O_2  and  C_3
REMARK    2  A    between atoms: C_6  and  N_7
REMARK    3  A    between atoms: N_10  and  C_11
REMARK                            x       y       z     vdW  Elec       q    Type
REMARK                         _______ _______ _______ _____ _____    ______ ____
ROOT
ATOM      1  N   UNL     1      -0.200  -4.892   0.000  0.00  0.00    -0.189 NA
ATOM      2  C   UNL     1       0.515  -5.305   0.000  0.00  0.00    +0.344 C 
ATOM      3  N   UNL     1       0.515  -6.130   0.000  0.00  0.00    -0.158 NA
ATOM      4  O   UNL     1       1.229  -4.892   0.000  0.00  0.00    -0.249 OA
ENDROOT
BRANCH   1   9
ATOM      5  C   UNL     1      -0.200  -2.901   0.000  0.00  0.00    +0.096 C 
ATOM      6  C   UNL     1      -0.783  -3.484   0.000  0.00  0.00    +0.041 C 
ATOM      7  C   UNL     1      -1.487  -3.053   0.000  0.00  0.00    +0.004 C 
ATOM      8  C   UNL     1      -1.487  -3.915   0.000  0.00  0.00    +0.004 C 
ATOM      9  C   UNL     1      -0.200  -4.067   0.000  0.00  0.00    +0.101 C 
ATOM     10  C   UNL     1       0.384  -3.484   0.000  0.00  0.00    +0.049 C 
ATOM     11  C   UNL     1      -0.783  -2.317   0.000  0.00  0.00    +0.030 C 
BRANCH   5  13
ATOM     12  C   UNL     1       1.180  -2.531   0.000  0.00  0.00    +0.174 C 
ATOM     13  O   UNL     1       0.384  -2.317   0.000  0.00  0.00    -0.356 OA
ENDBRANCH   5  13
ENDBRANCH   1   9
BRANCH   3  14
ATOM     14  C   UNL     1       1.229  -6.542   0.000  0.00  0.00    +0.114 A 
ATOM     15  C   UNL     1       1.315  -7.363   0.000  0.00  0.00    +0.113 A 
ATOM     16  N   UNL     1       2.122  -7.534   0.000  0.00  0.00    -0.246 N 
ATOM     17  C   UNL     1       2.458  -8.288   0.000  0.00  0.00    +0.154 C 
ATOM     18  N   UNL     1       2.535  -6.820   0.000  0.00  0.00    -0.166 NA
ATOM     19  C   UNL     1       1.983  -6.207   0.000  0.00  0.00    +0.138 A 
ENDBRANCH   3  14
TORSDOF 3
