REMARK  Name = 
REMARK  2 active torsions:
REMARK  status: ('A' for Active; 'I' for Inactive)
REMARK    1  A    between atoms: N_8  and  C_9
REMARK    2  A    between atoms: C_9  and  C_10
REMARK                            x       y       z     vdW  Elec       q    Type
REMARK                         _______ _______ _______ _____ _____    ______ ____
ROOT
ATOM      1  C   UNL     1      -2.813  -2.629   0.000  0.00  0.00    +0.075 C 
ATOM      2  C   UNL     1      -1.992  -2.715   0.000  0.00  0.00    +0.156 A 
ATOM      3  O   UNL     1      -1.580  -3.429   0.000  0.00  0.00    -0.356 OA
ATOM      4  N   UNL     1      -0.773  -3.258   0.000  0.00  0.00    -0.060 NA
ATOM      5  C   UNL     1      -0.686  -2.437   0.000  0.00  0.00    +0.197 A 
ATOM      6  N   UNL     1       0.028  -2.025   0.000  0.00  0.00    -0.139 NA
ATOM      7  C   UNL     1       0.743  -2.437   0.000  0.00  0.00    +0.345 C 
ATOM      8  N   UNL     1       1.457  -2.025   0.000  0.00  0.00    -0.187 NA
ATOM      9  O   UNL     1       0.743  -3.262   0.000  0.00  0.00    -0.249 OA
ATOM     10  C   UNL     1      -1.440  -2.102   0.000  0.00  0.00    +0.075 A 
ENDROOT
BRANCH   8  11
ATOM     11  C   UNL     1       2.171  -2.437   0.000  0.00  0.00    +0.119 C 
BRANCH  11  12
ATOM     12  C   UNL     1       2.886  -2.025   0.000  0.00  0.00    +0.047 C 
ATOM     13  C   UNL     1       3.640  -2.360   0.000  0.00  0.00    +0.153 C 
ATOM     14  S   UNL     1       4.192  -1.747   0.000  0.00  0.00    -0.010 S 
ATOM     15  O   UNL     1       4.744  -2.360   0.000  0.00  0.00    -0.173 OA
ATOM     16  O   UNL     1       4.859  -1.262   0.000  0.00  0.00    -0.173 OA
ATOM     17  C   UNL     1       3.779  -1.033   0.000  0.00  0.00    +0.151 C 
ATOM     18  C   UNL     1       2.972  -1.204   0.000  0.00  0.00    +0.029 C 
ENDBRANCH  11  12
ENDBRANCH   8  11
TORSDOF 2
