REMARK  Name = 
REMARK  4 active torsions:
REMARK  status: ('A' for Active; 'I' for Inactive)
REMARK    1  A    between atoms: C_2  and  C_5
REMARK    2  A    between atoms: N_10  and  C_11
REMARK    3  A    between atoms: C_11  and  C_12
REMARK    4  A    between atoms: N_14  and  C_15
REMARK                            x       y       z     vdW  Elec       q    Type
REMARK                         _______ _______ _______ _____ _____    ______ ____
ROOT
ATOM      1  C   UNL     1       0.030  -4.896   0.000  0.00  0.00    +0.196 C 
ENDROOT
BRANCH   1   4
ATOM      2  C   UNL     1       1.459  -3.246   0.000  0.00  0.00    +0.089 A 
ATOM      3  C   UNL     1       0.744  -3.659   0.000  0.00  0.00    +0.083 A 
ATOM      4  N   UNL     1       0.744  -4.484   0.000  0.00  0.00    -0.285 N 
ATOM      5  C   UNL     1       1.459  -4.896   0.000  0.00  0.00    +0.261 A 
ATOM      6  O   UNL     1       1.459  -5.721   0.000  0.00  0.00    -0.267 OA
ATOM      7  C   UNL     1       2.173  -4.484   0.000  0.00  0.00    +0.061 A 
ATOM      8  C   UNL     1       2.173  -3.659   0.000  0.00  0.00    +0.010 A 
BRANCH   2  10
ATOM      9  F   UNL     1       1.459  -1.596   0.000  0.00  0.00    -0.166 F 
ATOM     10  C   UNL     1       1.459  -2.421   0.000  0.00  0.00    +0.420 C 
ATOM     11  F   UNL     1       2.284  -2.421   0.000  0.00  0.00    -0.166 F 
ATOM     12  F   UNL     1       0.634  -2.421   0.000  0.00  0.00    -0.166 F 
ENDBRANCH   2  10
ENDBRANCH   1   4
BRANCH   1  13
ATOM     13  C   UNL     1      -0.685  -4.484   0.000  0.00  0.00    +0.264 C 
ATOM     14  N   UNL     1      -1.399  -4.896   0.000  0.00  0.00    -0.206 NA
ATOM     15  O   UNL     1      -0.685  -3.659   0.000  0.00  0.00    -0.271 OA
BRANCH  14  16
ATOM     16  C   UNL     1      -2.114  -4.484   0.000  0.00  0.00    +0.095 C 
ATOM     17  C   UNL     1      -2.006  -3.666   0.000  0.00  0.00    +0.022 C 
ATOM     18  C   UNL     1      -2.508  -3.011   0.000  0.00  0.00    +0.002 C 
ATOM     19  C   UNL     1      -3.326  -2.904   0.000  0.00  0.00    +0.000 C 
ATOM     20  C   UNL     1      -3.981  -3.406   0.000  0.00  0.00    +0.000 C 
ATOM     21  C   UNL     1      -4.088  -4.224   0.000  0.00  0.00    +0.000 C 
ATOM     22  C   UNL     1      -3.586  -4.878   0.000  0.00  0.00    +0.002 C 
ATOM     23  C   UNL     1      -2.768  -4.986   0.000  0.00  0.00    +0.022 C 
ENDBRANCH  14  16
ENDBRANCH   1  13
TORSDOF 4
