REMARK  Name = 
REMARK  6 active torsions:
REMARK  status: ('A' for Active; 'I' for Inactive)
REMARK    1  A    between atoms: C_8  and  C_9
REMARK    2  A    between atoms: C_9  and  N_10
REMARK    3  A    between atoms: N_10  and  C_11
REMARK    4  A    between atoms: C_11  and  C_12
REMARK    5  A    between atoms: C_12  and  N_13
REMARK    6  A    between atoms: C_12  and  C_16
REMARK                            x       y       z     vdW  Elec       q    Type
REMARK                         _______ _______ _______ _____ _____    ______ ____
ROOT
ATOM      1  C   UNL     1       3.381   0.302   0.000  0.00  0.00    +0.109 C 
ENDROOT
BRANCH   1   2
ATOM      2  N   UNL     1       2.968  -0.412   0.000  0.00  0.00    -0.216 NA
BRANCH   2   3
ATOM      3  C   UNL     1       2.143  -0.412   0.000  0.00  0.00    +0.093 C 
BRANCH   3   6
ATOM      4  C   UNL     1       2.968  -1.841   0.000  0.00  0.00    +0.000 C 
ATOM      5  C   UNL     1       2.143  -1.841   0.000  0.00  0.00    +0.005 C 
ATOM      6  C   UNL     1       1.731  -1.127   0.000  0.00  0.00    +0.035 C 
ATOM      7  C   UNL     1       0.906  -1.127   0.000  0.00  0.00    -0.047 C 
ATOM      8  C   UNL     1       0.493  -0.412   0.000  0.00  0.00    +0.026 C 
ATOM      9  C   UNL     1       0.493  -1.841   0.000  0.00  0.00    -0.035 C 
ATOM     10  C   UNL     1       0.906  -2.556   0.000  0.00  0.00    +0.025 C 
ATOM     11  C   UNL     1       1.731  -2.556   0.000  0.00  0.00    +0.005 C 
ENDBRANCH   3   6
ENDBRANCH   2   3
ENDBRANCH   1   2
BRANCH   1  12
ATOM     12  C   UNL     1       4.206   0.302   0.000  0.00  0.00    +0.101 C 
BRANCH  12  13
ATOM     13  C   UNL     1       4.618   1.016   0.000  0.00  0.00    +0.033 A 
ATOM     14  C   UNL     1       5.439   1.103   0.000  0.00  0.00    +0.094 A 
ATOM     15  N   UNL     1       5.610   1.910   0.000  0.00  0.00    -0.248 N 
ATOM     16  C   UNL     1       6.364   2.245   0.000  0.00  0.00    +0.154 C 
ATOM     17  N   UNL     1       4.896   2.322   0.000  0.00  0.00    -0.168 NA
ATOM     18  C   UNL     1       4.283   1.770   0.000  0.00  0.00    +0.119 A 
ENDBRANCH  12  13
BRANCH  12  19
ATOM     19  N   UNL     1       4.618  -0.412   0.000  0.00  0.00    -0.267 NA
ATOM     20  C   UNL     1       4.206  -1.127   0.000  0.00  0.00    +0.090 C 
ATOM     21  C   UNL     1       5.443  -0.412   0.000  0.00  0.00    +0.090 C 
ENDBRANCH  12  19
ENDBRANCH   1  12
TORSDOF 6
