REMARK  Name = 
REMARK  3 active torsions:
REMARK  status: ('A' for Active; 'I' for Inactive)
REMARK    1  A    between atoms: O_2  and  C_3
REMARK    2  A    between atoms: C_7  and  N_8
REMARK    3  A    between atoms: N_11  and  C_12
REMARK                            x       y       z     vdW  Elec       q    Type
REMARK                         _______ _______ _______ _____ _____    ______ ____
ROOT
ATOM      1  N   UNL     1       2.143  -1.841   0.000  0.00  0.00    -0.186 NA
ATOM      2  C   UNL     1       1.971  -1.034   0.000  0.00  0.00    +0.345 C 
ATOM      3  N   UNL     1       1.187  -0.779   0.000  0.00  0.00    -0.142 NA
ATOM      4  O   UNL     1       2.584  -0.482   0.000  0.00  0.00    -0.249 OA
ENDROOT
BRANCH   3   5
ATOM      5  C   UNL     1       1.015   0.028   0.000  0.00  0.00    +0.155 A 
ATOM      6  N   UNL     1       1.567   0.641   0.000  0.00  0.00    -0.234 N 
ATOM      7  C   UNL     1       2.388   0.554   0.000  0.00  0.00    +0.155 C 
ATOM      8  N   UNL     1       1.155   1.355   0.000  0.00  0.00    -0.166 NA
ATOM      9  C   UNL     1       0.348   1.184   0.000  0.00  0.00    +0.123 A 
ATOM     10  C   UNL     1       0.262   0.363   0.000  0.00  0.00    +0.058 A 
ENDBRANCH   3   5
BRANCH   1  12
ATOM     11  C   UNL     1       3.595  -1.611   0.000  0.00  0.00    +0.135 C 
ATOM     12  C   UNL     1       2.928  -2.096   0.000  0.00  0.00    +0.124 C 
ATOM     13  C   UNL     1       3.182  -2.881   0.000  0.00  0.00    +0.024 C 
ATOM     14  C   UNL     1       4.007  -2.881   0.000  0.00  0.00    +0.004 C 
ATOM     15  C   UNL     1       4.262  -2.096   0.000  0.00  0.00    +0.031 C 
BRANCH  11  17
ATOM     16  C   UNL     1       4.309  -0.374   0.000  0.00  0.00    +0.174 C 
ATOM     17  O   UNL     1       3.595  -0.786   0.000  0.00  0.00    -0.352 OA
ENDBRANCH  11  17
ENDBRANCH   1  12
TORSDOF 3
