REMARK  Name = 
REMARK  4 active torsions:
REMARK  status: ('A' for Active; 'I' for Inactive)
REMARK    1  A    between atoms: N_3  and  C_4
REMARK    2  A    between atoms: C_4  and  C_5
REMARK    3  A    between atoms: C_5  and  N_6
REMARK    4  A    between atoms: N_11  and  C_12
REMARK                            x       y       z     vdW  Elec       q    Type
REMARK                         _______ _______ _______ _____ _____    ______ ____
ROOT
ATOM      1  O   UNL     1       4.287  -4.950   0.000  0.00  0.00    -0.249 OA
ATOM      2  C   UNL     1       4.287  -4.125   0.000  0.00  0.00    +0.344 C 
ATOM      3  N   UNL     1       5.001  -3.712   0.000  0.00  0.00    -0.161 NA
ATOM      4  N   UNL     1       3.572  -3.712   0.000  0.00  0.00    -0.185 NA
ENDROOT
BRANCH   3   5
ATOM      5  C   UNL     1       5.716  -4.125   0.000  0.00  0.00    +0.078 A 
ATOM      6  C   UNL     1       5.716  -4.950   0.000  0.00  0.00    +0.037 A 
ATOM      7  C   UNL     1       6.430  -5.362   0.000  0.00  0.00    +0.100 A 
ATOM      8  N   UNL     1       7.145  -4.950   0.000  0.00  0.00    -0.242 NA
ATOM      9  C   UNL     1       7.145  -4.125   0.000  0.00  0.00    +0.100 A 
ATOM     10  C   UNL     1       6.430  -3.712   0.000  0.00  0.00    +0.037 A 
ENDBRANCH   3   5
BRANCH   4  11
ATOM     11  C   UNL     1       2.858  -4.125   0.000  0.00  0.00    +0.134 C 
BRANCH  11  12
ATOM     12  C   UNL     1       2.143  -3.712   0.000  0.00  0.00    +0.096 C 
BRANCH  12  13
ATOM     13  N   UNL     1       1.429  -4.125   0.000  0.00  0.00    -0.264 NA
ATOM     14  C   UNL     1       0.675  -3.789   0.000  0.00  0.00    +0.099 C 
ATOM     15  C   UNL     1       0.123  -4.402   0.000  0.00  0.00    -0.012 C 
ATOM     16  C   UNL     1       0.536  -5.117   0.000  0.00  0.00    -0.012 C 
ATOM     17  C   UNL     1       1.343  -4.946   0.000  0.00  0.00    +0.099 C 
ENDBRANCH  12  13
ENDBRANCH  11  12
ENDBRANCH   4  11
TORSDOF 4
