REMARK  Name = 
REMARK  5 active torsions:
REMARK  status: ('A' for Active; 'I' for Inactive)
REMARK    1  A    between atoms: N_6  and  C_7
REMARK    2  A    between atoms: C_7  and  C_8
REMARK    3  A    between atoms: N_10  and  C_11
REMARK    4  A    between atoms: C_11  and  C_12
REMARK    5  A    between atoms: C_12  and  N_13
REMARK                            x       y       z     vdW  Elec       q    Type
REMARK                         _______ _______ _______ _____ _____    ______ ____
ROOT
ATOM      1  C   UNL     1       2.018  -4.462   0.000  0.00  0.00    +0.266 C 
ATOM      2  N   UNL     1       2.733  -4.050   0.000  0.00  0.00    -0.202 NA
ATOM      3  O   UNL     1       2.018  -5.287   0.000  0.00  0.00    -0.271 OA
ENDROOT
BRANCH   1   4
ATOM      4  C   UNL     1       1.304  -4.050   0.000  0.00  0.00    +0.213 C 
BRANCH   4   8
ATOM      5  C   UNL     1      -0.639  -6.208   0.000  0.00  0.00    +0.054 C 
ATOM      6  C   UNL     1      -0.304  -5.454   0.000  0.00  0.00    +0.080 A 
ATOM      7  N   UNL     1       0.503  -5.283   0.000  0.00  0.00    -0.174 NA
ATOM      8  N   UNL     1       0.589  -4.462   0.000  0.00  0.00    -0.246 N 
ATOM      9  C   UNL     1      -0.164  -4.127   0.000  0.00  0.00    +0.058 A 
ATOM     10  C   UNL     1      -0.336  -3.320   0.000  0.00  0.00    +0.052 C 
ATOM     11  C   UNL     1      -0.716  -4.740   0.000  0.00  0.00    +0.031 A 
ENDBRANCH   4   8
ENDBRANCH   1   4
BRANCH   2  12
ATOM     12  C   UNL     1       3.447  -4.462   0.000  0.00  0.00    +0.137 C 
BRANCH  12  13
ATOM     13  C   UNL     1       4.162  -4.050   0.000  0.00  0.00    +0.117 C 
BRANCH  13  14
ATOM     14  N   UNL     1       4.876  -4.462   0.000  0.00  0.00    -0.278 N 
ATOM     15  C   UNL     1       4.814  -5.285   0.000  0.00  0.00    +0.226 C 
ATOM     16  O   UNL     1       4.046  -5.586   0.000  0.00  0.00    -0.275 OA
ATOM     17  C   UNL     1       5.419  -5.846   0.000  0.00  0.00    +0.085 C 
ATOM     18  C   UNL     1       6.235  -5.723   0.000  0.00  0.00    +0.010 C 
ATOM     19  C   UNL     1       6.648  -5.008   0.000  0.00  0.00    +0.002 C 
ATOM     20  C   UNL     1       6.346  -4.240   0.000  0.00  0.00    +0.022 C 
ATOM     21  C   UNL     1       5.558  -3.997   0.000  0.00  0.00    +0.093 C 
ENDBRANCH  13  14
ENDBRANCH  12  13
ENDBRANCH   2  12
TORSDOF 5
