REMARK  Name = 
REMARK  3 active torsions:
REMARK  status: ('A' for Active; 'I' for Inactive)
REMARK    1  A    between atoms: C_2  and  C_3
REMARK    2  A    between atoms: C_2  and  C_13
REMARK    3  A    between atoms: C_3  and  N_4
REMARK                            x       y       z     vdW  Elec       q    Type
REMARK                         _______ _______ _______ _____ _____    ______ ____
ROOT
ATOM      1  C   UNL     1       1.429  -1.650   0.000  0.00  0.00    +0.148 C 
ENDROOT
BRANCH   1   2
ATOM      2  N   UNL     1       1.429  -2.475   0.000  0.00  0.00    -0.275 N 
ATOM      3  C   UNL     1       0.715  -2.888   0.000  0.00  0.00    +0.353 A 
ATOM      4  O   UNL     1       0.000  -2.475   0.000  0.00  0.00    -0.244 OA
ATOM      5  N   UNL     1       0.715  -3.712   0.000  0.00  0.00    -0.152 NA
ATOM      6  C   UNL     1       1.429  -4.125   0.000  0.00  0.00    +0.295 A 
ATOM      7  O   UNL     1       1.429  -4.950   0.000  0.00  0.00    -0.264 OA
ATOM      8  C   UNL     1       2.143  -3.712   0.000  0.00  0.00    +0.133 A 
ATOM      9 CL   UNL     1       2.858  -4.125   0.000  0.00  0.00    -0.076 Cl
ATOM     10  C   UNL     1       2.143  -2.888   0.000  0.00  0.00    +0.096 A 
ENDBRANCH   1   2
BRANCH   1  12
ATOM     11  O   UNL     1       0.000  -1.650   0.000  0.00  0.00    -0.216 OA
ATOM     12  C   UNL     1       0.715  -1.238   0.000  0.00  0.00    +0.198 C 
BRANCH  12  13
ATOM     13  C   UNL     1       0.715  -0.412   0.000  0.00  0.00    +0.020 A 
ATOM     14  C   UNL     1       1.429   0.000   0.000  0.00  0.00    +0.056 A 
ATOM     15 CL   UNL     1       2.143  -0.412   0.000  0.00  0.00    -0.082 Cl
ATOM     16  C   UNL     1       1.429   0.825   0.000  0.00  0.00    +0.011 A 
ATOM     17  C   UNL     1       0.715   1.238   0.000  0.00  0.00    +0.001 A 
ATOM     18  C   UNL     1       0.000   0.825   0.000  0.00  0.00    -0.000 A 
ATOM     19  C   UNL     1       0.000   0.000   0.000  0.00  0.00    -0.001 A 
ENDBRANCH  12  13
ENDBRANCH   1  12
TORSDOF 3
