REMARK  Name = 
REMARK  3 active torsions:
REMARK  status: ('A' for Active; 'I' for Inactive)
REMARK    1  A    between atoms: C_2  and  N_3
REMARK    2  A    between atoms: C_5  and  N_6
REMARK    3  A    between atoms: N_9  and  C_10
REMARK                            x       y       z     vdW  Elec       q    Type
REMARK                         _______ _______ _______ _____ _____    ______ ____
ROOT
ATOM      1  N   UNL     1       4.492  -3.548   0.000  0.00  0.00    -0.158 NA
ATOM      2  C   UNL     1       4.157  -4.302   0.000  0.00  0.00    +0.344 C 
ATOM      3  N   UNL     1       4.642  -4.970   0.000  0.00  0.00    -0.189 NA
ATOM      4  O   UNL     1       3.336  -4.388   0.000  0.00  0.00    -0.249 OA
ENDROOT
BRANCH   1   8
ATOM      5  N   UNL     1       3.595  -1.611   0.000  0.00  0.00    -0.248 N 
ATOM      6  N   UNL     1       2.928  -2.096   0.000  0.00  0.00    -0.166 NA
ATOM      7  C   UNL     1       3.182  -2.881   0.000  0.00  0.00    +0.138 A 
ATOM      8  C   UNL     1       4.007  -2.881   0.000  0.00  0.00    +0.114 A 
ATOM      9  C   UNL     1       4.262  -2.096   0.000  0.00  0.00    +0.113 A 
BRANCH   5  11
ATOM     10  C   UNL     1       2.880  -0.374   0.000  0.00  0.00    +0.028 C 
ATOM     11  C   UNL     1       3.595  -0.786   0.000  0.00  0.00    +0.128 C 
ENDBRANCH   5  11
ENDBRANCH   1   8
BRANCH   3  12
ATOM     12  C   UNL     1       4.306  -5.723   0.000  0.00  0.00    +0.097 C 
ATOM     13  C   UNL     1       3.499  -5.895   0.000  0.00  0.00    +0.022 C 
ATOM     14  C   UNL     1       3.413  -6.715   0.000  0.00  0.00    +0.002 C 
ATOM     15  C   UNL     1       4.167  -7.051   0.000  0.00  0.00    +0.002 C 
ATOM     16  C   UNL     1       4.719  -6.438   0.000  0.00  0.00    +0.022 C 
ENDBRANCH   3  12
TORSDOF 3
