REMARK  Name = 
REMARK  4 active torsions:
REMARK  status: ('A' for Active; 'I' for Inactive)
REMARK    1  A    between atoms: C_2  and  N_3
REMARK    2  A    between atoms: C_2  and  C_14
REMARK    3  A    between atoms: C_4  and  C_6
REMARK    4  A    between atoms: C_6  and  N_7
REMARK                            x       y       z     vdW  Elec       q    Type
REMARK                         _______ _______ _______ _____ _____    ______ ____
ROOT
ATOM      1  C   UNL     1       1.566  -2.896   0.000  0.00  0.00    +0.023 C 
ATOM      2  C   UNL     1       0.852  -2.483   0.000  0.00  0.00    +0.095 C 
ENDROOT
BRANCH   2   3
ATOM      3  C   UNL     1       0.852  -1.659   0.000  0.00  0.00    +0.018 C 
ATOM      4  C   UNL     1       0.852  -0.911   0.000  0.00  0.00    +0.002 C 
ATOM      5  C   UNL     1       1.301  -0.121   0.000  0.00  0.00    +0.000 C 
ATOM      6  C   UNL     1       2.037  -0.494   0.000  0.00  0.00    +0.000 C 
ATOM      7  C   UNL     1       2.037  -1.242   0.000  0.00  0.00    +0.000 C 
ATOM      8  C   UNL     1       1.301  -1.616   0.000  0.00  0.00    +0.000 C 
ATOM      9  C   UNL     1       0.566  -1.242   0.000  0.00  0.00    +0.000 C 
ATOM     10  C   UNL     1       0.566  -0.494   0.000  0.00  0.00    +0.000 C 
ATOM     11  C   UNL     1       1.587  -2.032   0.000  0.00  0.00    +0.002 C 
ATOM     12  C   UNL     1       0.116  -2.032   0.000  0.00  0.00    +0.002 C 
ENDBRANCH   2   3
BRANCH   2  13
ATOM     13  N   UNL     1       0.137  -2.896   0.000  0.00  0.00    -0.206 NA
ATOM     14  C   UNL     1       0.137  -3.721   0.000  0.00  0.00    +0.264 C 
ATOM     15  O   UNL     1       0.852  -4.133   0.000  0.00  0.00    -0.271 OA
BRANCH  14  16
ATOM     16  C   UNL     1      -0.577  -4.134   0.000  0.00  0.00    +0.196 C 
BRANCH  16  17
ATOM     17  N   UNL     1      -0.577  -4.959   0.000  0.00  0.00    -0.285 N 
ATOM     18  C   UNL     1      -1.292  -5.371   0.000  0.00  0.00    +0.261 A 
ATOM     19  O   UNL     1      -2.006  -4.959   0.000  0.00  0.00    -0.267 OA
ATOM     20  C   UNL     1      -1.292  -6.196   0.000  0.00  0.00    +0.061 A 
ATOM     21  C   UNL     1      -0.577  -6.609   0.000  0.00  0.00    +0.006 A 
ATOM     22  C   UNL     1       0.138  -6.196   0.000  0.00  0.00    +0.019 A 
ATOM     23  C   UNL     1       0.137  -5.371   0.000  0.00  0.00    +0.079 A 
ENDBRANCH  16  17
ENDBRANCH  14  16
ENDBRANCH   2  13
TORSDOF 4
