REMARK  Name = 
REMARK  3 active torsions:
REMARK  status: ('A' for Active; 'I' for Inactive)
REMARK    1  A    between atoms: N_6  and  C_7
REMARK    2  A    between atoms: C_7  and  C_8
REMARK    3  A    between atoms: C_8  and  N_9
REMARK                            x       y       z     vdW  Elec       q    Type
REMARK                         _______ _______ _______ _____ _____    ______ ____
ROOT
ATOM      1  N   UNL     1       3.572   1.238   0.000  0.00  0.00    -0.185 NA
ATOM      2  C   UNL     1       4.287   0.825   0.000  0.00  0.00    +0.345 C 
ATOM      3  N   UNL     1       5.001   1.238   0.000  0.00  0.00    -0.139 NA
ATOM      4  C   UNL     1       5.716   0.825   0.000  0.00  0.00    +0.197 A 
ATOM      5  N   UNL     1       5.802   0.004   0.000  0.00  0.00    -0.060 NA
ATOM      6  O   UNL     1       6.609  -0.167   0.000  0.00  0.00    -0.356 OA
ATOM      7  C   UNL     1       7.021   0.547   0.000  0.00  0.00    +0.156 A 
ATOM      8  C   UNL     1       7.842   0.634   0.000  0.00  0.00    +0.075 C 
ATOM      9  C   UNL     1       6.469   1.161   0.000  0.00  0.00    +0.075 A 
ATOM     10  O   UNL     1       4.287   0.000   0.000  0.00  0.00    -0.249 OA
ENDROOT
BRANCH   1  11
ATOM     11  C   UNL     1       2.858   0.825   0.000  0.00  0.00    +0.134 C 
BRANCH  11  12
ATOM     12  C   UNL     1       2.143   1.238   0.000  0.00  0.00    +0.096 C 
BRANCH  12  16
ATOM     13  C   UNL     1       0.715  -1.238   0.000  0.00  0.00    +0.001 C 
ATOM     14  C   UNL     1       0.715  -0.412   0.000  0.00  0.00    +0.016 C 
ATOM     15  C   UNL     1       1.429   0.000   0.000  0.00  0.00    +0.072 C 
ATOM     16  N   UNL     1       1.429   0.825   0.000  0.00  0.00    -0.271 NA
ATOM     17  C   UNL     1       0.715   1.238   0.000  0.00  0.00    +0.072 C 
ATOM     18  C   UNL     1       0.000   0.825   0.000  0.00  0.00    +0.017 C 
ATOM     19  C   UNL     1       0.000   0.000   0.000  0.00  0.00    +0.003 C 
ENDBRANCH  12  16
ENDBRANCH  11  12
ENDBRANCH   1  11
TORSDOF 3
