REMARK  Name = 
REMARK  5 active torsions:
REMARK  status: ('A' for Active; 'I' for Inactive)
REMARK    1  A    between atoms: N_4  and  C_5
REMARK    2  A    between atoms: C_5  and  C_6
REMARK    3  A    between atoms: C_6  and  C_8
REMARK    4  A    between atoms: C_8  and  N_9
REMARK    5  A    between atoms: C_15  and  C_16
REMARK                            x       y       z     vdW  Elec       q    Type
REMARK                         _______ _______ _______ _____ _____    ______ ____
ROOT
ATOM      1  C   UNL     1       5.001  -5.362   0.000  0.00  0.00    +0.165 C 
ENDROOT
BRANCH   1   2
ATOM      2  N   UNL     1       5.001  -6.188   0.000  0.00  0.00    -0.214 N 
ATOM      3  C   UNL     1       4.287  -6.600   0.000  0.00  0.00    +0.286 A 
ATOM      4  O   UNL     1       3.572  -6.188   0.000  0.00  0.00    -0.265 OA
ATOM      5  C   UNL     1       4.287  -7.425   0.000  0.00  0.00    +0.123 A 
ATOM      6  C   UNL     1       5.001  -7.838   0.000  0.00  0.00    +0.008 A 
ATOM      7  C   UNL     1       5.001  -8.662   0.000  0.00  0.00    +0.033 C 
ATOM      8  C   UNL     1       5.716  -7.425   0.000  0.00  0.00    +0.076 A 
ATOM      9  C   UNL     1       6.430  -7.838   0.000  0.00  0.00    +0.054 C 
ATOM     10  N   UNL     1       5.716  -6.600   0.000  0.00  0.00    -0.171 NA
BRANCH   5  11
ATOM     11  C   UNL     1       3.572  -7.838   0.000  0.00  0.00    +0.105 C 
ATOM     12  N   UNL     1       2.858  -8.250   0.000  0.00  0.00    -0.191 NA
ENDBRANCH   5  11
ENDBRANCH   1   2
BRANCH   1  13
ATOM     13  C   UNL     1       4.287  -4.950   0.000  0.00  0.00    +0.192 C 
ATOM     14  O   UNL     1       3.572  -5.362   0.000  0.00  0.00    -0.219 OA
BRANCH  13  15
ATOM     15  C   UNL     1       4.287  -4.125   0.000  0.00  0.00    +0.108 C 
BRANCH  15  22
ATOM     16  C   UNL     1       2.858  -1.650   0.000  0.00  0.00    +0.034 C 
ATOM     17  C   UNL     1       2.858  -2.475   0.000  0.00  0.00    +0.131 C 
ATOM     18  O   UNL     1       2.143  -2.888   0.000  0.00  0.00    -0.356 OA
ATOM     19  C   UNL     1       2.143  -3.712   0.000  0.00  0.00    +0.131 C 
ATOM     20  C   UNL     1       1.429  -4.125   0.000  0.00  0.00    +0.034 C 
ATOM     21  C   UNL     1       2.858  -4.125   0.000  0.00  0.00    +0.102 C 
ATOM     22  N   UNL     1       3.572  -3.712   0.000  0.00  0.00    -0.266 NA
ATOM     23  C   UNL     1       3.572  -2.888   0.000  0.00  0.00    +0.102 C 
ENDBRANCH  15  22
ENDBRANCH  13  15
ENDBRANCH   1  13
TORSDOF 5
