REMARK  Name = 
REMARK  3 active torsions:
REMARK  status: ('A' for Active; 'I' for Inactive)
REMARK    1  A    between atoms: C_2  and  C_4
REMARK    2  A    between atoms: C_4  and  N_5
REMARK    3  A    between atoms: C_7  and  N_8
REMARK                            x       y       z     vdW  Elec       q    Type
REMARK                         _______ _______ _______ _____ _____    ______ ____
ROOT
ATOM      1  N   UNL     1       2.318  -1.961   0.000  0.00  0.00    -0.239 N 
ATOM      2  N   UNL     1       1.651  -2.446   0.000  0.00  0.00    -0.166 NA
ATOM      3  C   UNL     1       1.906  -3.231   0.000  0.00  0.00    +0.138 A 
ATOM      4  C   UNL     1       2.731  -3.231   0.000  0.00  0.00    +0.114 A 
ATOM      5  C   UNL     1       2.986  -2.446   0.000  0.00  0.00    +0.114 A 
ENDROOT
BRANCH   4   6
ATOM      6  N   UNL     1       3.216  -3.898   0.000  0.00  0.00    -0.159 NA
ATOM      7  C   UNL     1       4.036  -3.812   0.000  0.00  0.00    +0.328 C 
ATOM      8  N   UNL     1       4.521  -4.479   0.000  0.00  0.00    -0.263 N 
ATOM      9  C   UNL     1       4.266  -5.264   0.000  0.00  0.00    +0.095 C 
ATOM     10  C   UNL     1       4.934  -5.749   0.000  0.00  0.00    +0.023 C 
ATOM     11  C   UNL     1       5.601  -5.264   0.000  0.00  0.00    +0.023 C 
ATOM     12  C   UNL     1       5.346  -4.479   0.000  0.00  0.00    +0.095 C 
ATOM     13  O   UNL     1       4.372  -3.058   0.000  0.00  0.00    -0.250 OA
ENDBRANCH   4   6
BRANCH   1  14
ATOM     14  C   UNL     1       2.318  -1.136   0.000  0.00  0.00    +0.215 C 
BRANCH  14  16
ATOM     15  N   UNL     1       1.604   0.101   0.000  0.00  0.00    -0.086 NA
ATOM     16  C   UNL     1       1.604  -0.724   0.000  0.00  0.00    +0.286 C 
ATOM     17  O   UNL     1       0.889  -1.136   0.000  0.00  0.00    -0.269 OA
ENDBRANCH  14  16
ENDBRANCH   1  14
TORSDOF 3
