REMARK  Name = 
REMARK  4 active torsions:
REMARK  status: ('A' for Active; 'I' for Inactive)
REMARK    1  A    between atoms: C_2  and  C_5
REMARK    2  A    between atoms: N_13  and  C_14
REMARK    3  A    between atoms: C_14  and  C_15
REMARK    4  A    between atoms: C_15  and  N_16
REMARK                            x       y       z     vdW  Elec       q    Type
REMARK                         _______ _______ _______ _____ _____    ______ ____
ROOT
ATOM      1  C   UNL     1      -0.715   2.062   0.000  0.00  0.00    +0.115 C 
ATOM      2  C   UNL     1       0.000   1.650   0.000  0.00  0.00    +0.103 C 
ATOM      3  N   UNL     1       0.715   2.062   0.000  0.00  0.00    -0.263 N 
ATOM      4  C   UNL     1       1.429   1.650   0.000  0.00  0.00    +0.323 C 
ATOM      5  N   UNL     1       2.143   2.062   0.000  0.00  0.00    -0.186 NA
ATOM      6  O   UNL     1       1.429   0.825   0.000  0.00  0.00    -0.251 OA
ATOM      7  C   UNL     1       0.715   2.888   0.000  0.00  0.00    +0.095 C 
ATOM      8  C   UNL     1       0.000   3.300   0.000  0.00  0.00    +0.022 C 
ATOM      9  C   UNL     1      -0.715   2.888   0.000  0.00  0.00    +0.012 C 
ENDROOT
BRANCH   1  11
ATOM     10  F   UNL     1      -2.143   1.238   0.000  0.00  0.00    -0.170 F 
ATOM     11  C   UNL     1      -1.429   1.650   0.000  0.00  0.00    +0.399 C 
ATOM     12  F   UNL     1      -1.841   2.365   0.000  0.00  0.00    -0.170 F 
ATOM     13  F   UNL     1      -1.016   0.935   0.000  0.00  0.00    -0.170 F 
ENDBRANCH   1  11
BRANCH   5  14
ATOM     14  C   UNL     1       2.858   1.650   0.000  0.00  0.00    +0.141 C 
BRANCH  14  15
ATOM     15  C   UNL     1       3.572   2.062   0.000  0.00  0.00    +0.131 C 
BRANCH  15  16
ATOM     16  N   UNL     1       4.287   1.650   0.000  0.00  0.00    -0.306 N 
ATOM     17  C   UNL     1       4.373   0.830   0.000  0.00  0.00    +0.179 A 
ATOM     18  N   UNL     1       5.180   0.658   0.000  0.00  0.00    -0.222 NA
ATOM     19  C   UNL     1       5.593   1.373   0.000  0.00  0.00    +0.119 A 
ATOM     20  C   UNL     1       5.040   1.986   0.000  0.00  0.00    +0.098 A 
ENDBRANCH  15  16
ENDBRANCH  14  15
ENDBRANCH   5  14
TORSDOF 4
