REMARK  Name = 
REMARK  6 active torsions:
REMARK  status: ('A' for Active; 'I' for Inactive)
REMARK    1  A    between atoms: N_2  and  C_9
REMARK    2  A    between atoms: C_7  and  C_9
REMARK    3  A    between atoms: N_8  and  C_14
REMARK    4  A    between atoms: N_12  and  C_18
REMARK    5  A    between atoms: C_14  and  C_16
REMARK    6  A    between atoms: C_16  and  C_18
REMARK                            x       y       z     vdW  Elec       q    Type
REMARK                         _______ _______ _______ _____ _____    ______ ____
ROOT
ATOM      1  C   UNL     1       1.921  -0.283   0.000  0.00  0.00    +0.149 A 
ATOM      2  C   UNL     1       2.638   0.129   0.000  0.00  0.00    +0.154 A 
ATOM      3  N   UNL     1       3.351  -0.283   0.000  0.00  0.00    -0.207 NA
ATOM      4  C   UNL     1       3.351  -1.109   0.000  0.00  0.00    +0.201 A 
ATOM      5  N   UNL     1       2.638  -1.521   0.000  0.00  0.00    -0.205 NA
ATOM      6  N   UNL     1       2.638   0.954   0.000  0.00  0.00    -0.288 N 
ATOM      7  C   UNL     1       3.351   1.367   0.000  0.00  0.00    +0.114 C 
ATOM      8  N   UNL     1       1.138  -0.029   0.000  0.00  0.00    -0.219 NA
ATOM      9  C   UNL     1       0.650  -0.696   0.000  0.00  0.00    +0.180 A 
ATOM     10  N   UNL     1       1.138  -1.363   0.000  0.00  0.00    -0.292 N 
ATOM     11  C   UNL     1       1.921  -1.109   0.000  0.00  0.00    +0.167 A 
ENDROOT
BRANCH   6  12
ATOM     12  C   UNL     1       1.921   1.367   0.000  0.00  0.00    +0.126 C 
BRANCH  12  13
ATOM     13  C   UNL     1       1.921   2.192   0.000  0.00  0.00    +0.187 C 
ATOM     14  O   UNL     1       2.638   2.605   0.000  0.00  0.00    -0.220 OA
BRANCH  13  15
ATOM     15  C   UNL     1       1.209   2.605   0.000  0.00  0.00    +0.107 C 
BRANCH  15  16
ATOM     16  N   UNL     1       1.209   3.430   0.000  0.00  0.00    -0.266 NA
ATOM     17  C   UNL     1       1.921   3.842   0.000  0.00  0.00    +0.105 C 
ATOM     18  C   UNL     1       1.921   4.663   0.000  0.00  0.00    +0.159 C 
ATOM     19  O   UNL     1       1.209   5.076   0.000  0.00  0.00    -0.351 OA
ATOM     20  C   UNL     1       0.492   4.663   0.000  0.00  0.00    +0.159 C 
ATOM     21  C   UNL     1       0.492   3.842   0.000  0.00  0.00    +0.105 C 
ENDBRANCH  15  16
ENDBRANCH  13  15
ENDBRANCH  12  13
ENDBRANCH   6  12
BRANCH  10  22
ATOM     22  C   UNL     1       0.883  -2.151   0.000  0.00  0.00    +0.142 C 
BRANCH  22  23
ATOM     23  C   UNL     1       0.075  -2.321   0.000  0.00  0.00    +0.174 C 
ATOM     24  O   UNL     1       0.346  -1.542   0.000  0.00  0.00    -0.221 OA
ATOM     25  C   UNL     1      -0.729  -2.138   0.000  0.00  0.00    +0.067 C 
ATOM     26  C   UNL     1      -1.150  -2.851   0.000  0.00  0.00    +0.145 C 
ATOM     27  O   UNL     1      -0.604  -3.467   0.000  0.00  0.00    -0.354 OA
ATOM     28  C   UNL     1       0.154  -3.142   0.000  0.00  0.00    +0.145 C 
ATOM     29  C   UNL     1       0.863  -3.563   0.000  0.00  0.00    +0.035 C 
ENDBRANCH  22  23
ENDBRANCH  10  22
TORSDOF 6
