REMARK  Name = 
REMARK  7 active torsions:
REMARK  status: ('A' for Active; 'I' for Inactive)
REMARK    1  A    between atoms: N_2  and  C_12
REMARK    2  A    between atoms: C_4  and  N_7
REMARK    3  A    between atoms: N_7  and  C_8
REMARK    4  A    between atoms: C_11  and  C_12
REMARK    5  A    between atoms: C_11  and  C_20
REMARK    6  A    between atoms: C_17  and  O_22
REMARK    7  A    between atoms: O_22  and  C_24
REMARK                            x       y       z     vdW  Elec       q    Type
REMARK                         _______ _______ _______ _____ _____    ______ ____
ROOT
ATOM      1  C   UNL     1       2.562   0.825   0.000  0.00  0.00    +0.149 A 
ATOM      2  N   UNL     1       1.779   1.083   0.000  0.00  0.00    -0.219 NA
ATOM      3  C   UNL     1       1.292   0.412   0.000  0.00  0.00    +0.180 A 
ATOM      4  N   UNL     1       1.779  -0.254   0.000  0.00  0.00    -0.294 N 
ATOM      5  C   UNL     1       3.275   1.238   0.000  0.00  0.00    +0.154 A 
ATOM      6  N   UNL     1       3.992   0.825   0.000  0.00  0.00    -0.207 NA
ATOM      7  C   UNL     1       3.992   0.000   0.000  0.00  0.00    +0.201 A 
ATOM      8  N   UNL     1       3.275  -0.412   0.000  0.00  0.00    -0.205 NA
ATOM      9  C   UNL     1       2.562   0.000   0.000  0.00  0.00    +0.167 A 
ENDROOT
BRANCH   5  10
ATOM     10  N   UNL     1       3.275   2.062   0.000  0.00  0.00    -0.292 N 
ATOM     11  C   UNL     1       2.562   2.475   0.000  0.00  0.00    +0.114 C 
BRANCH  10  12
ATOM     12  C   UNL     1       3.992   2.475   0.000  0.00  0.00    +0.079 C 
ATOM     13  C   UNL     1       4.787   2.263   0.000  0.00  0.00    +0.049 C 
ATOM     14  C   UNL     1       5.000   3.062   0.000  0.00  0.00    +0.119 C 
ATOM     15  C   UNL     1       4.204   3.275   0.000  0.00  0.00    +0.049 C 
BRANCH  14  16
ATOM     16  O   UNL     1       5.717   3.475   0.000  0.00  0.00    -0.356 OA
BRANCH  16  17
ATOM     17  C   UNL     1       5.717   4.296   0.000  0.00  0.00    +0.142 C 
ATOM     18  C   UNL     1       6.429   4.708   0.000  0.00  0.00    +0.035 C 
ENDBRANCH  16  17
ENDBRANCH  14  16
ENDBRANCH  10  12
ENDBRANCH   5  10
BRANCH   4  19
ATOM     19  C   UNL     1       1.521  -1.038   0.000  0.00  0.00    +0.116 C 
BRANCH  19  20
ATOM     20  C   UNL     1       0.717  -1.208   0.000  0.00  0.00    +0.106 C 
ATOM     21  C   UNL     1       0.887  -2.017   0.000  0.00  0.00    +0.149 C 
ATOM     22  O   UNL     1       0.079  -2.188   0.000  0.00  0.00    -0.353 OA
ATOM     23  C   UNL     1      -0.092  -1.379   0.000  0.00  0.00    +0.149 C 
BRANCH  20  24
ATOM     24  C   UNL     1       0.546  -0.400   0.000  0.00  0.00    +0.189 C 
ATOM     25  O   UNL     1      -0.242  -0.146   0.000  0.00  0.00    -0.220 OA
ENDBRANCH  20  24
ENDBRANCH  19  20
ENDBRANCH   4  19
TORSDOF 7
