REMARK  Name = 
REMARK  1 active torsions:
REMARK  status: ('A' for Active; 'I' for Inactive)
REMARK    1  A    between atoms: N_8  and  C_9
REMARK                            x       y       z     vdW  Elec       q    Type
REMARK                         _______ _______ _______ _____ _____    ______ ____
ROOT
ATOM      1  C   UNL     1       2.751  -1.712   0.000  0.00  0.00    +0.075 C 
ATOM      2  C   UNL     1       2.751  -2.537   0.000  0.00  0.00    +0.156 A 
ATOM      3  O   UNL     1       2.084  -3.022   0.000  0.00  0.00    -0.356 OA
ATOM      4  N   UNL     1       2.339  -3.806   0.000  0.00  0.00    -0.060 NA
ATOM      5  C   UNL     1       3.164  -3.806   0.000  0.00  0.00    +0.197 A 
ATOM      6  N   UNL     1       3.649  -4.474   0.000  0.00  0.00    -0.139 NA
ATOM      7  C   UNL     1       3.313  -5.227   0.000  0.00  0.00    +0.345 C 
ATOM      8  N   UNL     1       3.798  -5.895   0.000  0.00  0.00    -0.189 NA
ATOM      9  O   UNL     1       2.493  -5.314   0.000  0.00  0.00    -0.249 OA
ATOM     10  C   UNL     1       3.419  -3.022   0.000  0.00  0.00    +0.075 A 
ENDROOT
BRANCH   8  11
ATOM     11  C   UNL     1       3.462  -6.648   0.000  0.00  0.00    +0.097 C 
ATOM     12  C   UNL     1       2.642  -6.735   0.000  0.00  0.00    +0.022 C 
ATOM     13  C   UNL     1       2.306  -7.488   0.000  0.00  0.00    +0.002 C 
ATOM     14  C   UNL     1       2.791  -8.156   0.000  0.00  0.00    +0.000 C 
ATOM     15  C   UNL     1       3.612  -8.069   0.000  0.00  0.00    +0.002 C 
ATOM     16  C   UNL     1       3.947  -7.316   0.000  0.00  0.00    +0.022 C 
ENDBRANCH   8  11
TORSDOF 1
