REMARK  Name = 
REMARK  1 active torsions:
REMARK  status: ('A' for Active; 'I' for Inactive)
REMARK    1  A    between atoms: N_6  and  C_7
REMARK                            x       y       z     vdW  Elec       q    Type
REMARK                         _______ _______ _______ _____ _____    ______ ____
ROOT
ATOM      1  C   UNL     1       2.143  -0.412   0.000  0.00  0.00    +0.034 C 
ATOM      2  C   UNL     1       2.143  -1.238   0.000  0.00  0.00    +0.011 A 
ATOM      3  C   UNL     1       1.429  -1.650   0.000  0.00  0.00    +0.060 A 
ATOM      4  C   UNL     1       0.715  -1.238   0.000  0.00  0.00    +0.052 C 
ATOM      5  N   UNL     1       1.429  -2.475   0.000  0.00  0.00    -0.217 NA
ATOM      6  C   UNL     1       2.143  -2.888   0.000  0.00  0.00    +0.236 A 
ATOM      7  N   UNL     1       2.143  -3.712   0.000  0.00  0.00    -0.203 NA
ATOM      8  N   UNL     1       2.858  -2.475   0.000  0.00  0.00    -0.211 NA
ATOM      9  C   UNL     1       2.858  -1.650   0.000  0.00  0.00    +0.099 A 
ENDROOT
BRANCH   7  10
ATOM     10  C   UNL     1       1.429  -4.125   0.000  0.00  0.00    +0.125 C 
ATOM     11  C   UNL     1       0.715  -3.712   0.000  0.00  0.00    +0.164 C 
ATOM     12  O   UNL     1       0.000  -4.125   0.000  0.00  0.00    -0.352 OA
ATOM     13  C   UNL     1       0.000  -4.950   0.000  0.00  0.00    +0.142 C 
ATOM     14  C   UNL     1       0.715  -5.362   0.000  0.00  0.00    +0.034 C 
ATOM     15  C   UNL     1       1.429  -4.950   0.000  0.00  0.00    +0.027 C 
ENDBRANCH   7  10
TORSDOF 1
