REMARK  Name = 
REMARK  4 active torsions:
REMARK  status: ('A' for Active; 'I' for Inactive)
REMARK    1  A    between atoms: C_4  and  N_5
REMARK    2  A    between atoms: N_8  and  C_9
REMARK    3  A    between atoms: C_9  and  C_10
REMARK    4  A    between atoms: C_9  and  C_13
REMARK                            x       y       z     vdW  Elec       q    Type
REMARK                         _______ _______ _______ _____ _____    ______ ____
ROOT
ATOM      1  N   UNL     1      -1.429   2.475   0.000  0.00  0.00    -0.159 NA
ATOM      2  C   UNL     1      -0.715   2.062   0.000  0.00  0.00    +0.343 C 
ATOM      3  N   UNL     1       0.000   2.475   0.000  0.00  0.00    -0.189 NA
ATOM      4  O   UNL     1      -0.715   1.238   0.000  0.00  0.00    -0.249 OA
ENDROOT
BRANCH   1  11
ATOM      5  C   UNL     1      -4.287   2.475   0.000  0.00  0.00    +0.134 C 
ATOM      6  N   UNL     1      -3.572   2.062   0.000  0.00  0.00    -0.291 N 
ATOM      7  C   UNL     1      -3.572   1.238   0.000  0.00  0.00    +0.261 A 
ATOM      8  O   UNL     1      -4.287   0.825   0.000  0.00  0.00    -0.267 OA
ATOM      9  C   UNL     1      -2.858   0.825   0.000  0.00  0.00    +0.062 A 
ATOM     10  C   UNL     1      -2.143   1.238   0.000  0.00  0.00    +0.023 A 
ATOM     11  C   UNL     1      -2.143   2.062   0.000  0.00  0.00    +0.092 A 
ATOM     12  C   UNL     1      -2.858   2.475   0.000  0.00  0.00    +0.095 A 
ENDBRANCH   1  11
BRANCH   3  13
ATOM     13  C   UNL     1       0.715   2.062   0.000  0.00  0.00    +0.097 C 
BRANCH  13  14
ATOM     14  C   UNL     1       0.715   1.238   0.000  0.00  0.00    +0.020 C 
ATOM     15  C   UNL     1       0.302   0.523   0.000  0.00  0.00    +0.002 C 
ATOM     16  C   UNL     1       1.127   0.523   0.000  0.00  0.00    +0.002 C 
ENDBRANCH  13  14
BRANCH  13  17
ATOM     17  C   UNL     1       1.429   2.475   0.000  0.00  0.00    +0.020 C 
ATOM     18  C   UNL     1       2.254   2.475   0.000  0.00  0.00    +0.002 C 
ATOM     19  C   UNL     1       1.841   3.189   0.000  0.00  0.00    +0.002 C 
ENDBRANCH  13  17
ENDBRANCH   3  13
TORSDOF 4
