REMARK  Name = 
REMARK  2 active torsions:
REMARK  status: ('A' for Active; 'I' for Inactive)
REMARK    1  A    between atoms: C_8  and  N_9
REMARK    2  A    between atoms: N_12  and  C_13
REMARK                            x       y       z     vdW  Elec       q    Type
REMARK                         _______ _______ _______ _____ _____    ______ ____
ROOT
ATOM      1  N   UNL     1       4.573  -0.090   0.000  0.00  0.00    -0.142 NA
ATOM      2  C   UNL     1       3.748  -0.090   0.000  0.00  0.00    +0.345 C 
ATOM      3  N   UNL     1       3.335   0.624   0.000  0.00  0.00    -0.189 NA
ATOM      4  O   UNL     1       3.335  -0.805   0.000  0.00  0.00    -0.249 OA
ENDROOT
BRANCH   1   9
ATOM      5  C   UNL     1       7.460  -2.234   0.000  0.00  0.00    +0.114 C 
ATOM      6  N   UNL     1       7.048  -1.519   0.000  0.00  0.00    -0.290 N 
ATOM      7  C   UNL     1       6.223  -1.519   0.000  0.00  0.00    +0.133 A 
ATOM      8  N   UNL     1       5.810  -0.805   0.000  0.00  0.00    -0.214 NA
ATOM      9  C   UNL     1       4.985  -0.805   0.000  0.00  0.00    +0.157 A 
ATOM     10  C   UNL     1       4.573  -1.519   0.000  0.00  0.00    +0.036 A 
ATOM     11  C   UNL     1       4.985  -2.234   0.000  0.00  0.00    +0.006 A 
ATOM     12  C   UNL     1       5.810  -2.234   0.000  0.00  0.00    +0.034 A 
ATOM     13  C   UNL     1       7.460  -0.805   0.000  0.00  0.00    +0.114 C 
ENDBRANCH   1   9
BRANCH   3  14
ATOM     14  C   UNL     1       2.510   0.624   0.000  0.00  0.00    +0.097 C 
ATOM     15  C   UNL     1       1.796   1.037   0.000  0.00  0.00    +0.022 C 
ATOM     16  C   UNL     1       1.081   1.449   0.000  0.00  0.00    +0.002 C 
ATOM     17  C   UNL     1       1.288   0.624   0.000  0.00  0.00    +0.000 C 
ATOM     18  C   UNL     1       1.081  -0.201   0.000  0.00  0.00    +0.002 C 
ATOM     19  C   UNL     1       0.367   0.212   0.000  0.00  0.00    +0.000 C 
ATOM     20  C   UNL     1       0.367   1.037   0.000  0.00  0.00    +0.000 C 
ATOM     21  C   UNL     1       1.796   0.212   0.000  0.00  0.00    +0.022 C 
ENDBRANCH   3  14
TORSDOF 2
