REMARK  Name = 
REMARK  5 active torsions:
REMARK  status: ('A' for Active; 'I' for Inactive)
REMARK    1  A    between atoms: N_5  and  S_8
REMARK    2  A    between atoms: S_8  and  N_11
REMARK    3  A    between atoms: N_11  and  C_12
REMARK    4  A    between atoms: C_12  and  C_13
REMARK    5  A    between atoms: C_13  and  C_14
REMARK                            x       y       z     vdW  Elec       q    Type
REMARK                         _______ _______ _______ _____ _____    ______ ____
ROOT
ATOM      1  S   UNL     1       3.572  -5.362   0.000  0.00  0.00    +0.116 S 
ATOM      2  O   UNL     1       4.397  -5.362   0.000  0.00  0.00    -0.140 OA
ATOM      3  O   UNL     1       2.747  -5.362   0.000  0.00  0.00    -0.140 OA
ENDROOT
BRANCH   1   8
ATOM      4  C   UNL     1       3.572  -2.062   0.000  0.00  0.00    +0.000 C 
ATOM      5  C   UNL     1       3.572  -2.888   0.000  0.00  0.00    +0.003 C 
ATOM      6  C   UNL     1       2.858  -3.300   0.000  0.00  0.00    +0.019 C 
ATOM      7  C   UNL     1       2.858  -4.125   0.000  0.00  0.00    +0.097 C 
ATOM      8  N   UNL     1       3.572  -4.537   0.000  0.00  0.00    -0.144 NA
ATOM      9  C   UNL     1       4.287  -4.125   0.000  0.00  0.00    +0.097 C 
ATOM     10  C   UNL     1       4.287  -3.300   0.000  0.00  0.00    +0.019 C 
ENDBRANCH   1   8
BRANCH   1  11
ATOM     11  N   UNL     1       3.572  -6.188   0.000  0.00  0.00    -0.066 NA
BRANCH  11  12
ATOM     12  C   UNL     1       2.858  -6.600   0.000  0.00  0.00    +0.121 C 
BRANCH  12  13
ATOM     13  C   UNL     1       2.858  -7.425   0.000  0.00  0.00    +0.049 C 
BRANCH  13  14
ATOM     14  C   UNL     1       2.143  -7.838   0.000  0.00  0.00    -0.002 A 
ATOM     15  C   UNL     1       1.429  -7.425   0.000  0.00  0.00    +0.095 A 
ATOM     16  N   UNL     1       0.715  -7.838   0.000  0.00  0.00    -0.243 NA
ATOM     17  C   UNL     1       0.715  -8.662   0.000  0.00  0.00    +0.099 A 
ATOM     18  C   UNL     1       1.429  -9.075   0.000  0.00  0.00    +0.020 A 
ATOM     19  C   UNL     1       2.143  -8.662   0.000  0.00  0.00    -0.001 A 
ENDBRANCH  13  14
ENDBRANCH  12  13
ENDBRANCH  11  12
ENDBRANCH   1  11
TORSDOF 5
