REMARK  Name = 
REMARK  4 active torsions:
REMARK  status: ('A' for Active; 'I' for Inactive)
REMARK    1  A    between atoms: N_7  and  C_8
REMARK    2  A    between atoms: C_8  and  C_9
REMARK    3  A    between atoms: N_11  and  C_12
REMARK    4  A    between atoms: C_16  and  C_19
REMARK                            x       y       z     vdW  Elec       q    Type
REMARK                         _______ _______ _______ _____ _____    ______ ____
ROOT
ATOM      1  C   UNL     1      -3.516  -4.503   0.000  0.00  0.00    +0.266 C 
ATOM      2  N   UNL     1      -4.231  -4.915   0.000  0.00  0.00    -0.206 NA
ATOM      3  O   UNL     1      -2.802  -4.915   0.000  0.00  0.00    -0.271 OA
ENDROOT
BRANCH   2   4
ATOM      4  C   UNL     1      -4.231  -5.740   0.000  0.00  0.00    +0.095 C 
ATOM      5  C   UNL     1      -4.974  -6.098   0.000  0.00  0.00    +0.022 C 
ATOM      6  C   UNL     1      -5.157  -6.902   0.000  0.00  0.00    +0.002 C 
ATOM      7  C   UNL     1      -4.643  -7.547   0.000  0.00  0.00    +0.000 C 
ATOM      8  C   UNL     1      -3.818  -7.547   0.000  0.00  0.00    +0.000 C 
ATOM      9  C   UNL     1      -3.304  -6.902   0.000  0.00  0.00    +0.002 C 
ATOM     10  C   UNL     1      -3.487  -6.098   0.000  0.00  0.00    +0.022 C 
BRANCH   7  11
ATOM     11  C   UNL     1      -5.001  -8.291   0.000  0.00  0.00    +0.000 C 
ATOM     12  C   UNL     1      -4.258  -8.649   0.000  0.00  0.00    +0.000 C 
ATOM     13  C   UNL     1      -5.744  -7.933   0.000  0.00  0.00    +0.000 C 
ATOM     14  C   UNL     1      -5.359  -9.034   0.000  0.00  0.00    +0.000 C 
ENDBRANCH   7  11
ENDBRANCH   2   4
BRANCH   1  15
ATOM     15  C   UNL     1      -3.516  -3.678   0.000  0.00  0.00    +0.217 C 
BRANCH  15  19
ATOM     16  C   UNL     1      -2.087  -1.202   0.000  0.00  0.00    +0.054 C 
ATOM     17  C   UNL     1      -2.087  -2.027   0.000  0.00  0.00    +0.079 A 
ATOM     18  N   UNL     1      -2.802  -2.440   0.000  0.00  0.00    -0.171 NA
ATOM     19  N   UNL     1      -2.802  -3.265   0.000  0.00  0.00    -0.207 N 
ATOM     20  C   UNL     1      -2.087  -3.678   0.000  0.00  0.00    +0.277 A 
ATOM     21  O   UNL     1      -2.087  -4.503   0.000  0.00  0.00    -0.265 OA
ATOM     22  C   UNL     1      -1.373  -3.265   0.000  0.00  0.00    +0.063 A 
ATOM     23  C   UNL     1      -1.373  -2.440   0.000  0.00  0.00    +0.021 A 
ENDBRANCH  15  19
ENDBRANCH   1  15
TORSDOF 4
