REMARK  Name = 
REMARK  4 active torsions:
REMARK  status: ('A' for Active; 'I' for Inactive)
REMARK    1  A    between atoms: N_2  and  C_4
REMARK    2  A    between atoms: N_9  and  C_10
REMARK    3  A    between atoms: C_10  and  C_11
REMARK    4  A    between atoms: N_13  and  C_14
REMARK                            x       y       z     vdW  Elec       q    Type
REMARK                         _______ _______ _______ _____ _____    ______ ____
ROOT
ATOM      1  C   UNL     1       0.137  -2.896   0.000  0.00  0.00    +0.264 C 
ATOM      2  N   UNL     1       0.852  -2.483   0.000  0.00  0.00    -0.207 NA
ATOM      3  O   UNL     1      -0.577  -2.484   0.000  0.00  0.00    -0.271 OA
ENDROOT
BRANCH   2   4
ATOM      4  C   UNL     1       0.852  -1.659   0.000  0.00  0.00    +0.079 C 
ATOM      5  C   UNL     1       0.852  -0.911   0.000  0.00  0.00    +0.020 C 
ATOM      6  C   UNL     1       1.301  -0.121   0.000  0.00  0.00    +0.002 C 
ATOM      7  C   UNL     1       2.037  -0.494   0.000  0.00  0.00    +0.000 C 
ATOM      8  C   UNL     1       2.037  -1.242   0.000  0.00  0.00    +0.002 C 
ATOM      9  C   UNL     1       1.301  -1.616   0.000  0.00  0.00    +0.000 C 
ATOM     10  C   UNL     1       0.566  -1.242   0.000  0.00  0.00    +0.002 C 
ATOM     11  C   UNL     1       0.566  -0.494   0.000  0.00  0.00    +0.000 C 
ATOM     12  C   UNL     1       1.587  -2.032   0.000  0.00  0.00    +0.020 C 
ATOM     13  C   UNL     1       0.116  -2.032   0.000  0.00  0.00    +0.020 C 
ENDBRANCH   2   4
BRANCH   1  14
ATOM     14  C   UNL     1       0.137  -3.721   0.000  0.00  0.00    +0.196 C 
BRANCH  14  17
ATOM     15  C   UNL     1      -1.292  -5.371   0.000  0.00  0.00    +0.307 A 
ATOM     16  C   UNL     1      -0.577  -4.959   0.000  0.00  0.00    +0.155 A 
ATOM     17  N   UNL     1      -0.577  -4.134   0.000  0.00  0.00    -0.280 N 
ATOM     18  C   UNL     1      -1.292  -3.721   0.000  0.00  0.00    +0.262 A 
ATOM     19  O   UNL     1      -1.292  -2.896   0.000  0.00  0.00    -0.267 OA
ATOM     20  C   UNL     1      -2.006  -4.134   0.000  0.00  0.00    +0.067 A 
ATOM     21  C   UNL     1      -2.006  -4.959   0.000  0.00  0.00    +0.082 A 
BRANCH  15  23
ATOM     22  O   UNL     1      -2.006  -6.609   0.000  0.00  0.00    -0.576 OA
ATOM     23  N   UNL     1      -1.292  -6.196   0.000  0.00  0.00    +0.082 N 
ATOM     24  O   UNL     1      -0.577  -6.609   0.000  0.00  0.00    +0.042 OA
ENDBRANCH  15  23
ENDBRANCH  14  17
ENDBRANCH   1  14
TORSDOF 4
