REMARK  Name = 
REMARK  7 active torsions:
REMARK  status: ('A' for Active; 'I' for Inactive)
REMARK    1  A    between atoms: C_2  and  C_3
REMARK    2  A    between atoms: C_2  and  N_9
REMARK    3  A    between atoms: C_3  and  N_4
REMARK    4  A    between atoms: N_9  and  C_10
REMARK    5  A    between atoms: C_10  and  C_11
REMARK    6  A    between atoms: C_11  and  C_12
REMARK    7  A    between atoms: N_14  and  C_15
REMARK                            x       y       z     vdW  Elec       q    Type
REMARK                         _______ _______ _______ _____ _____    ______ ____
ROOT
ATOM      1  N   UNL     1       2.469  -1.040   0.000  0.00  0.00    -0.217 NA
ENDROOT
BRANCH   1   3
ATOM      2  C   UNL     1       1.754   0.198   0.000  0.00  0.00    +0.021 C 
ATOM      3  C   UNL     1       1.754  -0.627   0.000  0.00  0.00    +0.097 C 
BRANCH   3   4
ATOM      4  C   UNL     1       1.040  -1.040   0.000  0.00  0.00    +0.145 C 
BRANCH   4   5
ATOM      5  N   UNL     1       0.325  -0.627   0.000  0.00  0.00    -0.248 N 
ATOM      6  N   UNL     1       0.239   0.193   0.000  0.00  0.00    -0.168 NA
ATOM      7  C   UNL     1      -0.568   0.365   0.000  0.00  0.00    +0.122 A 
ATOM      8  C   UNL     1      -0.981  -0.349   0.000  0.00  0.00    +0.043 A 
ATOM      9  C   UNL     1      -0.429  -0.963   0.000  0.00  0.00    +0.097 A 
ENDBRANCH   4   5
ENDBRANCH   3   4
ENDBRANCH   1   3
BRANCH   1  10
ATOM     10  C   UNL     1       3.183  -0.627   0.000  0.00  0.00    +0.098 C 
BRANCH  10  11
ATOM     11  C   UNL     1       3.897  -1.040   0.000  0.00  0.00    +0.106 C 
BRANCH  11  12
ATOM     12  C   UNL     1       4.612  -0.627   0.000  0.00  0.00    +0.243 C 
ATOM     13  N   UNL     1       5.326  -1.040   0.000  0.00  0.00    -0.209 NA
ATOM     14  O   UNL     1       4.612   0.198   0.000  0.00  0.00    -0.273 OA
BRANCH  13  15
ATOM     15  C   UNL     1       6.041  -0.627   0.000  0.00  0.00    +0.079 C 
ATOM     16  C   UNL     1       5.628   0.087   0.000  0.00  0.00    +0.022 C 
ATOM     17  C   UNL     1       6.453  -1.341   0.000  0.00  0.00    +0.022 C 
ATOM     18  C   UNL     1       6.755  -0.215   0.000  0.00  0.00    +0.022 C 
ENDBRANCH  13  15
ENDBRANCH  11  12
ENDBRANCH  10  11
ENDBRANCH   1  10
TORSDOF 7
