REMARK  Name = 
REMARK  6 active torsions:
REMARK  status: ('A' for Active; 'I' for Inactive)
REMARK    1  A    between atoms: C_2  and  C_3
REMARK    2  A    between atoms: C_2  and  C_10
REMARK    3  A    between atoms: C_3  and  C_4
REMARK    4  A    between atoms: N_12  and  C_13
REMARK    5  A    between atoms: C_13  and  C_14
REMARK    6  A    between atoms: C_14  and  C_15
REMARK                            x       y       z     vdW  Elec       q    Type
REMARK                         _______ _______ _______ _____ _____    ______ ____
ROOT
ATOM      1  C   UNL     1       2.143  -2.062   0.000  0.00  0.00    +0.241 C 
ATOM      2  N   UNL     1       2.858  -1.650   0.000  0.00  0.00    -0.205 NA
ATOM      3  O   UNL     1       2.143  -2.888   0.000  0.00  0.00    -0.273 OA
ENDROOT
BRANCH   1   5
ATOM      4  C   UNL     1       1.429  -0.825   0.000  0.00  0.00    +0.010 C 
ATOM      5  C   UNL     1       1.429  -1.650   0.000  0.00  0.00    +0.078 C 
BRANCH   5   6
ATOM      6  C   UNL     1       0.715  -2.062   0.000  0.00  0.00    +0.009 C 
BRANCH   6   7
ATOM      7  C   UNL     1       0.000  -1.650   0.000  0.00  0.00    +0.000 C 
ATOM      8  C   UNL     1       0.000  -0.825   0.000  0.00  0.00    +0.000 C 
ATOM      9  C   UNL     1      -0.715  -0.412   0.000  0.00  0.00    +0.000 C 
ATOM     10  C   UNL     1      -1.429  -0.825   0.000  0.00  0.00    +0.000 C 
ATOM     11  C   UNL     1      -1.429  -1.650   0.000  0.00  0.00    +0.000 C 
ATOM     12  C   UNL     1      -0.715  -2.062   0.000  0.00  0.00    +0.000 C 
ENDBRANCH   6   7
ENDBRANCH   5   6
ENDBRANCH   1   5
BRANCH   2  13
ATOM     13  C   UNL     1       3.572  -2.062   0.000  0.00  0.00    +0.121 C 
BRANCH  13  14
ATOM     14  C   UNL     1       4.287  -1.650   0.000  0.00  0.00    +0.070 C 
BRANCH  14  15
ATOM     15  C   UNL     1       5.001  -2.062   0.000  0.00  0.00    +0.068 A 
ATOM     16  N   UNL     1       5.088  -2.883   0.000  0.00  0.00    -0.241 NA
ATOM     17  C   UNL     1       5.894  -3.054   0.000  0.00  0.00    +0.134 A 
ATOM     18  S   UNL     1       6.307  -2.340   0.000  0.00  0.00    -0.064 S 
ATOM     19  C   UNL     1       5.755  -1.727   0.000  0.00  0.00    +0.052 A 
ENDBRANCH  14  15
ENDBRANCH  13  14
ENDBRANCH   2  13
TORSDOF 6
