REMARK  Name = 
REMARK  4 active torsions:
REMARK  status: ('A' for Active; 'I' for Inactive)
REMARK    1  A    between atoms: C_2  and  C_4
REMARK    2  A    between atoms: C_4  and  N_5
REMARK    3  A    between atoms: N_14  and  C_15
REMARK    4  A    between atoms: C_15  and  C_16
REMARK                            x       y       z     vdW  Elec       q    Type
REMARK                         _______ _______ _______ _____ _____    ______ ____
ROOT
ATOM      1  N   UNL     1      -0.171  -0.698   0.000  0.00  0.00    -0.203 NA
ATOM      2  C   UNL     1       0.654  -0.698   0.000  0.00  0.00    +0.218 A 
ATOM      3  N   UNL     1       1.139  -1.365   0.000  0.00  0.00    -0.296 N 
ATOM      4  C   UNL     1       1.923  -1.110   0.000  0.00  0.00    +0.080 A 
ATOM      5  C   UNL     1       1.923  -0.285   0.000  0.00  0.00    +0.100 A 
ATOM      6  C   UNL     1       2.638   0.127   0.000  0.00  0.00    +0.021 A 
ATOM      7  C   UNL     1       3.352  -0.285   0.000  0.00  0.00    +0.002 A 
ATOM      8  C   UNL     1       3.352  -1.110   0.000  0.00  0.00    +0.002 A 
ATOM      9  C   UNL     1       2.638  -1.523   0.000  0.00  0.00    +0.019 A 
ATOM     10  N   UNL     1       1.139  -0.030   0.000  0.00  0.00    -0.212 NA
ENDROOT
BRANCH   1  11
ATOM     11  C   UNL     1      -0.584   0.017   0.000  0.00  0.00    +0.148 C 
BRANCH  11  13
ATOM     12  C   UNL     1      -1.821   0.731   0.000  0.00  0.00    +0.037 C 
ATOM     13  C   UNL     1      -1.409   0.017   0.000  0.00  0.00    +0.174 C 
ATOM     14  O   UNL     1      -1.821  -0.698   0.000  0.00  0.00    -0.221 OA
ENDBRANCH  11  13
ENDBRANCH   1  11
BRANCH   3  15
ATOM     15  C   UNL     1       0.884  -2.150   0.000  0.00  0.00    +0.138 C 
BRANCH  15  16
ATOM     16  C   UNL     1       0.077  -2.321   0.000  0.00  0.00    +0.138 C 
ATOM     17  O   UNL     1      -0.475  -1.708   0.000  0.00  0.00    -0.354 OA
ATOM     18  C   UNL     1      -1.282  -1.880   0.000  0.00  0.00    +0.142 C 
ATOM     19  C   UNL     1      -1.537  -2.665   0.000  0.00  0.00    +0.032 C 
ATOM     20  C   UNL     1      -0.985  -3.278   0.000  0.00  0.00    +0.005 C 
ATOM     21  C   UNL     1      -0.178  -3.106   0.000  0.00  0.00    +0.032 C 
ENDBRANCH  15  16
ENDBRANCH   3  15
TORSDOF 4
