REMARK  Name = 
REMARK  7 active torsions:
REMARK  status: ('A' for Active; 'I' for Inactive)
REMARK    1  A    between atoms: C_2  and  C_3
REMARK    2  A    between atoms: C_2  and  N_9
REMARK    3  A    between atoms: C_3  and  N_4
REMARK    4  A    between atoms: N_9  and  S_10
REMARK    5  A    between atoms: S_10  and  N_13
REMARK    6  A    between atoms: N_13  and  C_15
REMARK    7  A    between atoms: C_15  and  C_17
REMARK                            x       y       z     vdW  Elec       q    Type
REMARK                         _______ _______ _______ _____ _____    ______ ____
ROOT
ATOM      1  S   UNL     1      -1.692  -2.876   0.000  0.00  0.00    +0.116 S 
ATOM      2  O   UNL     1      -0.867  -2.876   0.000  0.00  0.00    -0.140 OA
ATOM      3  O   UNL     1      -2.517  -2.876   0.000  0.00  0.00    -0.140 OA
ENDROOT
BRANCH   1   4
ATOM      4  N   UNL     1      -1.692  -3.701   0.000  0.00  0.00    -0.144 NA
ATOM      5  C   UNL     1      -2.406  -4.114   0.000  0.00  0.00    +0.116 C 
BRANCH   4   6
ATOM      6  C   UNL     1      -0.977  -4.114   0.000  0.00  0.00    +0.081 C 
ATOM      7  C   UNL     1      -0.263  -3.701   0.000  0.00  0.00    +0.019 C 
BRANCH   6   8
ATOM      8  C   UNL     1      -0.977  -4.939   0.000  0.00  0.00    +0.016 C 
ATOM      9  C   UNL     1      -1.390  -5.653   0.000  0.00  0.00    +0.001 C 
ATOM     10  C   UNL     1      -0.565  -5.653   0.000  0.00  0.00    +0.001 C 
ENDBRANCH   6   8
ENDBRANCH   4   6
ENDBRANCH   1   4
BRANCH   1  11
ATOM     11  N   UNL     1      -1.692  -2.051   0.000  0.00  0.00    -0.066 NA
BRANCH  11  13
ATOM     12  C   UNL     1      -3.121  -2.051   0.000  0.00  0.00    +0.023 C 
ATOM     13  C   UNL     1      -2.406  -1.639   0.000  0.00  0.00    +0.123 C 
BRANCH  13  14
ATOM     14  C   UNL     1      -2.406  -0.814   0.000  0.00  0.00    +0.148 C 
BRANCH  14  15
ATOM     15  N   UNL     1      -3.121  -0.401   0.000  0.00  0.00    -0.229 N 
ATOM     16  N   UNL     1      -3.207   0.419   0.000  0.00  0.00    -0.145 NA
ATOM     17  C   UNL     1      -4.014   0.591   0.000  0.00  0.00    +0.221 A 
ATOM     18  N   UNL     1      -4.426  -0.124   0.000  0.00  0.00    -0.201 NA
ATOM     19  C   UNL     1      -3.874  -0.737   0.000  0.00  0.00    +0.197 A 
ENDBRANCH  14  15
ENDBRANCH  13  14
ENDBRANCH  11  13
ENDBRANCH   1  11
TORSDOF 7
