REMARK  Name = 
REMARK  9 active torsions:
REMARK  status: ('A' for Active; 'I' for Inactive)
REMARK    1  A    between atoms: N_2  and  C_12
REMARK    2  A    between atoms: C_4  and  N_8
REMARK    3  A    between atoms: S_6  and  C_9
REMARK    4  A    between atoms: N_8  and  C_13
REMARK    5  A    between atoms: N_8  and  C_21
REMARK    6  A    between atoms: C_9  and  C_13
REMARK    7  A    between atoms: C_12  and  C_14
REMARK    8  A    between atoms: C_14  and  C_19
REMARK    9  A    between atoms: C_14  and  C_22
REMARK                            x       y       z     vdW  Elec       q    Type
REMARK                         _______ _______ _______ _____ _____    ______ ____
ROOT
ATOM      1  C   UNL     1       2.562   0.825   0.000  0.00  0.00    +0.149 A 
ATOM      2  N   UNL     1       1.779   1.083   0.000  0.00  0.00    -0.219 NA
ATOM      3  C   UNL     1       1.292   0.412   0.000  0.00  0.00    +0.180 A 
ATOM      4  N   UNL     1       1.779  -0.254   0.000  0.00  0.00    -0.294 N 
ATOM      5  C   UNL     1       3.275   1.238   0.000  0.00  0.00    +0.154 A 
ATOM      6  N   UNL     1       3.992   0.825   0.000  0.00  0.00    -0.207 NA
ATOM      7  C   UNL     1       3.992   0.000   0.000  0.00  0.00    +0.201 A 
ATOM      8  N   UNL     1       3.275  -0.412   0.000  0.00  0.00    -0.205 NA
ATOM      9  C   UNL     1       2.562   0.000   0.000  0.00  0.00    +0.167 A 
ENDROOT
BRANCH   4  10
ATOM     10  C   UNL     1       1.521  -1.038   0.000  0.00  0.00    +0.112 C 
BRANCH  10  11
ATOM     11  C   UNL     1       2.075  -1.650   0.000  0.00  0.00    +0.058 C 
BRANCH  11  12
ATOM     12  C   UNL     1       1.821  -2.433   0.000  0.00  0.00    +0.037 C 
ATOM     13  C   UNL     1       2.304  -3.104   0.000  0.00  0.00    +0.035 C 
ATOM     14  C   UNL     1       1.821  -3.771   0.000  0.00  0.00    +0.142 C 
ATOM     15  O   UNL     1       1.033  -3.517   0.000  0.00  0.00    -0.354 OA
ATOM     16  C   UNL     1       1.033  -2.692   0.000  0.00  0.00    +0.142 C 
ENDBRANCH  11  12
BRANCH  11  17
ATOM     17  C   UNL     1       2.883  -1.479   0.000  0.00  0.00    +0.184 C 
ATOM     18  O   UNL     1       3.433  -2.092   0.000  0.00  0.00    -0.220 OA
ENDBRANCH  11  17
ENDBRANCH  10  11
ENDBRANCH   4  10
BRANCH   5  19
ATOM     19  N   UNL     1       3.275   2.062   0.000  0.00  0.00    -0.292 N 
BRANCH  19  20
ATOM     20  C   UNL     1       2.562   2.475   0.000  0.00  0.00    +0.098 C 
ATOM     21  C   UNL     1       2.562   3.300   0.000  0.00  0.00    +0.023 C 
BRANCH  20  22
ATOM     22  C   UNL     1       1.850   2.062   0.000  0.00  0.00    +0.170 C 
BRANCH  22  23
ATOM     23  S   UNL     1       1.133   2.475   0.000  0.00  0.00    -0.007 S 
ATOM     24  C   UNL     1       1.546   3.192   0.000  0.00  0.00    +0.176 C 
ATOM     25  O   UNL     1       0.421   2.892   0.000  0.00  0.00    -0.173 OA
ATOM     26  O   UNL     1       0.721   1.762   0.000  0.00  0.00    -0.173 OA
ENDBRANCH  22  23
ENDBRANCH  20  22
ENDBRANCH  19  20
BRANCH  19  27
ATOM     27  C   UNL     1       3.992   2.475   0.000  0.00  0.00    +0.092 C 
ATOM     28  C   UNL     1       4.704   2.062   0.000  0.00  0.00    +0.023 C 
ENDBRANCH  19  27
ENDBRANCH   5  19
TORSDOF 9
