REMARK  Name = 
REMARK  2 active torsions:
REMARK  status: ('A' for Active; 'I' for Inactive)
REMARK    1  A    between atoms: C_5  and  C_7
REMARK    2  A    between atoms: N_9  and  C_10
REMARK                            x       y       z     vdW  Elec       q    Type
REMARK                         _______ _______ _______ _____ _____    ______ ____
ROOT
ATOM      1  C   UNL     1       0.531  -4.412   0.000  0.00  0.00    +0.273 C 
ATOM      2  N   UNL     1       0.867  -5.166   0.000  0.00  0.00    -0.175 NA
ATOM      3  O   UNL     1      -0.289  -4.326   0.000  0.00  0.00    -0.270 OA
ENDROOT
BRANCH   2   4
ATOM      4  C   UNL     1       0.382  -5.833   0.000  0.00  0.00    +0.104 A 
ATOM      5  C   UNL     1      -0.438  -5.747   0.000  0.00  0.00    +0.087 A 
ATOM      6 CL   UNL     1      -0.774  -4.993   0.000  0.00  0.00    -0.080 Cl
ATOM      7  C   UNL     1      -0.923  -6.414   0.000  0.00  0.00    +0.089 A 
ATOM      8 CL   UNL     1      -1.744  -6.328   0.000  0.00  0.00    -0.080 Cl
ATOM      9  C   UNL     1      -0.588  -7.168   0.000  0.00  0.00    +0.111 A 
ATOM     10  N   UNL     1       0.233  -7.254   0.000  0.00  0.00    -0.240 NA
ATOM     11  C   UNL     1       0.718  -6.587   0.000  0.00  0.00    +0.116 A 
ENDBRANCH   2   4
BRANCH   1  15
ATOM     12  C   UNL     1       1.429  -1.650   0.000  0.00  0.00    +0.032 C 
ATOM     13  C   UNL     1       1.429  -2.475   0.000  0.00  0.00    +0.116 C 
ATOM     14  O   UNL     1       0.761  -2.960   0.000  0.00  0.00    -0.349 OA
ATOM     15  C   UNL     1       1.016  -3.744   0.000  0.00  0.00    +0.193 C 
ATOM     16  C   UNL     1       1.841  -3.744   0.000  0.00  0.00    +0.042 C 
ATOM     17  C   UNL     1       2.096  -2.960   0.000  0.00  0.00    +0.033 C 
ENDBRANCH   1  15
TORSDOF 2
