REMARK  Name = 
REMARK  4 active torsions:
REMARK  status: ('A' for Active; 'I' for Inactive)
REMARK    1  A    between atoms: O_2  and  C_3
REMARK    2  A    between atoms: C_3  and  C_4
REMARK    3  A    between atoms: C_4  and  N_5
REMARK    4  A    between atoms: N_8  and  C_9
REMARK                            x       y       z     vdW  Elec       q    Type
REMARK                         _______ _______ _______ _____ _____    ______ ____
ROOT
ATOM      1  N   UNL     1       1.429  -2.475   0.000  0.00  0.00    -0.184 NA
ATOM      2  C   UNL     1       2.143  -2.888   0.000  0.00  0.00    +0.344 C 
ATOM      3  N   UNL     1       2.858  -2.475   0.000  0.00  0.00    -0.160 NA
ATOM      4  O   UNL     1       2.143  -3.712   0.000  0.00  0.00    -0.249 OA
ENDROOT
BRANCH   3   5
ATOM      5  C   UNL     1       3.572  -2.888   0.000  0.00  0.00    +0.088 A 
ATOM      6  C   UNL     1       3.572  -3.712   0.000  0.00  0.00    +0.087 A 
ATOM      7 CL   UNL     1       2.858  -4.125   0.000  0.00  0.00    -0.080 Cl
ATOM      8  C   UNL     1       4.287  -4.125   0.000  0.00  0.00    +0.071 A 
ATOM      9  C   UNL     1       4.287  -4.950   0.000  0.00  0.00    +0.053 C 
ATOM     10  N   UNL     1       5.001  -3.712   0.000  0.00  0.00    -0.247 NA
ATOM     11  C   UNL     1       5.001  -2.888   0.000  0.00  0.00    +0.100 A 
ATOM     12  C   UNL     1       4.287  -2.475   0.000  0.00  0.00    +0.038 A 
ENDBRANCH   3   5
BRANCH   1  13
ATOM     13  C   UNL     1       1.429  -1.650   0.000  0.00  0.00    +0.144 C 
BRANCH  13  14
ATOM     14  C   UNL     1       2.143  -1.238   0.000  0.00  0.00    +0.113 C 
ATOM     15  C   UNL     1       2.556  -1.952   0.000  0.00  0.00    +0.029 C 
ATOM     16  C   UNL     1       3.270  -1.540   0.000  0.00  0.00    +0.005 C 
ATOM     17  C   UNL     1       2.858  -0.825   0.000  0.00  0.00    +0.029 C 
BRANCH  14  19
ATOM     18  C   UNL     1       0.906  -0.523   0.000  0.00  0.00    +0.174 C 
ATOM     19  O   UNL     1       1.731  -0.523   0.000  0.00  0.00    -0.354 OA
ENDBRANCH  14  19
ENDBRANCH  13  14
ENDBRANCH   1  13
TORSDOF 4
