REMARK  Name = 
REMARK  5 active torsions:
REMARK  status: ('A' for Active; 'I' for Inactive)
REMARK    1  A    between atoms: C_3  and  C_4
REMARK    2  A    between atoms: C_4  and  C_5
REMARK    3  A    between atoms: C_5  and  N_6
REMARK    4  A    between atoms: N_6  and  C_7
REMARK    5  A    between atoms: C_7  and  C_8
REMARK                            x       y       z     vdW  Elec       q    Type
REMARK                         _______ _______ _______ _____ _____    ______ ____
ROOT
ATOM      1  C   UNL     1       0.000  -2.475   0.000  0.00  0.00    +0.093 C 
ENDROOT
BRANCH   1   2
ATOM      2  C   UNL     1      -0.715  -2.062   0.000  0.00  0.00    +0.048 C 
BRANCH   2   9
ATOM      3  C   UNL     1      -2.354  -1.333   0.000  0.00  0.00    +0.051 C 
ATOM      4  C   UNL     1      -2.183  -2.139   0.000  0.00  0.00    +0.054 A 
ATOM      5  N   UNL     1      -2.735  -2.752   0.000  0.00  0.00    -0.253 N 
ATOM      6  C   UNL     1      -3.555  -2.666   0.000  0.00  0.00    +0.153 C 
ATOM      7  N   UNL     1      -2.322  -3.467   0.000  0.00  0.00    -0.168 NA
ATOM      8  C   UNL     1      -1.515  -3.296   0.000  0.00  0.00    +0.117 A 
ATOM      9  C   UNL     1      -1.429  -2.475   0.000  0.00  0.00    +0.013 A 
ENDBRANCH   2   9
ENDBRANCH   1   2
BRANCH   1  10
ATOM     10  N   UNL     1       0.715  -2.062   0.000  0.00  0.00    -0.218 NA
BRANCH  10  11
ATOM     11  C   UNL     1       1.429  -2.475   0.000  0.00  0.00    +0.089 C 
BRANCH  11  12
ATOM     12  C   UNL     1       2.143  -2.062   0.000  0.00  0.00    +0.022 C 
ATOM     13  C   UNL     1       2.858  -2.475   0.000  0.00  0.00    +0.027 C 
ATOM     14  C   UNL     1       3.572  -2.062   0.000  0.00  0.00    -0.031 C 
ATOM     15  C   UNL     1       3.572  -1.238   0.000  0.00  0.00    -0.031 C 
ATOM     16  C   UNL     1       2.858  -0.825   0.000  0.00  0.00    +0.026 C 
ATOM     17  C   UNL     1       2.143  -1.238   0.000  0.00  0.00    +0.006 C 
ENDBRANCH  11  12
ENDBRANCH  10  11
ENDBRANCH   1  10
TORSDOF 5
