REMARK  Name = 
REMARK  6 active torsions:
REMARK  status: ('A' for Active; 'I' for Inactive)
REMARK    1  A    between atoms: N_1  and  C_10
REMARK    2  A    between atoms: N_2  and  C_14
REMARK    3  A    between atoms: C_9  and  C_10
REMARK    4  A    between atoms: C_11  and  C_21
REMARK    5  A    between atoms: C_12  and  C_16
REMARK    6  A    between atoms: C_24  and  O_27
REMARK                            x       y       z     vdW  Elec       q    Type
REMARK                         _______ _______ _______ _____ _____    ______ ____
ROOT
ATOM      1  C   UNL     1      -0.742  -1.467   0.000  0.00  0.00    +0.268 C 
ATOM      2  O   UNL     1      -1.355  -2.017   0.000  0.00  0.00    -0.271 OA
ATOM      3  N   UNL     1       0.046  -1.721   0.000  0.00  0.00    -0.177 N 
ATOM      4  C   UNL     1       0.713  -1.238   0.000  0.00  0.00    +0.127 C 
ATOM      5  C   UNL     1       1.380  -1.721   0.000  0.00  0.00    +0.074 C 
ATOM      6  C   UNL     1       1.125  -2.505   0.000  0.00  0.00    +0.079 C 
ATOM      7  N   UNL     1       0.300  -2.505   0.000  0.00  0.00    -0.180 NA
ENDROOT
BRANCH   4   8
ATOM      8  C   UNL     1       0.713  -0.413   0.000  0.00  0.00    -0.002 A 
ATOM      9  C   UNL     1       0.000   0.000   0.000  0.00  0.00    +0.001 A 
ATOM     10  C   UNL     1       0.000   0.825   0.000  0.00  0.00    +0.037 A 
ATOM     11  C   UNL     1       0.713   1.238   0.000  0.00  0.00    +0.139 A 
ATOM     12  C   UNL     1       1.425   0.825   0.000  0.00  0.00    +0.037 A 
ATOM     13  C   UNL     1       1.425   0.000   0.000  0.00  0.00    +0.001 A 
BRANCH  11  14
ATOM     14  O   UNL     1       0.713   2.063   0.000  0.00  0.00    -0.471 OA
ATOM     15  C   UNL     1       0.000   2.476   0.000  0.00  0.00    +0.252 C 
ENDBRANCH  11  14
ENDBRANCH   4   8
BRANCH   6  16
ATOM     16  C   UNL     1       1.609  -3.172   0.000  0.00  0.00    +0.015 A 
ATOM     17  C   UNL     1       1.275  -3.926   0.000  0.00  0.00    +0.001 A 
ATOM     18  C   UNL     1       1.759  -4.593   0.000  0.00  0.00    +0.000 A 
ATOM     19  C   UNL     1       2.580  -4.510   0.000  0.00  0.00    +0.000 A 
ATOM     20  C   UNL     1       2.917  -3.755   0.000  0.00  0.00    +0.000 A 
ATOM     21  C   UNL     1       2.430  -3.088   0.000  0.00  0.00    +0.001 A 
ENDBRANCH   6  16
BRANCH   1  22
ATOM     22  C   UNL     1      -0.913  -0.658   0.000  0.00  0.00    +0.200 C 
BRANCH  22  23
ATOM     23  N   UNL     1      -1.696  -0.404   0.000  0.00  0.00    -0.238 N 
ATOM     24  C   UNL     1      -2.309  -0.955   0.000  0.00  0.00    +0.294 A 
ATOM     25  O   UNL     1      -2.138  -1.763   0.000  0.00  0.00    -0.264 OA
ATOM     26  C   UNL     1      -3.092  -0.700   0.000  0.00  0.00    +0.213 A 
ATOM     27  C   UNL     1      -3.268   0.108   0.000  0.00  0.00    +0.116 A 
ATOM     28  N   UNL     1      -2.651   0.658   0.000  0.00  0.00    -0.255 N 
ATOM     29  F   UNL     1      -3.709  -1.254   0.000  0.00  0.00    -0.198 F 
ATOM     30  C   UNL     1      -1.867   0.404   0.000  0.00  0.00    +0.336 A 
ATOM     31  O   UNL     1      -1.254   0.955   0.000  0.00  0.00    -0.246 OA
BRANCH  28  32
ATOM     32  C   UNL     1      -2.826   1.467   0.000  0.00  0.00    +0.208 C 
ATOM     33  C   UNL     1      -3.580   1.800   0.000  0.00  0.00    +0.057 C 
ATOM     34  C   UNL     1      -3.493   2.622   0.000  0.00  0.00    +0.037 C 
ATOM     35  C   UNL     1      -2.684   2.792   0.000  0.00  0.00    +0.144 C 
ATOM     36  O   UNL     1      -2.271   2.080   0.000  0.00  0.00    -0.335 OA
ENDBRANCH  28  32
ENDBRANCH  22  23
ENDBRANCH   1  22
TORSDOF 6
