REMARK  Name = 
REMARK  4 active torsions:
REMARK  status: ('A' for Active; 'I' for Inactive)
REMARK    1  A    between atoms: C_4  and  C_5
REMARK    2  A    between atoms: C_5  and  C_6
REMARK    3  A    between atoms: C_6  and  N_7
REMARK    4  A    between atoms: N_10  and  C_11
REMARK                            x       y       z     vdW  Elec       q    Type
REMARK                         _______ _______ _______ _____ _____    ______ ____
ROOT
ATOM      1  N   UNL     1       4.592  -2.952   0.000  0.00  0.00    -0.187 NA
ATOM      2  C   UNL     1       5.307  -3.364   0.000  0.00  0.00    +0.339 C 
ATOM      3  N   UNL     1       6.021  -2.952   0.000  0.00  0.00    -0.189 NA
ATOM      4  O   UNL     1       5.307  -4.189   0.000  0.00  0.00    -0.249 OA
ENDROOT
BRANCH   3   5
ATOM      5  C   UNL     1       6.736  -3.364   0.000  0.00  0.00    +0.097 C 
ATOM      6  C   UNL     1       6.822  -4.185   0.000  0.00  0.00    +0.022 C 
ATOM      7  C   UNL     1       7.629  -4.356   0.000  0.00  0.00    +0.002 C 
ATOM      8  C   UNL     1       8.041  -3.642   0.000  0.00  0.00    +0.002 C 
ATOM      9  C   UNL     1       7.489  -3.029   0.000  0.00  0.00    +0.022 C 
ENDBRANCH   3   5
BRANCH   1  10
ATOM     10  C   UNL     1       3.878  -3.364   0.000  0.00  0.00    +0.123 C 
BRANCH  10  11
ATOM     11  C   UNL     1       3.163  -2.952   0.000  0.00  0.00    +0.070 C 
BRANCH  11  16
ATOM     12  C   UNL     1       0.323  -3.556   0.000  0.00  0.00    +0.059 C 
ATOM     13  C   UNL     1       1.143  -3.642   0.000  0.00  0.00    +0.088 A 
ATOM     14  S   UNL     1       1.556  -4.356   0.000  0.00  0.00    -0.071 S 
ATOM     15  C   UNL     1       2.363  -4.185   0.000  0.00  0.00    +0.051 A 
ATOM     16  C   UNL     1       2.449  -3.364   0.000  0.00  0.00    +0.067 A 
ATOM     17  N   UNL     1       1.695  -3.029   0.000  0.00  0.00    -0.247 NA
ENDBRANCH  11  16
ENDBRANCH  10  11
ENDBRANCH   1  10
TORSDOF 4
