REMARK  Name = 
REMARK  6 active torsions:
REMARK  status: ('A' for Active; 'I' for Inactive)
REMARK    1  A    between atoms: N_2  and  C_9
REMARK    2  A    between atoms: C_4  and  C_7
REMARK    3  A    between atoms: C_7  and  C_11
REMARK    4  A    between atoms: C_9  and  O_12
REMARK    5  A    between atoms: O_12  and  C_15
REMARK    6  A    between atoms: C_14  and  C_15
REMARK                            x       y       z     vdW  Elec       q    Type
REMARK                         _______ _______ _______ _____ _____    ______ ____
ROOT
ATOM      1  N   UNL     1       5.713  -6.600   0.000  0.00  0.00    -0.153 NA
ATOM      2  C   UNL     1       6.429  -6.188   0.000  0.00  0.00    +0.281 A 
ATOM      3  O   UNL     1       7.142  -6.600   0.000  0.00  0.00    -0.265 OA
ATOM      4  C   UNL     1       6.429  -5.362   0.000  0.00  0.00    +0.057 A 
ATOM      5  C   UNL     1       5.713  -4.950   0.000  0.00  0.00    +0.083 A 
ATOM      6  N   UNL     1       5.000  -5.362   0.000  0.00  0.00    -0.252 N 
ATOM      7  C   UNL     1       5.000  -6.188   0.000  0.00  0.00    +0.355 A 
ATOM      8  O   UNL     1       4.283  -6.600   0.000  0.00  0.00    -0.244 OA
ENDROOT
BRANCH   6   9
ATOM      9  C   UNL     1       4.283  -4.950   0.000  0.00  0.00    +0.259 C 
BRANCH   9  10
ATOM     10  O   UNL     1       3.571  -5.362   0.000  0.00  0.00    -0.329 OA
BRANCH  10  11
ATOM     11  C   UNL     1       2.854  -4.950   0.000  0.00  0.00    +0.180 C 
BRANCH  11  12
ATOM     12  C   UNL     1       2.142  -5.362   0.000  0.00  0.00    +0.214 C 
ATOM     13  O   UNL     1       1.425  -4.950   0.000  0.00  0.00    -0.218 OA
ENDBRANCH  11  12
ENDBRANCH  10  11
ENDBRANCH   9  10
ENDBRANCH   6   9
BRANCH   4  14
ATOM     14  C   UNL     1       7.142  -4.950   0.000  0.00  0.00    +0.059 C 
BRANCH  14  15
ATOM     15  C   UNL     1       7.858  -5.362   0.000  0.00  0.00    -0.018 A 
ATOM     16  C   UNL     1       8.571  -4.950   0.000  0.00  0.00    -0.004 A 
ATOM     17  C   UNL     1       9.287  -5.362   0.000  0.00  0.00    -0.000 A 
ATOM     18  C   UNL     1       9.287  -6.188   0.000  0.00  0.00    -0.000 A 
ATOM     19  C   UNL     1       8.571  -6.600   0.000  0.00  0.00    -0.000 A 
ATOM     20  C   UNL     1       7.858  -6.188   0.000  0.00  0.00    -0.004 A 
ENDBRANCH  14  15
ENDBRANCH   4  14
TORSDOF 6
