REMARK  Name = 
REMARK  3 active torsions:
REMARK  status: ('A' for Active; 'I' for Inactive)
REMARK    1  A    between atoms: C_2  and  N_3
REMARK    2  A    between atoms: C_8  and  N_9
REMARK    3  A    between atoms: N_12  and  C_13
REMARK                            x       y       z     vdW  Elec       q    Type
REMARK                         _______ _______ _______ _____ _____    ______ ____
ROOT
ATOM      1  N   UNL     1       2.294   2.723   0.000  0.00  0.00    -0.156 NA
ATOM      2  C   UNL     1       2.567   1.944   0.000  0.00  0.00    +0.344 C 
ATOM      3  N   UNL     1       3.377   1.792   0.000  0.00  0.00    -0.189 NA
ATOM      4  O   UNL     1       2.029   1.319   0.000  0.00  0.00    -0.249 OA
ENDROOT
BRANCH   3   5
ATOM      5  C   UNL     1       3.650   1.013   0.000  0.00  0.00    +0.101 C 
ATOM      6  C   UNL     1       3.292   0.269   0.000  0.00  0.00    +0.044 C 
ATOM      7  C   UNL     1       2.614   0.739   0.000  0.00  0.00    +0.004 C 
ATOM      8  C   UNL     1       1.958   0.239   0.000  0.00  0.00    +0.000 C 
ATOM      9  C   UNL     1       2.231  -0.540   0.000  0.00  0.00    +0.000 C 
ATOM     10  C   UNL     1       3.055  -0.521   0.000  0.00  0.00    +0.004 C 
ATOM     11  C   UNL     1       4.036  -0.088   0.000  0.00  0.00    +0.118 C 
ATOM     12  O   UNL     1       4.632  -0.658   0.000  0.00  0.00    -0.356 OA
ATOM     13  C   UNL     1       5.359  -0.267   0.000  0.00  0.00    +0.142 C 
ATOM     14  C   UNL     1       5.211   0.545   0.000  0.00  0.00    +0.036 C 
ATOM     15  C   UNL     1       4.394   0.655   0.000  0.00  0.00    +0.050 C 
ENDBRANCH   3   5
BRANCH   1  18
ATOM     16  N   UNL     1       0.135   2.404   0.000  0.00  0.00    -0.324 N 
ATOM     17  C   UNL     1       0.945   2.251   0.000  0.00  0.00    +0.096 A 
ATOM     18  C   UNL     1       1.483   2.876   0.000  0.00  0.00    +0.131 A 
ATOM     19  C   UNL     1       1.210   3.655   0.000  0.00  0.00    +0.214 A 
ATOM     20  O   UNL     1       1.748   4.280   0.000  0.00  0.00    -0.285 OA
ATOM     21  C   UNL     1       0.400   3.808   0.000  0.00  0.00    +0.062 A 
ATOM     22  C   UNL     1      -0.138   3.182   0.000  0.00  0.00    +0.079 A 
BRANCH  16  24
ATOM     23  C   UNL     1      -1.214   1.931   0.000  0.00  0.00    +0.026 C 
ATOM     24  C   UNL     1      -0.403   1.778   0.000  0.00  0.00    +0.106 C 
ENDBRANCH  16  24
ENDBRANCH   1  18
TORSDOF 3
