REMARK  Name = 
REMARK  3 active torsions:
REMARK  status: ('A' for Active; 'I' for Inactive)
REMARK    1  A    between atoms: C_5  and  C_8
REMARK    2  A    between atoms: N_16  and  C_17
REMARK    3  A    between atoms: C_17  and  C_18
REMARK                            x       y       z     vdW  Elec       q    Type
REMARK                         _______ _______ _______ _____ _____    ______ ____
ROOT
ATOM      1  C   UNL     1       0.654  -0.698   0.000  0.00  0.00    +0.144 A 
ATOM      2  N   UNL     1       1.139  -1.365   0.000  0.00  0.00    -0.309 N 
ATOM      3  C   UNL     1       1.923  -1.110   0.000  0.00  0.00    +0.079 A 
ATOM      4  C   UNL     1       1.923  -0.285   0.000  0.00  0.00    +0.099 A 
ATOM      5  C   UNL     1       2.638   0.127   0.000  0.00  0.00    +0.021 A 
ATOM      6  C   UNL     1       3.352  -0.285   0.000  0.00  0.00    +0.002 A 
ATOM      7  C   UNL     1       3.352  -1.110   0.000  0.00  0.00    +0.002 A 
ATOM      8  C   UNL     1       2.638  -1.523   0.000  0.00  0.00    +0.019 A 
ATOM      9  N   UNL     1       1.139  -0.030   0.000  0.00  0.00    -0.227 NA
ENDROOT
BRANCH   1  14
ATOM     10  N   UNL     1      -2.646  -0.698   0.000  0.00  0.00    -0.128 NA
ATOM     11  C   UNL     1      -1.821  -0.698   0.000  0.00  0.00    +0.089 A 
ATOM     12  C   UNL     1      -1.409  -1.412   0.000  0.00  0.00    +0.018 A 
ATOM     13  C   UNL     1      -0.584  -1.412   0.000  0.00  0.00    +0.004 A 
ATOM     14  C   UNL     1      -0.171  -0.698   0.000  0.00  0.00    +0.034 A 
ATOM     15  C   UNL     1      -0.584   0.017   0.000  0.00  0.00    +0.004 A 
ATOM     16  C   UNL     1      -1.409   0.017   0.000  0.00  0.00    +0.018 A 
ENDBRANCH   1  14
BRANCH   2  17
ATOM     17  C   UNL     1       0.884  -2.150   0.000  0.00  0.00    +0.143 C 
BRANCH  17  18
ATOM     18  C   UNL     1       1.436  -2.763   0.000  0.00  0.00    +0.206 C 
ATOM     19  O   UNL     1       1.181  -3.548   0.000  0.00  0.00    -0.218 OA
ENDBRANCH  17  18
ENDBRANCH   2  17
TORSDOF 3
