REMARK  Name = 
REMARK  5 active torsions:
REMARK  status: ('A' for Active; 'I' for Inactive)
REMARK    1  A    between atoms: C_8  and  C_9
REMARK    2  A    between atoms: C_9  and  C_10
REMARK    3  A    between atoms: N_12  and  C_13
REMARK    4  A    between atoms: C_13  and  C_14
REMARK    5  A    between atoms: C_14  and  N_15
REMARK                            x       y       z     vdW  Elec       q    Type
REMARK                         _______ _______ _______ _____ _____    ______ ____
ROOT
ATOM      1  C   UNL     1       2.858  -4.125   0.000  0.00  0.00    +0.246 C 
ATOM      2  N   UNL     1       3.572  -3.712   0.000  0.00  0.00    -0.204 NA
ATOM      3  O   UNL     1       2.858  -4.950   0.000  0.00  0.00    -0.273 OA
ENDROOT
BRANCH   1   4
ATOM      4  C   UNL     1       2.143  -3.712   0.000  0.00  0.00    +0.115 C 
BRANCH   4   7
ATOM      5  C   UNL     1       1.956  -5.497   0.000  0.00  0.00    +0.054 C 
ATOM      6  C   UNL     1       1.343  -4.946   0.000  0.00  0.00    +0.077 A 
ATOM      7  C   UNL     1       1.429  -4.125   0.000  0.00  0.00    +0.015 A 
ATOM      8  C   UNL     1       0.675  -3.789   0.000  0.00  0.00    +0.054 A 
ATOM      9  C   UNL     1       0.504  -2.982   0.000  0.00  0.00    +0.051 C 
ATOM     10  N   UNL     1       0.123  -4.402   0.000  0.00  0.00    -0.253 N 
ATOM     11  C   UNL     1      -0.697  -4.316   0.000  0.00  0.00    +0.153 C 
ATOM     12  N   UNL     1       0.536  -5.117   0.000  0.00  0.00    -0.174 NA
ENDBRANCH   4   7
ENDBRANCH   1   4
BRANCH   2  13
ATOM     13  C   UNL     1       4.287  -4.125   0.000  0.00  0.00    +0.132 C 
BRANCH  13  14
ATOM     14  C   UNL     1       5.001  -3.712   0.000  0.00  0.00    +0.096 C 
BRANCH  14  15
ATOM     15  N   UNL     1       5.716  -4.125   0.000  0.00  0.00    -0.271 NA
ATOM     16  C   UNL     1       5.716  -4.950   0.000  0.00  0.00    +0.072 C 
ATOM     17  C   UNL     1       6.430  -5.362   0.000  0.00  0.00    +0.017 C 
ATOM     18  C   UNL     1       7.145  -4.950   0.000  0.00  0.00    +0.003 C 
ATOM     19  C   UNL     1       7.145  -4.125   0.000  0.00  0.00    +0.017 C 
ATOM     20  C   UNL     1       6.430  -3.712   0.000  0.00  0.00    +0.072 C 
ENDBRANCH  14  15
ENDBRANCH  13  14
ENDBRANCH   2  13
TORSDOF 5
