REMARK  Name = 
REMARK  5 active torsions:
REMARK  status: ('A' for Active; 'I' for Inactive)
REMARK    1  A    between atoms: C_1  and  C_3
REMARK    2  A    between atoms: N_2  and  C_7
REMARK    3  A    between atoms: C_4  and  C_7
REMARK    4  A    between atoms: C_8  and  O_9
REMARK    5  A    between atoms: O_9  and  C_17
REMARK                            x       y       z     vdW  Elec       q    Type
REMARK                         _______ _______ _______ _____ _____    ______ ____
ROOT
ATOM      1  C   UNL     1      -0.871  -3.559   0.000  0.00  0.00    +0.169 C 
ATOM      2  C   UNL     1      -1.679  -3.734   0.000  0.00  0.00    +0.061 C 
ATOM      3  C   UNL     1      -1.934  -4.517   0.000  0.00  0.00    +0.076 C 
ATOM      4  N   UNL     1      -1.383  -5.130   0.000  0.00  0.00    -0.270 NA
ATOM      5  C   UNL     1      -0.575  -4.959   0.000  0.00  0.00    +0.076 C 
ATOM      6  C   UNL     1      -0.321  -4.176   0.000  0.00  0.00    +0.061 C 
ENDROOT
BRANCH   1   7
ATOM      7  O   UNL     1      -0.617  -2.775   0.000  0.00  0.00    -0.479 OA
BRANCH   7  12
ATOM      8  C   UNL     1       1.550  -3.046   0.000  0.00  0.00    +0.074 A 
ATOM      9  C   UNL     1       1.804  -2.263   0.000  0.00  0.00    +0.004 A 
ATOM     10  C   UNL     1       1.250  -1.650   0.000  0.00  0.00    +0.003 A 
ATOM     11  C   UNL     1       0.446  -1.821   0.000  0.00  0.00    +0.037 A 
ATOM     12  C   UNL     1       0.188  -2.605   0.000  0.00  0.00    +0.138 A 
ATOM     13  C   UNL     1       0.742  -3.217   0.000  0.00  0.00    +0.041 A 
BRANCH   8  14
ATOM     14  C   UNL     1       2.100  -3.659   0.000  0.00  0.00    +0.419 C 
ATOM     15  F   UNL     1       2.655  -4.271   0.000  0.00  0.00    -0.166 F 
ATOM     16  F   UNL     1       1.488  -4.213   0.000  0.00  0.00    -0.166 F 
ATOM     17  F   UNL     1       2.713  -3.109   0.000  0.00  0.00    -0.166 F 
ENDBRANCH   8  14
ENDBRANCH   7  12
ENDBRANCH   1   7
BRANCH   4  18
ATOM     18  C   UNL     1      -1.638  -5.913   0.000  0.00  0.00    +0.104 C 
BRANCH  18  19
ATOM     19  C   UNL     1      -1.083  -6.530   0.000  0.00  0.00    +0.159 C 
ATOM     20  C   UNL     1      -1.754  -7.013   0.000  0.00  0.00    +0.120 C 
ATOM     21  N   UNL     1      -1.496  -7.797   0.000  0.00  0.00    -0.215 NA
ATOM     22  C   UNL     1      -0.671  -7.797   0.000  0.00  0.00    +0.091 C 
ATOM     23  O   UNL     1      -0.533  -5.913   0.000  0.00  0.00    -0.223 OA
ATOM     24  C   UNL     1      -0.417  -7.013   0.000  0.00  0.00    +0.052 C 
ENDBRANCH  18  19
ENDBRANCH   4  18
TORSDOF 5
REMARK  Name = 
REMARK  5 active torsions:
REMARK  status: ('A' for Active; 'I' for Inactive)
REMARK    1  A    between atoms: C_1  and  C_3
REMARK    2  A    between atoms: N_2  and  C_7
REMARK    3  A    between atoms: C_4  and  C_7
REMARK    4  A    between atoms: C_8  and  O_9
REMARK    5  A    between atoms: O_9  and  C_17
REMARK                            x       y       z     vdW  Elec       q    Type
REMARK                         _______ _______ _______ _____ _____    ______ ____
ROOT
ATOM      1 CL   UNL     1       0.000   0.000   0.000  0.00  0.00    +0.000 Cl
ENDROOT
TORSDOF 0
REMARK  Name = 
REMARK  5 active torsions:
REMARK  status: ('A' for Active; 'I' for Inactive)
REMARK    1  A    between atoms: C_1  and  C_3
REMARK    2  A    between atoms: N_2  and  C_7
REMARK    3  A    between atoms: C_4  and  C_7
REMARK    4  A    between atoms: C_8  and  O_9
REMARK    5  A    between atoms: O_9  and  C_17
REMARK                            x       y       z     vdW  Elec       q    Type
REMARK                         _______ _______ _______ _____ _____    ______ ____
ROOT
ATOM      1 CL   UNL     1       2.000   0.000   0.000  0.00  0.00    +0.000 Cl
ENDROOT
TORSDOF 0
