REMARK  Name = 
REMARK  7 active torsions:
REMARK  status: ('A' for Active; 'I' for Inactive)
REMARK    1  A    between atoms: N_2  and  C_10
REMARK    2  A    between atoms: C_5  and  N_7
REMARK    3  A    between atoms: N_7  and  C_13
REMARK    4  A    between atoms: N_7  and  C_19
REMARK    5  A    between atoms: C_10  and  C_11
REMARK    6  A    between atoms: C_13  and  C_18
REMARK    7  A    between atoms: C_19  and  C_22
REMARK                            x       y       z     vdW  Elec       q    Type
REMARK                         _______ _______ _______ _____ _____    ______ ____
ROOT
ATOM      1  C   UNL     1       2.562   0.825   0.000  0.00  0.00    +0.149 A 
ATOM      2  C   UNL     1       3.275   1.238   0.000  0.00  0.00    +0.154 A 
ATOM      3  N   UNL     1       3.992   0.825   0.000  0.00  0.00    -0.207 NA
ATOM      4  C   UNL     1       3.992   0.000   0.000  0.00  0.00    +0.201 A 
ATOM      5  N   UNL     1       3.275  -0.412   0.000  0.00  0.00    -0.205 NA
ATOM      6  N   UNL     1       1.779   1.083   0.000  0.00  0.00    -0.219 NA
ATOM      7  C   UNL     1       1.292   0.412   0.000  0.00  0.00    +0.180 A 
ATOM      8  N   UNL     1       1.779  -0.254   0.000  0.00  0.00    -0.292 N 
ATOM      9  C   UNL     1       2.562   0.000   0.000  0.00  0.00    +0.167 A 
ENDROOT
BRANCH   2  10
ATOM     10  N   UNL     1       3.275   2.062   0.000  0.00  0.00    -0.289 N 
BRANCH  10  11
ATOM     11  C   UNL     1       2.562   2.475   0.000  0.00  0.00    +0.128 C 
BRANCH  11  12
ATOM     12  C   UNL     1       1.850   2.062   0.000  0.00  0.00    +0.203 C 
ATOM     13  O   UNL     1       1.133   2.475   0.000  0.00  0.00    -0.219 OA
ENDBRANCH  11  12
ENDBRANCH  10  11
BRANCH  10  14
ATOM     14  C   UNL     1       3.992   2.475   0.000  0.00  0.00    +0.092 C 
BRANCH  14  15
ATOM     15  C   UNL     1       3.992   3.300   0.000  0.00  0.00    +0.020 C 
ATOM     16  C   UNL     1       4.704   3.712   0.000  0.00  0.00    +0.002 C 
ATOM     17  C   UNL     1       4.704   4.533   0.000  0.00  0.00    +0.000 C 
ATOM     18  C   UNL     1       3.992   4.950   0.000  0.00  0.00    +0.000 C 
ATOM     19  C   UNL     1       3.275   4.533   0.000  0.00  0.00    +0.000 C 
ATOM     20  C   UNL     1       3.275   3.712   0.000  0.00  0.00    +0.002 C 
ENDBRANCH  14  15
ENDBRANCH  10  14
ENDBRANCH   2  10
BRANCH   8  21
ATOM     21  C   UNL     1       1.521  -1.038   0.000  0.00  0.00    +0.142 C 
BRANCH  21  22
ATOM     22  C   UNL     1       2.075  -1.650   0.000  0.00  0.00    +0.177 C 
ATOM     23  C   UNL     1       2.487  -2.367   0.000  0.00  0.00    +0.174 C 
ATOM     24  O   UNL     1       3.296  -2.192   0.000  0.00  0.00    -0.351 OA
ATOM     25  C   UNL     1       3.379  -1.375   0.000  0.00  0.00    +0.145 C 
ATOM     26  O   UNL     1       1.408  -2.138   0.000  0.00  0.00    -0.221 OA
ATOM     27  C   UNL     1       2.625  -1.038   0.000  0.00  0.00    +0.067 C 
ENDBRANCH  21  22
ENDBRANCH   8  21
TORSDOF 7
