REMARK  Name = 
REMARK  3 active torsions:
REMARK  status: ('A' for Active; 'I' for Inactive)
REMARK    1  A    between atoms: N_3  and  C_4
REMARK    2  A    between atoms: C_4  and  C_5
REMARK    3  A    between atoms: C_5  and  C_6
REMARK                            x       y       z     vdW  Elec       q    Type
REMARK                         _______ _______ _______ _____ _____    ______ ____
ROOT
ATOM      1  O   UNL     1      -0.715  -0.412   0.000  0.00  0.00    -0.251 OA
ATOM      2  C   UNL     1      -0.715  -1.238   0.000  0.00  0.00    +0.323 C 
ATOM      3  N   UNL     1      -1.429  -1.650   0.000  0.00  0.00    -0.261 N 
ATOM      4  C   UNL     1      -2.143  -1.238   0.000  0.00  0.00    +0.105 C 
ATOM      5  C   UNL     1      -2.858  -1.650   0.000  0.00  0.00    +0.058 C 
ATOM      6  C   UNL     1      -2.858  -0.825   0.000  0.00  0.00    +0.012 C 
ATOM      7  C   UNL     1      -3.572  -0.412   0.000  0.00  0.00    +0.001 C 
ATOM      8  C   UNL     1      -4.287  -0.825   0.000  0.00  0.00    +0.000 C 
ATOM      9  C   UNL     1      -4.287  -1.650   0.000  0.00  0.00    +0.001 C 
ATOM     10  C   UNL     1      -3.572  -2.062   0.000  0.00  0.00    +0.012 C 
ATOM     11  S   UNL     1      -2.858  -2.475   0.000  0.00  0.00    -0.138 S 
ATOM     12  C   UNL     1      -2.143  -2.888   0.000  0.00  0.00    +0.079 C 
ATOM     13  C   UNL     1      -1.429  -2.475   0.000  0.00  0.00    +0.107 C 
ATOM     14  N   UNL     1       0.000  -1.650   0.000  0.00  0.00    -0.188 NA
ENDROOT
BRANCH  14  15
ATOM     15  C   UNL     1       0.715  -1.238   0.000  0.00  0.00    +0.122 C 
BRANCH  15  16
ATOM     16  C   UNL     1       1.429  -1.650   0.000  0.00  0.00    +0.051 C 
BRANCH  16  17
ATOM     17  C   UNL     1       2.143  -1.238   0.000  0.00  0.00    -0.001 A 
ATOM     18  C   UNL     1       2.858  -1.650   0.000  0.00  0.00    +0.095 A 
ATOM     19  N   UNL     1       3.572  -1.238   0.000  0.00  0.00    -0.243 NA
ATOM     20  C   UNL     1       3.572  -0.412   0.000  0.00  0.00    +0.099 A 
ATOM     21  C   UNL     1       2.858   0.000   0.000  0.00  0.00    +0.020 A 
ATOM     22  C   UNL     1       2.143  -0.412   0.000  0.00  0.00    -0.001 A 
ENDBRANCH  16  17
ENDBRANCH  15  16
ENDBRANCH  14  15
TORSDOF 3
