REMARK  Name = 
REMARK  2 active torsions:
REMARK  status: ('A' for Active; 'I' for Inactive)
REMARK    1  A    between atoms: C_2  and  N_9
REMARK    2  A    between atoms: N_12  and  C_13
REMARK                            x       y       z     vdW  Elec       q    Type
REMARK                         _______ _______ _______ _____ _____    ______ ____
ROOT
ATOM      1  N   UNL     1       3.382  -1.427   0.000  0.00  0.00    -0.189 NA
ATOM      2  C   UNL     1       4.189  -1.598   0.000  0.00  0.00    +0.343 C 
ATOM      3  N   UNL     1       4.741  -0.985   0.000  0.00  0.00    -0.159 NA
ATOM      4  O   UNL     1       4.444  -2.383   0.000  0.00  0.00    -0.249 OA
ENDROOT
BRANCH   1   6
ATOM      5  C   UNL     1       2.278  -1.427   0.000  0.00  0.00    +0.024 C 
ATOM      6  C   UNL     1       2.830  -2.040   0.000  0.00  0.00    +0.104 C 
ATOM      7  C   UNL     1       2.162  -2.525   0.000  0.00  0.00    +0.171 C 
ATOM      8  S   UNL     1       2.417  -3.309   0.000  0.00  0.00    -0.008 S 
ATOM      9  O   UNL     1       1.610  -3.481   0.000  0.00  0.00    -0.173 OA
ATOM     10  O   UNL     1       2.504  -4.130   0.000  0.00  0.00    -0.173 OA
ATOM     11  C   UNL     1       3.242  -3.309   0.000  0.00  0.00    +0.153 C 
ATOM     12  C   UNL     1       3.497  -2.525   0.000  0.00  0.00    +0.047 C 
ENDBRANCH   1   6
BRANCH   3  13
ATOM     13  C   UNL     1       5.548  -1.157   0.000  0.00  0.00    +0.094 A 
ATOM     14  C   UNL     1       5.803  -1.941   0.000  0.00  0.00    +0.115 A 
ATOM     15  N   UNL     1       6.610  -2.113   0.000  0.00  0.00    -0.241 NA
ATOM     16  C   UNL     1       7.162  -1.500   0.000  0.00  0.00    +0.099 A 
ATOM     17  C   UNL     1       6.907  -0.715   0.000  0.00  0.00    +0.022 A 
ATOM     18  C   UNL     1       6.100  -0.544   0.000  0.00  0.00    +0.020 A 
ENDBRANCH   3  13
TORSDOF 2
