REMARK  Name = 
REMARK  2 active torsions:
REMARK  status: ('A' for Active; 'I' for Inactive)
REMARK    1  A    between atoms: C_7  and  N_8
REMARK    2  A    between atoms: N_11  and  C_12
REMARK                            x       y       z     vdW  Elec       q    Type
REMARK                         _______ _______ _______ _____ _____    ______ ____
ROOT
ATOM      1  N   UNL     1       1.429  -2.475   0.000  0.00  0.00    -0.142 NA
ATOM      2  C   UNL     1       1.429  -1.650   0.000  0.00  0.00    +0.345 C 
ATOM      3  N   UNL     1       0.715  -1.238   0.000  0.00  0.00    -0.187 NA
ATOM      4  O   UNL     1       2.143  -1.238   0.000  0.00  0.00    -0.249 OA
ENDROOT
BRANCH   1   7
ATOM      5  C   UNL     1       2.858  -1.650   0.000  0.00  0.00    +0.034 C 
ATOM      6  C   UNL     1       2.858  -2.475   0.000  0.00  0.00    +0.012 A 
ATOM      7  C   UNL     1       2.143  -2.888   0.000  0.00  0.00    +0.152 A 
ATOM      8  N   UNL     1       2.143  -3.712   0.000  0.00  0.00    -0.228 NA
ATOM      9  C   UNL     1       2.858  -4.125   0.000  0.00  0.00    +0.100 A 
ATOM     10  C   UNL     1       3.572  -3.712   0.000  0.00  0.00    +0.020 A 
ATOM     11  C   UNL     1       3.572  -2.888   0.000  0.00  0.00    +0.000 A 
ENDBRANCH   1   7
BRANCH   3  12
ATOM     12  C   UNL     1       0.715  -0.412   0.000  0.00  0.00    +0.119 C 
ATOM     13  C   UNL     1       1.429   0.000   0.000  0.00  0.00    +0.137 C 
ATOM     14  N   UNL     1       1.429   0.825   0.000  0.00  0.00    -0.204 NA
ATOM     15  C   UNL     1       0.715   1.238   0.000  0.00  0.00    +0.241 C 
ATOM     16  O   UNL     1       0.715   2.062   0.000  0.00  0.00    -0.273 OA
ATOM     17  C   UNL     1       0.000   0.825   0.000  0.00  0.00    +0.089 C 
ATOM     18  C   UNL     1       0.000   0.000   0.000  0.00  0.00    +0.033 C 
ENDBRANCH   3  12
TORSDOF 2
