REMARK  Name = 
REMARK  3 active torsions:
REMARK  status: ('A' for Active; 'I' for Inactive)
REMARK    1  A    between atoms: C_2  and  N_3
REMARK    2  A    between atoms: C_7  and  N_9
REMARK    3  A    between atoms: N_12  and  C_13
REMARK                            x       y       z     vdW  Elec       q    Type
REMARK                         _______ _______ _______ _____ _____    ______ ____
ROOT
ATOM      1  N   UNL     1      -1.429  -4.125   0.000  0.00  0.00    -0.187 NA
ATOM      2  C   UNL     1      -1.429  -4.950   0.000  0.00  0.00    +0.344 C 
ATOM      3  N   UNL     1      -0.715  -5.362   0.000  0.00  0.00    -0.159 NA
ATOM      4  O   UNL     1      -2.143  -5.362   0.000  0.00  0.00    -0.249 OA
ENDROOT
BRANCH   3   5
ATOM      5  C   UNL     1      -0.715  -6.188   0.000  0.00  0.00    +0.094 A 
ATOM      6  C   UNL     1      -1.429  -6.600   0.000  0.00  0.00    +0.117 A 
ATOM      7  N   UNL     1      -1.429  -7.425   0.000  0.00  0.00    -0.228 NA
ATOM      8  C   UNL     1      -0.715  -7.838   0.000  0.00  0.00    +0.132 A 
ATOM      9  N   UNL     1      -0.715  -8.662   0.000  0.00  0.00    -0.290 N 
ATOM     10  C   UNL     1      -1.429  -9.075   0.000  0.00  0.00    +0.114 C 
ATOM     11  C   UNL     1       0.000  -9.075   0.000  0.00  0.00    +0.114 C 
ATOM     12  C   UNL     1       0.000  -7.425   0.000  0.00  0.00    +0.036 A 
ATOM     13  C   UNL     1       0.000  -6.600   0.000  0.00  0.00    +0.021 A 
ENDBRANCH   3   5
BRANCH   1  16
ATOM     14  N   UNL     1       0.000  -2.475   0.000  0.00  0.00    -0.271 NA
ATOM     15  C   UNL     1      -0.715  -2.888   0.000  0.00  0.00    +0.094 C 
ATOM     16  C   UNL     1      -0.715  -3.712   0.000  0.00  0.00    +0.113 C 
ATOM     17  C   UNL     1       0.000  -4.125   0.000  0.00  0.00    +0.025 C 
ATOM     18  C   UNL     1       0.715  -3.712   0.000  0.00  0.00    +0.019 C 
ATOM     19  C   UNL     1       0.715  -2.888   0.000  0.00  0.00    +0.072 C 
BRANCH  14  21
ATOM     20  C   UNL     1       0.715  -1.238   0.000  0.00  0.00    +0.019 C 
ATOM     21  C   UNL     1       0.000  -1.650   0.000  0.00  0.00    +0.072 C 
ENDBRANCH  14  21
ENDBRANCH   1  16
TORSDOF 3
