REMARK  Name = 
REMARK  5 active torsions:
REMARK  status: ('A' for Active; 'I' for Inactive)
REMARK    1  A    between atoms: C_2  and  C_5
REMARK    2  A    between atoms: C_8  and  C_10
REMARK    3  A    between atoms: C_10  and  N_11
REMARK    4  A    between atoms: C_12  and  C_14
REMARK    5  A    between atoms: C_14  and  N_15
REMARK                            x       y       z     vdW  Elec       q    Type
REMARK                         _______ _______ _______ _____ _____    ______ ____
ROOT
ATOM      1  C   UNL     1      -2.091   2.358   0.000  0.00  0.00    +0.000 C 
ATOM      2  C   UNL     1      -1.561   1.726   0.000  0.00  0.00    +0.003 C 
ATOM      3  C   UNL     1      -0.749   1.869   0.000  0.00  0.00    +0.032 C 
ATOM      4  C   UNL     1      -0.466   2.645   0.000  0.00  0.00    +0.147 C 
ATOM      5  O   UNL     1       0.064   3.277   0.000  0.00  0.00    -0.224 OA
ATOM      6  C   UNL     1      -0.997   3.277   0.000  0.00  0.00    +0.032 C 
ATOM      7  C   UNL     1      -1.809   3.134   0.000  0.00  0.00    +0.003 C 
ENDROOT
BRANCH   1   9
ATOM      8  C   UNL     1      -3.716   2.072   0.000  0.00  0.00    +0.000 C 
ATOM      9  C   UNL     1      -2.904   2.215   0.000  0.00  0.00    +0.000 C 
ATOM     10  C   UNL     1      -3.047   3.027   0.000  0.00  0.00    +0.000 C 
ATOM     11  C   UNL     1      -2.760   1.403   0.000  0.00  0.00    +0.000 C 
ENDBRANCH   1   9
BRANCH   4  12
ATOM     12  C   UNL     1       0.248   2.232   0.000  0.00  0.00    +0.145 C 
BRANCH  12  13
ATOM     13  N   UNL     1       0.963   2.645   0.000  0.00  0.00    -0.201 NA
ATOM     14  C   UNL     1       1.677   2.232   0.000  0.00  0.00    +0.266 C 
ATOM     15  O   UNL     1       1.677   1.407   0.000  0.00  0.00    -0.271 OA
BRANCH  14  16
ATOM     16  C   UNL     1       2.392   2.645   0.000  0.00  0.00    +0.215 C 
BRANCH  16  17
ATOM     17  N   UNL     1       3.106   2.232   0.000  0.00  0.00    -0.221 N 
ATOM     18  N   UNL     1       3.192   1.412   0.000  0.00  0.00    -0.145 NA
ATOM     19  C   UNL     1       3.999   1.240   0.000  0.00  0.00    +0.221 A 
ATOM     20  N   UNL     1       4.412   1.955   0.000  0.00  0.00    -0.201 NA
ATOM     21  C   UNL     1       3.860   2.568   0.000  0.00  0.00    +0.198 A 
ENDBRANCH  16  17
ENDBRANCH  14  16
ENDBRANCH  12  13
ENDBRANCH   4  12
TORSDOF 5
