REMARK  Name = 
REMARK  7 active torsions:
REMARK  status: ('A' for Active; 'I' for Inactive)
REMARK    1  A    between atoms: C_6  and  O_7
REMARK    2  A    between atoms: O_7  and  C_8
REMARK    3  A    between atoms: C_8  and  C_9
REMARK    4  A    between atoms: C_9  and  N_10
REMARK    5  A    between atoms: C_11  and  C_12
REMARK    6  A    between atoms: C_12  and  C_13
REMARK    7  A    between atoms: C_13  and  N_14
REMARK                            x       y       z     vdW  Elec       q    Type
REMARK                         _______ _______ _______ _____ _____    ______ ____
ROOT
ATOM      1  N   UNL     1      -0.476  -2.399   0.000  0.00  0.00    -0.311 N 
ATOM      2  C   UNL     1      -1.028  -3.012   0.000  0.00  0.00    +0.079 A 
ATOM      3  C   UNL     1      -0.616  -3.727   0.000  0.00  0.00    +0.098 A 
ATOM      4  C   UNL     1      -1.028  -4.441   0.000  0.00  0.00    +0.021 A 
ATOM      5  C   UNL     1      -1.853  -4.441   0.000  0.00  0.00    +0.002 A 
ATOM      6  C   UNL     1      -2.266  -3.727   0.000  0.00  0.00    +0.002 A 
ATOM      7  N   UNL     1       0.191  -3.555   0.000  0.00  0.00    -0.231 NA
ATOM      8  C   UNL     1      -1.853  -3.012   0.000  0.00  0.00    +0.019 A 
ATOM      9  C   UNL     1       0.278  -2.735   0.000  0.00  0.00    +0.122 A 
ENDROOT
BRANCH   1  10
ATOM     10  C   UNL     1      -0.648  -1.592   0.000  0.00  0.00    +0.154 C 
BRANCH  10  11
ATOM     11  C   UNL     1      -1.432  -1.337   0.000  0.00  0.00    +0.230 C 
BRANCH  11  12
ATOM     12  O   UNL     1      -1.604  -0.530   0.000  0.00  0.00    -0.473 OA
BRANCH  12  16
ATOM     13  C   UNL     1      -4.399  -1.124   0.000  0.00  0.00    +0.031 C 
ATOM     14  C   UNL     1      -3.786  -0.572   0.000  0.00  0.00    -0.019 A 
ATOM     15  C   UNL     1      -3.002  -0.827   0.000  0.00  0.00    +0.033 A 
ATOM     16  C   UNL     1      -2.388  -0.275   0.000  0.00  0.00    +0.138 A 
ATOM     17  C   UNL     1      -2.560   0.532   0.000  0.00  0.00    +0.037 A 
ATOM     18  C   UNL     1      -3.345   0.787   0.000  0.00  0.00    +0.003 A 
ATOM     19  C   UNL     1      -3.958   0.235   0.000  0.00  0.00    -0.004 A 
ENDBRANCH  12  16
ENDBRANCH  11  12
ENDBRANCH  10  11
ENDBRANCH   1  10
BRANCH   9  20
ATOM     20  C   UNL     1       0.992  -2.322   0.000  0.00  0.00    +0.087 C 
BRANCH  20  21
ATOM     21  C   UNL     1       1.706  -2.735   0.000  0.00  0.00    +0.124 C 
BRANCH  21  22
ATOM     22  N   UNL     1       2.421  -2.322   0.000  0.00  0.00    -0.197 NA
ATOM     23  C   UNL     1       3.135  -2.735   0.000  0.00  0.00    +0.320 C 
ATOM     24  O   UNL     1       3.850  -2.322   0.000  0.00  0.00    -0.263 OA
ENDBRANCH  21  22
ENDBRANCH  20  21
ENDBRANCH   9  20
TORSDOF 7
