REMARK  Name = 
REMARK  4 active torsions:
REMARK  status: ('A' for Active; 'I' for Inactive)
REMARK    1  A    between atoms: S_2  and  N_5
REMARK    2  A    between atoms: N_5  and  C_6
REMARK    3  A    between atoms: C_6  and  C_7
REMARK    4  A    between atoms: C_12  and  N_13
REMARK                            x       y       z     vdW  Elec       q    Type
REMARK                         _______ _______ _______ _____ _____    ______ ____
ROOT
ATOM      1  C   UNL     1       0.715  -1.238   0.000  0.00  0.00    +0.029 A 
ATOM      2  C   UNL     1       0.000  -1.650   0.000  0.00  0.00    +0.129 A 
ATOM      3  N   UNL     1       0.000  -2.475   0.000  0.00  0.00    -0.229 NA
ATOM      4  C   UNL     1       0.715  -2.888   0.000  0.00  0.00    +0.100 A 
ATOM      5  C   UNL     1       1.429  -2.475   0.000  0.00  0.00    +0.020 A 
ATOM      6  C   UNL     1       1.429  -1.650   0.000  0.00  0.00    +0.002 A 
ENDROOT
BRANCH   2   7
ATOM      7  N   UNL     1      -0.715  -1.238   0.000  0.00  0.00    -0.288 N 
ATOM      8  C   UNL     1      -0.715  -0.412   0.000  0.00  0.00    +0.124 C 
ATOM      9  C   UNL     1      -1.429   0.000   0.000  0.00  0.00    +0.164 C 
ATOM     10  O   UNL     1      -2.143  -0.412   0.000  0.00  0.00    -0.350 OA
ATOM     11  C   UNL     1      -2.143  -1.238   0.000  0.00  0.00    +0.164 C 
ATOM     12  C   UNL     1      -1.429  -1.650   0.000  0.00  0.00    +0.124 C 
ENDBRANCH   2   7
BRANCH   1  13
ATOM     13  C   UNL     1       0.715  -0.412   0.000  0.00  0.00    +0.146 C 
BRANCH  13  14
ATOM     14  N   UNL     1       1.429   0.000   0.000  0.00  0.00    -0.059 NA
BRANCH  14  16
ATOM     15  N   UNL     1       1.429   1.650   0.000  0.00  0.00    +0.053 NA
ATOM     16  S   UNL     1       1.429   0.825   0.000  0.00  0.00    +0.147 S 
ATOM     17  O   UNL     1       2.254   0.825   0.000  0.00  0.00    -0.137 OA
ATOM     18  O   UNL     1       0.604   0.825   0.000  0.00  0.00    -0.137 OA
ENDBRANCH  14  16
ENDBRANCH  13  14
ENDBRANCH   1  13
TORSDOF 4
