REMARK  Name = 
REMARK  8 active torsions:
REMARK  status: ('A' for Active; 'I' for Inactive)
REMARK    1  A    between atoms: N_4  and  C_13
REMARK    2  A    between atoms: C_10  and  C_11
REMARK    3  A    between atoms: C_10  and  O_18
REMARK    4  A    between atoms: C_11  and  C_17
REMARK    5  A    between atoms: C_13  and  O_20
REMARK    6  A    between atoms: O_18  and  C_21
REMARK    7  A    between atoms: O_20  and  C_24
REMARK    8  A    between atoms: C_21  and  C_24
REMARK                            x       y       z     vdW  Elec       q    Type
REMARK                         _______ _______ _______ _____ _____    ______ ____
ROOT
ATOM      1  C   UNL     1       8.061  -0.225   0.000  0.00  0.00    +0.258 C 
ENDROOT
BRANCH   1   3
ATOM      2  C   UNL     1       9.526  -0.150   0.000  0.00  0.00    +0.172 A 
ATOM      3  N   UNL     1       8.773   0.187   0.000  0.00  0.00    -0.268 N 
ATOM      4  C   UNL     1       8.860   1.007   0.000  0.00  0.00    +0.182 A 
ATOM      5  N   UNL     1       9.667   1.178   0.000  0.00  0.00    -0.217 NA
ATOM      6  N   UNL     1       9.784  -0.932   0.000  0.00  0.00    -0.192 NA
ATOM      7  C   UNL     1      10.587  -1.103   0.000  0.00  0.00    +0.261 A 
ATOM      8  N   UNL     1      11.141  -0.491   0.000  0.00  0.00    -0.171 NA
ATOM      9  C   UNL     1      10.887   0.291   0.000  0.00  0.00    +0.302 A 
ATOM     10  O   UNL     1      11.436   0.903   0.000  0.00  0.00    -0.263 OA
ATOM     11  N   UNL     1      10.841  -1.889   0.000  0.00  0.00    -0.086 NA
ATOM     12  C   UNL     1      10.079   0.462   0.000  0.00  0.00    +0.175 A 
ENDBRANCH   1   3
BRANCH   1  13
ATOM     13  O   UNL     1       7.349   0.187   0.000  0.00  0.00    -0.328 OA
BRANCH  13  14
ATOM     14  C   UNL     1       6.634  -0.225   0.000  0.00  0.00    +0.192 C 
BRANCH  14  15
ATOM     15  C   UNL     1       5.922   0.187   0.000  0.00  0.00    +0.240 C 
BRANCH  15  16
ATOM     16  O   UNL     1       5.206  -0.225   0.000  0.00  0.00    -0.445 OA
BRANCH  16  17
ATOM     17  C   UNL     1       4.495   0.187   0.000  0.00  0.00    +0.335 C 
ATOM     18  O   UNL     1       4.495   1.011   0.000  0.00  0.00    -0.248 OA
BRANCH  17  19
ATOM     19  C   UNL     1       3.779  -0.225   0.000  0.00  0.00    +0.190 C 
ATOM     20  N   UNL     1       3.779  -1.049   0.000  0.00  0.00    -0.121 NA
BRANCH  19  21
ATOM     21  C   UNL     1       3.067   0.187   0.000  0.00  0.00    +0.029 C 
ATOM     22  C   UNL     1       2.351  -0.225   0.000  0.00  0.00    +0.002 C 
ATOM     23  C   UNL     1       3.067   1.011   0.000  0.00  0.00    +0.002 C 
ENDBRANCH  19  21
ENDBRANCH  17  19
ENDBRANCH  16  17
ENDBRANCH  15  16
ENDBRANCH  14  15
ENDBRANCH  13  14
ENDBRANCH   1  13
TORSDOF 8
REMARK  Name = 
REMARK  8 active torsions:
REMARK  status: ('A' for Active; 'I' for Inactive)
REMARK    1  A    between atoms: N_4  and  C_13
REMARK    2  A    between atoms: C_10  and  C_11
REMARK    3  A    between atoms: C_10  and  O_18
REMARK    4  A    between atoms: C_11  and  C_17
REMARK    5  A    between atoms: C_13  and  O_20
REMARK    6  A    between atoms: O_18  and  C_21
REMARK    7  A    between atoms: O_20  and  C_24
REMARK    8  A    between atoms: C_21  and  C_24
REMARK                            x       y       z     vdW  Elec       q    Type
REMARK                         _______ _______ _______ _____ _____    ______ ____
ROOT
ATOM      1 CL   UNL     1       0.000   0.000   0.000  0.00  0.00    +0.000 Cl
ENDROOT
TORSDOF 0
