REMARK  Name = 
REMARK  5 active torsions:
REMARK  status: ('A' for Active; 'I' for Inactive)
REMARK    1  A    between atoms: C_7  and  N_8
REMARK    2  A    between atoms: N_11  and  C_12
REMARK    3  A    between atoms: C_12  and  C_13
REMARK    4  A    between atoms: C_13  and  C_14
REMARK    5  A    between atoms: C_13  and  N_19
REMARK                            x       y       z     vdW  Elec       q    Type
REMARK                         _______ _______ _______ _____ _____    ______ ____
ROOT
ATOM      1  C   UNL     1       4.287  -4.125   0.000  0.00  0.00    +0.133 C 
ENDROOT
BRANCH   1   4
ATOM      2  N   UNL     1       2.143  -3.712   0.000  0.00  0.00    -0.142 NA
ATOM      3  C   UNL     1       2.858  -4.125   0.000  0.00  0.00    +0.345 C 
ATOM      4  N   UNL     1       3.572  -3.712   0.000  0.00  0.00    -0.185 NA
ATOM      5  O   UNL     1       2.858  -4.950   0.000  0.00  0.00    -0.249 OA
BRANCH   2   8
ATOM      6  C   UNL     1       2.143  -5.362   0.000  0.00  0.00    +0.034 C 
ATOM      7  C   UNL     1       1.429  -4.950   0.000  0.00  0.00    +0.012 A 
ATOM      8  C   UNL     1       1.429  -4.125   0.000  0.00  0.00    +0.152 A 
ATOM      9  N   UNL     1       0.715  -3.712   0.000  0.00  0.00    -0.228 NA
ATOM     10  C   UNL     1       0.000  -4.125   0.000  0.00  0.00    +0.100 A 
ATOM     11  C   UNL     1       0.000  -4.950   0.000  0.00  0.00    +0.020 A 
ATOM     12  C   UNL     1       0.715  -5.362   0.000  0.00  0.00    +0.000 A 
ENDBRANCH   2   8
ENDBRANCH   1   4
BRANCH   1  13
ATOM     13  C   UNL     1       5.001  -3.712   0.000  0.00  0.00    +0.082 C 
BRANCH  13  14
ATOM     14  N   UNL     1       5.716  -4.125   0.000  0.00  0.00    -0.268 NA
ATOM     15  C   UNL     1       5.716  -4.950   0.000  0.00  0.00    +0.105 C 
ATOM     16  C   UNL     1       6.430  -5.362   0.000  0.00  0.00    +0.159 C 
ATOM     17  O   UNL     1       7.145  -4.950   0.000  0.00  0.00    -0.351 OA
ATOM     18  C   UNL     1       7.145  -4.125   0.000  0.00  0.00    +0.159 C 
ATOM     19  C   UNL     1       6.430  -3.712   0.000  0.00  0.00    +0.105 C 
ENDBRANCH  13  14
BRANCH  13  20
ATOM     20  C   UNL     1       5.001  -2.888   0.000  0.00  0.00    +0.049 C 
ATOM     21  C   UNL     1       5.669  -2.403   0.000  0.00  0.00    +0.144 C 
ATOM     22  O   UNL     1       5.414  -1.618   0.000  0.00  0.00    -0.354 OA
ATOM     23  C   UNL     1       4.589  -1.618   0.000  0.00  0.00    +0.142 C 
ATOM     24  C   UNL     1       4.334  -2.403   0.000  0.00  0.00    +0.036 C 
ENDBRANCH  13  20
ENDBRANCH   1  13
TORSDOF 5
