REMARK  Name = 
REMARK  4 active torsions:
REMARK  status: ('A' for Active; 'I' for Inactive)
REMARK    1  A    between atoms: C_7  and  C_8
REMARK    2  A    between atoms: C_8  and  C_9
REMARK    3  A    between atoms: N_11  and  C_12
REMARK    4  A    between atoms: C_12  and  C_19
REMARK                            x       y       z     vdW  Elec       q    Type
REMARK                         _______ _______ _______ _____ _____    ______ ____
ROOT
ATOM      1  C   UNL     1       5.771  -2.257   0.000  0.00  0.00    +0.246 C 
ATOM      2  N   UNL     1       6.556  -2.002   0.000  0.00  0.00    -0.198 NA
ATOM      3  O   UNL     1       5.600  -3.064   0.000  0.00  0.00    -0.273 OA
ENDROOT
BRANCH   2   4
ATOM      4  C   UNL     1       7.169  -2.554   0.000  0.00  0.00    +0.171 C 
ATOM      5  C   UNL     1       6.494  -3.029   0.000  0.00  0.00    +0.031 C 
ATOM      6  C   UNL     1       6.445  -3.853   0.000  0.00  0.00    +0.002 C 
ATOM      7  C   UNL     1       7.058  -4.404   0.000  0.00  0.00    +0.000 C 
ATOM      8  C   UNL     1       7.872  -4.269   0.000  0.00  0.00    +0.000 C 
ATOM      9  C   UNL     1       8.274  -3.549   0.000  0.00  0.00    +0.002 C 
ATOM     10  C   UNL     1       7.961  -2.785   0.000  0.00  0.00    +0.031 C 
BRANCH   4  11
ATOM     11  C   UNL     1       7.571  -1.833   0.000  0.00  0.00    +0.382 C 
ATOM     12  O   UNL     1       7.148  -1.125   0.000  0.00  0.00    -0.244 OA
ATOM     13  O   UNL     1       8.396  -1.821   0.000  0.00  0.00    -0.244 OA
ENDBRANCH   4  11
ENDBRANCH   2   4
BRANCH   1  14
ATOM     14  C   UNL     1       5.158  -1.705   0.000  0.00  0.00    +0.117 C 
BRANCH  14  17
ATOM     15  C   UNL     1       3.706  -0.650   0.000  0.00  0.00    +0.055 C 
ATOM     16  C   UNL     1       3.706  -1.475   0.000  0.00  0.00    +0.097 A 
ATOM     17  C   UNL     1       4.374  -1.960   0.000  0.00  0.00    +0.037 A 
ATOM     18  C   UNL     1       4.119  -2.744   0.000  0.00  0.00    +0.151 A 
ATOM     19  C   UNL     1       4.604  -3.412   0.000  0.00  0.00    +0.075 C 
ATOM     20  O   UNL     1       3.294  -2.744   0.000  0.00  0.00    -0.358 OA
ATOM     21  N   UNL     1       3.039  -1.960   0.000  0.00  0.00    -0.082 NA
ENDBRANCH  14  17
ENDBRANCH   1  14
TORSDOF 4
