REMARK  Name = 
REMARK  3 active torsions:
REMARK  status: ('A' for Active; 'I' for Inactive)
REMARK    1  A    between atoms: C_5  and  C_6
REMARK    2  A    between atoms: C_6  and  C_7
REMARK    3  A    between atoms: C_7  and  N_8
REMARK                            x       y       z     vdW  Elec       q    Type
REMARK                         _______ _______ _______ _____ _____    ______ ____
ROOT
ATOM      1  N   UNL     1       2.143  -2.888   0.000  0.00  0.00    -0.188 NA
ATOM      2  C   UNL     1       2.858  -2.475   0.000  0.00  0.00    +0.323 C 
ATOM      3  N   UNL     1       3.572  -2.888   0.000  0.00  0.00    -0.258 N 
ATOM      4  C   UNL     1       3.572  -3.712   0.000  0.00  0.00    +0.122 C 
ATOM      5  C   UNL     1       4.287  -4.125   0.000  0.00  0.00    +0.111 C 
ATOM      6  C   UNL     1       3.756  -4.757   0.000  0.00  0.00    +0.031 C 
ATOM      7  C   UNL     1       4.817  -4.757   0.000  0.00  0.00    +0.031 C 
ATOM      8  O   UNL     1       5.001  -3.712   0.000  0.00  0.00    -0.360 OA
ATOM      9  C   UNL     1       5.001  -2.888   0.000  0.00  0.00    +0.111 C 
ATOM     10  C   UNL     1       5.814  -3.031   0.000  0.00  0.00    +0.031 C 
ATOM     11  C   UNL     1       5.284  -2.112   0.000  0.00  0.00    +0.031 C 
ATOM     12  C   UNL     1       4.287  -2.475   0.000  0.00  0.00    +0.122 C 
ATOM     13  O   UNL     1       2.858  -1.650   0.000  0.00  0.00    -0.251 OA
ENDROOT
BRANCH   1  14
ATOM     14  C   UNL     1       1.429  -2.475   0.000  0.00  0.00    +0.122 C 
BRANCH  14  15
ATOM     15  C   UNL     1       0.715  -2.888   0.000  0.00  0.00    +0.051 C 
BRANCH  15  20
ATOM     16  C   UNL     1      -2.143  -1.238   0.000  0.00  0.00    +0.052 C 
ATOM     17  C   UNL     1      -1.429  -1.650   0.000  0.00  0.00    +0.059 A 
ATOM     18  N   UNL     1      -1.429  -2.475   0.000  0.00  0.00    -0.248 NA
ATOM     19  C   UNL     1      -0.715  -2.888   0.000  0.00  0.00    +0.094 A 
ATOM     20  C   UNL     1       0.000  -2.475   0.000  0.00  0.00    -0.001 A 
ATOM     21  C   UNL     1       0.000  -1.650   0.000  0.00  0.00    -0.001 A 
ATOM     22  C   UNL     1      -0.715  -1.238   0.000  0.00  0.00    +0.014 A 
ENDBRANCH  15  20
ENDBRANCH  14  15
ENDBRANCH   1  14
TORSDOF 3
