REMARK  Name = 
REMARK  5 active torsions:
REMARK  status: ('A' for Active; 'I' for Inactive)
REMARK    1  A    between atoms: C_2  and  C_3
REMARK    2  A    between atoms: C_2  and  N_15
REMARK    3  A    between atoms: N_5  and  C_6
REMARK    4  A    between atoms: C_6  and  C_7
REMARK    5  A    between atoms: N_10  and  C_12
REMARK                            x       y       z     vdW  Elec       q    Type
REMARK                         _______ _______ _______ _____ _____    ______ ____
ROOT
ATOM      1  C   UNL     1       1.847  -1.211   0.000  0.00  0.00    +0.264 C 
ATOM      2  N   UNL     1       2.561  -1.624   0.000  0.00  0.00    -0.204 NA
ATOM      3  O   UNL     1       1.847  -0.386   0.000  0.00  0.00    -0.271 OA
ENDROOT
BRANCH   1   5
ATOM      4  C   UNL     1       1.132  -2.449   0.000  0.00  0.00    +0.036 C 
ATOM      5  C   UNL     1       1.132  -1.624   0.000  0.00  0.00    +0.184 C 
BRANCH   5   6
ATOM      6  N   UNL     1       0.418  -1.211   0.000  0.00  0.00    -0.223 N 
ATOM      7  N   UNL     1       0.331  -0.391   0.000  0.00  0.00    -0.145 NA
ATOM      8  C   UNL     1      -0.476  -0.219   0.000  0.00  0.00    +0.221 A 
ATOM      9  N   UNL     1      -0.888  -0.934   0.000  0.00  0.00    -0.201 NA
ATOM     10  C   UNL     1      -0.336  -1.547   0.000  0.00  0.00    +0.198 A 
ENDBRANCH   5   6
ENDBRANCH   1   5
BRANCH   2  11
ATOM     11  C   UNL     1       3.276  -1.211   0.000  0.00  0.00    +0.117 C 
BRANCH  11  12
ATOM     12  C   UNL     1       3.990  -1.624   0.000  0.00  0.00    +0.039 C 
ATOM     13  C   UNL     1       4.076  -2.444   0.000  0.00  0.00    +0.074 C 
ATOM     14  N   UNL     1       4.883  -2.616   0.000  0.00  0.00    -0.274 NA
ATOM     15  C   UNL     1       5.296  -1.901   0.000  0.00  0.00    +0.072 C 
ATOM     16  C   UNL     1       4.744  -1.288   0.000  0.00  0.00    +0.020 C 
BRANCH  14  17
ATOM     17  C   UNL     1       5.219  -3.369   0.000  0.00  0.00    +0.058 C 
ATOM     18  C   UNL     1       5.133  -4.190   0.000  0.00  0.00    +0.017 C 
ATOM     19  C   UNL     1       5.886  -3.854   0.000  0.00  0.00    +0.017 C 
ENDBRANCH  14  17
ENDBRANCH  11  12
ENDBRANCH   2  11
TORSDOF 5
