REMARK  Name = 
REMARK  5 active torsions:
REMARK  status: ('A' for Active; 'I' for Inactive)
REMARK    1  A    between atoms: N_4  and  C_5
REMARK    2  A    between atoms: C_5  and  C_6
REMARK    3  A    between atoms: N_15  and  C_16
REMARK    4  A    between atoms: C_16  and  C_17
REMARK    5  A    between atoms: C_17  and  C_18
REMARK                            x       y       z     vdW  Elec       q    Type
REMARK                         _______ _______ _______ _____ _____    ______ ____
ROOT
ATOM      1  C   UNL     1      -0.715  -3.712   0.000  0.00  0.00    +0.023 C 
ATOM      2  C   UNL     1      -0.715  -2.888   0.000  0.00  0.00    +0.093 C 
ATOM      3  N   UNL     1       0.000  -2.475   0.000  0.00  0.00    -0.262 N 
ATOM      4  C   UNL     1       0.715  -2.888   0.000  0.00  0.00    +0.323 C 
ATOM      5  N   UNL     1       1.429  -2.475   0.000  0.00  0.00    -0.188 NA
ATOM      6  O   UNL     1       0.715  -3.712   0.000  0.00  0.00    -0.251 OA
ATOM      7  C   UNL     1       0.000  -1.650   0.000  0.00  0.00    +0.112 C 
ATOM      8  C   UNL     1      -0.715  -1.238   0.000  0.00  0.00    +0.094 C 
ATOM      9  N   UNL     1      -1.429  -1.650   0.000  0.00  0.00    -0.268 NA
ATOM     10  C   UNL     1      -1.429  -2.475   0.000  0.00  0.00    +0.092 C 
ENDROOT
BRANCH   5  11
ATOM     11  C   UNL     1       2.143  -2.888   0.000  0.00  0.00    +0.122 C 
BRANCH  11  12
ATOM     12  C   UNL     1       2.858  -2.475   0.000  0.00  0.00    +0.051 C 
BRANCH  12  13
ATOM     13  C   UNL     1       3.572  -2.888   0.000  0.00  0.00    -0.001 A 
ATOM     14  C   UNL     1       3.572  -3.712   0.000  0.00  0.00    +0.094 A 
ATOM     15  N   UNL     1       4.287  -4.125   0.000  0.00  0.00    -0.248 NA
ATOM     16  C   UNL     1       5.001  -3.712   0.000  0.00  0.00    +0.059 A 
ATOM     17  C   UNL     1       5.716  -4.125   0.000  0.00  0.00    +0.052 C 
ATOM     18  C   UNL     1       5.001  -2.888   0.000  0.00  0.00    +0.014 A 
ATOM     19  C   UNL     1       4.287  -2.475   0.000  0.00  0.00    -0.001 A 
ENDBRANCH  12  13
ENDBRANCH  11  12
ENDBRANCH   5  11
BRANCH   9  20
ATOM     20  C   UNL     1      -2.143  -1.238   0.000  0.00  0.00    +0.103 C 
BRANCH  20  21
ATOM     21  C   UNL     1      -2.143  -0.412   0.000  0.00  0.00    +0.141 C 
ATOM     22  O   UNL     1      -1.318  -0.412   0.000  0.00  0.00    -0.224 OA
ATOM     23  C   UNL     1      -2.968  -0.412   0.000  0.00  0.00    +0.034 C 
ATOM     24  C   UNL     1      -2.143   0.412   0.000  0.00  0.00    +0.034 C 
ENDBRANCH  20  21
ENDBRANCH   9  20
TORSDOF 5
