REMARK  Name = 
REMARK  5 active torsions:
REMARK  status: ('A' for Active; 'I' for Inactive)
REMARK    1  A    between atoms: C_4  and  N_5
REMARK    2  A    between atoms: N_8  and  C_9
REMARK    3  A    between atoms: C_9  and  C_10
REMARK    4  A    between atoms: C_10  and  C_11
REMARK    5  A    between atoms: C_11  and  N_12
REMARK                            x       y       z     vdW  Elec       q    Type
REMARK                         _______ _______ _______ _____ _____    ______ ____
ROOT
ATOM      1  N   UNL     1      -2.143   0.412   0.000  0.00  0.00    -0.161 NA
ATOM      2  C   UNL     1      -1.429   0.825   0.000  0.00  0.00    +0.343 C 
ATOM      3  N   UNL     1      -0.715   0.412   0.000  0.00  0.00    -0.187 NA
ATOM      4  O   UNL     1      -1.429   1.650   0.000  0.00  0.00    -0.249 OA
ENDROOT
BRANCH   1  10
ATOM      5  C   UNL     1      -3.572   2.888   0.000  0.00  0.00    +0.052 C 
ATOM      6  C   UNL     1      -3.572   2.062   0.000  0.00  0.00    +0.061 A 
ATOM      7  N   UNL     1      -4.287   1.650   0.000  0.00  0.00    -0.248 NA
ATOM      8  C   UNL     1      -4.287   0.825   0.000  0.00  0.00    +0.100 A 
ATOM      9  C   UNL     1      -3.572   0.412   0.000  0.00  0.00    +0.037 A 
ATOM     10  C   UNL     1      -2.858   0.825   0.000  0.00  0.00    +0.078 A 
ATOM     11  C   UNL     1      -2.858   1.650   0.000  0.00  0.00    +0.031 A 
ENDBRANCH   1  10
BRANCH   3  12
ATOM     12  C   UNL     1       0.000   0.825   0.000  0.00  0.00    +0.119 C 
BRANCH  12  13
ATOM     13  C   UNL     1       0.715   0.412   0.000  0.00  0.00    +0.045 C 
BRANCH  13  14
ATOM     14  C   UNL     1       1.429   0.825   0.000  0.00  0.00    +0.095 C 
BRANCH  14  15
ATOM     15  N   UNL     1       2.143   0.412   0.000  0.00  0.00    -0.279 N 
ATOM     16  C   UNL     1       2.230  -0.408   0.000  0.00  0.00    +0.226 C 
ATOM     17  O   UNL     1       1.617  -0.960   0.000  0.00  0.00    -0.275 OA
ATOM     18  C   UNL     1       3.037  -0.580   0.000  0.00  0.00    +0.087 C 
ATOM     19  C   UNL     1       3.449   0.135   0.000  0.00  0.00    +0.031 C 
ATOM     20  C   UNL     1       2.897   0.748   0.000  0.00  0.00    +0.094 C 
ENDBRANCH  14  15
ENDBRANCH  13  14
ENDBRANCH  12  13
ENDBRANCH   3  12
TORSDOF 5
