REMARK  Name = 
REMARK  3 active torsions:
REMARK  status: ('A' for Active; 'I' for Inactive)
REMARK    1  A    between atoms: N_3  and  C_16
REMARK    2  A    between atoms: C_14  and  C_16
REMARK    3  A    between atoms: C_14  and  C_24
REMARK                            x       y       z     vdW  Elec       q    Type
REMARK                         _______ _______ _______ _____ _____    ______ ____
ROOT
ATOM      1  C   UNL     1       3.992   2.475   0.000  0.00  0.00    +0.149 A 
ATOM      2  N   UNL     1       4.775   2.221   0.000  0.00  0.00    -0.219 NA
ATOM      3  C   UNL     1       5.263   2.892   0.000  0.00  0.00    +0.180 A 
ATOM      4  N   UNL     1       4.775   3.558   0.000  0.00  0.00    -0.294 N 
ATOM      5  C   UNL     1       3.992   3.300   0.000  0.00  0.00    +0.167 A 
ATOM      6  N   UNL     1       3.275   3.712   0.000  0.00  0.00    -0.205 NA
ATOM      7  C   UNL     1       2.562   3.300   0.000  0.00  0.00    +0.201 A 
ATOM      8  N   UNL     1       2.562   2.475   0.000  0.00  0.00    -0.207 NA
ATOM      9  C   UNL     1       3.275   2.062   0.000  0.00  0.00    +0.154 A 
ATOM     10  N   UNL     1       3.275   1.238   0.000  0.00  0.00    -0.291 N 
ATOM     11  C   UNL     1       3.992   0.825   0.000  0.00  0.00    +0.092 C 
ATOM     12  C   UNL     1       3.992   0.000   0.000  0.00  0.00    +0.022 C 
ATOM     13  C   UNL     1       3.275  -0.412   0.000  0.00  0.00    +0.013 C 
ATOM     14  C   UNL     1       2.562   0.000   0.000  0.00  0.00    +0.098 C 
ATOM     15  C   UNL     1       1.779  -0.254   0.000  0.00  0.00    +0.243 C 
ATOM     16  N   UNL     1       1.292   0.412   0.000  0.00  0.00    -0.204 NA
ATOM     17  C   UNL     1       1.779   1.083   0.000  0.00  0.00    +0.135 C 
ATOM     18  O   UNL     1       1.521  -1.038   0.000  0.00  0.00    -0.273 OA
ATOM     19  C   UNL     1       2.562   0.825   0.000  0.00  0.00    +0.104 C 
ENDROOT
BRANCH   4  20
ATOM     20  C   UNL     1       5.029   4.338   0.000  0.00  0.00    +0.116 C 
BRANCH  20  21
ATOM     21  C   UNL     1       5.838   4.508   0.000  0.00  0.00    +0.106 C 
ATOM     22  C   UNL     1       6.008   3.704   0.000  0.00  0.00    +0.149 C 
ATOM     23  O   UNL     1       6.817   3.879   0.000  0.00  0.00    -0.353 OA
ATOM     24  C   UNL     1       6.646   4.679   0.000  0.00  0.00    +0.149 C 
BRANCH  21  25
ATOM     25  C   UNL     1       5.667   5.317   0.000  0.00  0.00    +0.189 C 
ATOM     26  O   UNL     1       4.883   5.571   0.000  0.00  0.00    -0.220 OA
ENDBRANCH  21  25
ENDBRANCH  20  21
ENDBRANCH   4  20
TORSDOF 3
