REMARK  Name = 
REMARK  4 active torsions:
REMARK  status: ('A' for Active; 'I' for Inactive)
REMARK    1  A    between atoms: C_2  and  C_3
REMARK    2  A    between atoms: C_3  and  N_4
REMARK    3  A    between atoms: N_9  and  C_10
REMARK    4  A    between atoms: C_10  and  C_11
REMARK                            x       y       z     vdW  Elec       q    Type
REMARK                         _______ _______ _______ _____ _____    ______ ____
ROOT
ATOM      1  O   UNL     1       3.878  -4.189   0.000  0.00  0.00    -0.271 OA
ATOM      2  C   UNL     1       3.878  -3.364   0.000  0.00  0.00    +0.267 C 
ATOM      3  N   UNL     1       4.592  -2.952   0.000  0.00  0.00    -0.194 NA
ENDROOT
BRANCH   3   4
ATOM      4  C   UNL     1       5.307  -3.364   0.000  0.00  0.00    +0.200 C 
BRANCH   4   5
ATOM      5  C   UNL     1       6.021  -2.952   0.000  0.00  0.00    +0.248 C 
ATOM      6  N   UNL     1       6.736  -3.364   0.000  0.00  0.00    -0.278 N 
ATOM      7  C   UNL     1       6.822  -4.185   0.000  0.00  0.00    +0.094 C 
ATOM      8  C   UNL     1       7.629  -4.356   0.000  0.00  0.00    +0.023 C 
ATOM      9  C   UNL     1       8.041  -3.642   0.000  0.00  0.00    +0.023 C 
ATOM     10  C   UNL     1       7.489  -3.029   0.000  0.00  0.00    +0.094 C 
ATOM     11  O   UNL     1       6.021  -2.127   0.000  0.00  0.00    -0.273 OA
ENDBRANCH   4   5
ENDBRANCH   3   4
BRANCH   2  12
ATOM     12  C   UNL     1       3.163  -2.952   0.000  0.00  0.00    +0.215 C 
BRANCH  12  13
ATOM     13  N   UNL     1       2.449  -3.364   0.000  0.00  0.00    -0.221 N 
ATOM     14  N   UNL     1       1.695  -3.029   0.000  0.00  0.00    -0.145 NA
ATOM     15  C   UNL     1       1.143  -3.642   0.000  0.00  0.00    +0.221 A 
ATOM     16  N   UNL     1       1.556  -4.356   0.000  0.00  0.00    -0.201 NA
ATOM     17  C   UNL     1       2.363  -4.185   0.000  0.00  0.00    +0.198 A 
ENDBRANCH  12  13
ENDBRANCH   2  12
TORSDOF 4
