REMARK  Name = 
REMARK  4 active torsions:
REMARK  status: ('A' for Active; 'I' for Inactive)
REMARK    1  A    between atoms: O_2  and  C_3
REMARK    2  A    between atoms: C_8  and  N_9
REMARK    3  A    between atoms: N_12  and  C_13
REMARK    4  A    between atoms: N_16  and  C_19
REMARK                            x       y       z     vdW  Elec       q    Type
REMARK                         _______ _______ _______ _____ _____    ______ ____
ROOT
ATOM      1  N   UNL     1       0.000   7.553   0.000  0.00  0.00    -0.156 NA
ATOM      2  C   UNL     1       0.000   6.728   0.000  0.00  0.00    +0.344 C 
ATOM      3  N   UNL     1       0.715   6.315   0.000  0.00  0.00    -0.189 NA
ATOM      4  O   UNL     1      -0.715   6.315   0.000  0.00  0.00    -0.249 OA
ENDROOT
BRANCH   1   6
ATOM      5  C   UNL     1      -1.429   7.553   0.000  0.00  0.00    +0.241 A 
ATOM      6  C   UNL     1      -0.715   7.965   0.000  0.00  0.00    +0.128 A 
ATOM      7  C   UNL     1      -0.715   8.790   0.000  0.00  0.00    +0.023 A 
ATOM      8  C   UNL     1      -1.429   9.203   0.000  0.00  0.00    +0.022 A 
ATOM      9  C   UNL     1      -2.143   8.790   0.000  0.00  0.00    +0.102 A 
ATOM     10  N   UNL     1      -2.143   7.965   0.000  0.00  0.00    -0.209 NA
BRANCH   5  12
ATOM     11  C   UNL     1      -2.143   6.315   0.000  0.00  0.00    +0.254 C 
ATOM     12  O   UNL     1      -1.429   6.728   0.000  0.00  0.00    -0.455 OA
ENDBRANCH   5  12
ENDBRANCH   1   6
BRANCH   3  13
ATOM     13  C   UNL     1       0.715   5.490   0.000  0.00  0.00    +0.100 C 
ATOM     14  C   UNL     1       0.000   5.078   0.000  0.00  0.00    +0.039 C 
ATOM     15  C   UNL     1       0.000   4.253   0.000  0.00  0.00    +0.074 C 
ATOM     16  N   UNL     1       0.715   3.840   0.000  0.00  0.00    -0.274 NA
ATOM     17  C   UNL     1       1.429   4.253   0.000  0.00  0.00    +0.074 C 
ATOM     18  C   UNL     1       1.429   5.078   0.000  0.00  0.00    +0.039 C 
BRANCH  16  19
ATOM     19  C   UNL     1       0.715   3.015   0.000  0.00  0.00    +0.058 C 
ATOM     20  C   UNL     1       0.302   2.301   0.000  0.00  0.00    +0.017 C 
ATOM     21  C   UNL     1       1.127   2.301   0.000  0.00  0.00    +0.017 C 
ENDBRANCH  16  19
ENDBRANCH   3  13
TORSDOF 4
