REMARK  Name = 
REMARK  1 active torsions:
REMARK  status: ('A' for Active; 'I' for Inactive)
REMARK    1  A    between atoms: C_5  and  N_6
REMARK                            x       y       z     vdW  Elec       q    Type
REMARK                         _______ _______ _______ _____ _____    ______ ____
ROOT
ATOM      1  O   UNL     1       0.715  -0.412   0.000  0.00  0.00    -0.243 OA
ATOM      2  C   UNL     1       0.715  -1.238   0.000  0.00  0.00    +0.372 A 
ATOM      3  N   UNL     1       0.000  -1.650   0.000  0.00  0.00    -0.151 NA
ATOM      4  C   UNL     1       0.000  -2.475   0.000  0.00  0.00    +0.298 A 
ATOM      5  O   UNL     1      -0.715  -2.888   0.000  0.00  0.00    -0.264 OA
ATOM      6  C   UNL     1       0.715  -2.888   0.000  0.00  0.00    +0.126 A 
ATOM      7  C   UNL     1       1.429  -2.475   0.000  0.00  0.00    +0.123 A 
ATOM      8  N   UNL     1       1.429  -1.650   0.000  0.00  0.00    -0.188 NA
ENDROOT
BRANCH   6   9
ATOM      9  N   UNL     1       0.715  -3.712   0.000  0.00  0.00    -0.298 N 
ATOM     10  C   UNL     1       0.000  -4.125   0.000  0.00  0.00    +0.123 C 
ATOM     11  C   UNL     1       0.000  -4.950   0.000  0.00  0.00    +0.164 C 
ATOM     12  O   UNL     1       0.715  -5.362   0.000  0.00  0.00    -0.350 OA
ATOM     13  C   UNL     1       1.429  -4.950   0.000  0.00  0.00    +0.164 C 
ATOM     14  C   UNL     1       1.429  -4.125   0.000  0.00  0.00    +0.123 C 
ENDBRANCH   6   9
TORSDOF 1
