REMARK  Name = 
REMARK  7 active torsions:
REMARK  status: ('A' for Active; 'I' for Inactive)
REMARK    1  A    between atoms: O_2  and  C_3
REMARK    2  A    between atoms: C_3  and  C_4
REMARK    3  A    between atoms: C_4  and  N_5
REMARK    4  A    between atoms: N_5  and  C_12
REMARK    5  A    between atoms: C_6  and  C_8
REMARK    6  A    between atoms: N_15  and  C_16
REMARK    7  A    between atoms: C_16  and  C_17
REMARK                            x       y       z     vdW  Elec       q    Type
REMARK                         _______ _______ _______ _____ _____    ______ ____
ROOT
ATOM      1  C   UNL     1       4.618  -4.316   0.000  0.00  0.00    +0.146 A 
ATOM      2  C   UNL     1       4.206  -5.031   0.000  0.00  0.00    +0.300 A 
ATOM      3  O   UNL     1       3.381  -5.031   0.000  0.00  0.00    -0.264 OA
ATOM      4  N   UNL     1       4.618  -5.745   0.000  0.00  0.00    -0.152 NA
ATOM      5  C   UNL     1       5.443  -5.745   0.000  0.00  0.00    +0.354 A 
ATOM      6  O   UNL     1       5.856  -6.460   0.000  0.00  0.00    -0.244 OA
ATOM      7  N   UNL     1       5.856  -5.031   0.000  0.00  0.00    -0.264 N 
ATOM      8  C   UNL     1       5.443  -4.316   0.000  0.00  0.00    +0.173 A 
ATOM      9  N   UNL     1       5.856  -3.602   0.000  0.00  0.00    -0.107 NA
ENDROOT
BRANCH   1  10
ATOM     10  N   UNL     1       4.206  -3.602   0.000  0.00  0.00    -0.250 N 
ATOM     11  C   UNL     1       4.618  -2.888   0.000  0.00  0.00    +0.229 C 
ATOM     12  O   UNL     1       5.443  -2.888   0.000  0.00  0.00    -0.275 OA
BRANCH  11  13
ATOM     13  C   UNL     1       4.206  -2.173   0.000  0.00  0.00    +0.077 C 
ATOM     14  C   UNL     1       4.419  -1.376   0.000  0.00  0.00    +0.009 C 
ATOM     15  C   UNL     1       3.623  -1.163   0.000  0.00  0.00    +0.001 C 
ATOM     16  C   UNL     1       3.409  -1.960   0.000  0.00  0.00    +0.009 C 
ENDBRANCH  11  13
BRANCH  10  17
ATOM     17  C   UNL     1       3.381  -3.602   0.000  0.00  0.00    +0.130 C 
BRANCH  17  18
ATOM     18  C   UNL     1       2.968  -2.888   0.000  0.00  0.00    +0.164 C 
BRANCH  18  20
ATOM     19  C   UNL     1       1.731  -2.173   0.000  0.00  0.00    +0.174 C 
ATOM     20  O   UNL     1       2.143  -2.888   0.000  0.00  0.00    -0.349 OA
ENDBRANCH  18  20
ENDBRANCH  17  18
ENDBRANCH  10  17
ENDBRANCH   1  10
BRANCH   7  21
ATOM     21  C   UNL     1       6.681  -5.031   0.000  0.00  0.00    +0.112 C 
BRANCH  21  22
ATOM     22  C   UNL     1       7.093  -5.745   0.000  0.00  0.00    +0.023 C 
ATOM     23  C   UNL     1       6.681  -6.460   0.000  0.00  0.00    +0.002 C 
ATOM     24  C   UNL     1       7.918  -5.745   0.000  0.00  0.00    +0.002 C 
ENDBRANCH  21  22
ENDBRANCH   7  21
TORSDOF 7
