REMARK  Name = 
REMARK  5 active torsions:
REMARK  status: ('A' for Active; 'I' for Inactive)
REMARK    1  A    between atoms: C_2  and  N_3
REMARK    2  A    between atoms: C_6  and  C_7
REMARK    3  A    between atoms: C_7  and  N_8
REMARK    4  A    between atoms: C_9  and  C_11
REMARK    5  A    between atoms: C_11  and  C_12
REMARK                            x       y       z     vdW  Elec       q    Type
REMARK                         _______ _______ _______ _____ _____    ______ ____
ROOT
ATOM      1  N   UNL     1       2.102  -1.996   0.000  0.00  0.00    -0.205 NA
ATOM      2  C   UNL     1       2.816  -2.408   0.000  0.00  0.00    +0.246 C 
ATOM      3  O   UNL     1       2.816  -3.233   0.000  0.00  0.00    -0.273 OA
ENDROOT
BRANCH   1   4
ATOM      4  C   UNL     1       1.387  -2.408   0.000  0.00  0.00    +0.117 C 
BRANCH   4   7
ATOM      5  N   UNL     1      -0.633  -1.718   0.000  0.00  0.00    -0.273 NA
ATOM      6  C   UNL     1      -0.081  -2.331   0.000  0.00  0.00    +0.074 C 
ATOM      7  C   UNL     1       0.672  -1.996   0.000  0.00  0.00    +0.039 C 
ATOM      8  C   UNL     1       0.586  -1.175   0.000  0.00  0.00    +0.020 C 
ATOM      9  C   UNL     1      -0.221  -1.004   0.000  0.00  0.00    +0.072 C 
BRANCH   5  11
ATOM     10  C   UNL     1      -1.939  -1.137   0.000  0.00  0.00    +0.019 C 
ATOM     11  C   UNL     1      -1.454  -1.804   0.000  0.00  0.00    +0.072 C 
ENDBRANCH   5  11
ENDBRANCH   4   7
ENDBRANCH   1   4
BRANCH   2  12
ATOM     12  C   UNL     1       3.530  -1.996   0.000  0.00  0.00    +0.117 C 
BRANCH  12  13
ATOM     13  C   UNL     1       4.245  -2.408   0.000  0.00  0.00    +0.037 A 
ATOM     14  C   UNL     1       4.331  -3.229   0.000  0.00  0.00    +0.151 A 
ATOM     15  C   UNL     1       3.718  -3.781   0.000  0.00  0.00    +0.075 C 
ATOM     16  O   UNL     1       5.138  -3.400   0.000  0.00  0.00    -0.358 OA
ATOM     17  N   UNL     1       5.551  -2.686   0.000  0.00  0.00    -0.082 NA
ATOM     18  C   UNL     1       4.999  -2.073   0.000  0.00  0.00    +0.097 A 
ATOM     19  C   UNL     1       5.170  -1.266   0.000  0.00  0.00    +0.055 C 
ENDBRANCH  12  13
ENDBRANCH   2  12
TORSDOF 5
