REMARK  Name = 
REMARK  2 active torsions:
REMARK  status: ('A' for Active; 'I' for Inactive)
REMARK    1  A    between atoms: C_7  and  N_8
REMARK    2  A    between atoms: N_11  and  C_12
REMARK                            x       y       z     vdW  Elec       q    Type
REMARK                         _______ _______ _______ _____ _____    ______ ____
ROOT
ATOM      1  N   UNL     1       4.157   2.556   0.000  0.00  0.00    -0.157 NA
ATOM      2  C   UNL     1       3.744   1.841   0.000  0.00  0.00    +0.344 C 
ATOM      3  N   UNL     1       2.920   1.841   0.000  0.00  0.00    -0.189 NA
ATOM      4  O   UNL     1       4.157   1.127   0.000  0.00  0.00    -0.249 OA
ENDROOT
BRANCH   3   5
ATOM      5  C   UNL     1       2.507   1.127   0.000  0.00  0.00    +0.102 C 
ATOM      6  C   UNL     1       1.682   1.127   0.000  0.00  0.00    +0.049 C 
ATOM      7  C   UNL     1       1.270   0.412   0.000  0.00  0.00    +0.094 C 
ATOM      8  C   UNL     1       0.785   1.080   0.000  0.00  0.00    +0.027 C 
ATOM      9  C   UNL     1       0.000   0.825   0.000  0.00  0.00    +0.002 C 
ATOM     10  C   UNL     1       0.000   0.000   0.000  0.00  0.00    +0.002 C 
ATOM     11  C   UNL     1       0.785  -0.255   0.000  0.00  0.00    +0.027 C 
ATOM     12  O   UNL     1       1.682  -0.302   0.000  0.00  0.00    -0.358 OA
ATOM     13  C   UNL     1       2.507  -0.302   0.000  0.00  0.00    +0.144 C 
ATOM     14  C   UNL     1       2.920   0.412   0.000  0.00  0.00    +0.054 C 
ENDBRANCH   3   5
BRANCH   1  17
ATOM     15  C   UNL     1       5.212   4.008   0.000  0.00  0.00    +0.057 C 
ATOM     16  C   UNL     1       5.467   3.223   0.000  0.00  0.00    +0.116 A 
ATOM     17  C   UNL     1       4.982   2.556   0.000  0.00  0.00    +0.124 A 
ATOM     18  C   UNL     1       5.467   1.889   0.000  0.00  0.00    +0.170 A 
ATOM     19  C   UNL     1       5.212   1.104   0.000  0.00  0.00    +0.077 C 
ATOM     20  O   UNL     1       6.252   2.143   0.000  0.00  0.00    -0.357 OA
ATOM     21  N   UNL     1       6.252   2.968   0.000  0.00  0.00    -0.080 NA
ENDBRANCH   1  17
TORSDOF 2
