REMARK  Name = 
REMARK  4 active torsions:
REMARK  status: ('A' for Active; 'I' for Inactive)
REMARK    1  A    between atoms: N_3  and  C_4
REMARK    2  A    between atoms: C_4  and  C_5
REMARK    3  A    between atoms: C_5  and  C_6
REMARK    4  A    between atoms: C_6  and  N_7
REMARK                            x       y       z     vdW  Elec       q    Type
REMARK                         _______ _______ _______ _____ _____    ______ ____
ROOT
ATOM      1  C   UNL     1       3.878  -3.364   0.000  0.00  0.00    +0.119 C 
ENDROOT
BRANCH   1  10
ATOM      2  O   UNL     1       5.307  -4.189   0.000  0.00  0.00    -0.249 OA
ATOM      3  C   UNL     1       5.307  -3.364   0.000  0.00  0.00    +0.345 C 
ATOM      4  N   UNL     1       6.021  -2.952   0.000  0.00  0.00    -0.134 NA
ATOM      5  C   UNL     1       6.736  -3.364   0.000  0.00  0.00    +0.209 A 
ATOM      6  S   UNL     1       6.822  -4.185   0.000  0.00  0.00    -0.027 S 
ATOM      7  C   UNL     1       7.629  -4.356   0.000  0.00  0.00    +0.161 A 
ATOM      8  N   UNL     1       8.041  -3.642   0.000  0.00  0.00    -0.137 NA
ATOM      9  N   UNL     1       7.489  -3.029   0.000  0.00  0.00    -0.123 NA
ATOM     10  N   UNL     1       4.592  -2.952   0.000  0.00  0.00    -0.187 NA
ENDBRANCH   1  10
BRANCH   1  11
ATOM     11  C   UNL     1       3.163  -2.952   0.000  0.00  0.00    +0.045 C 
BRANCH  11  12
ATOM     12  C   UNL     1       2.449  -3.364   0.000  0.00  0.00    +0.103 C 
BRANCH  12  13
ATOM     13  N   UNL     1       1.734  -2.952   0.000  0.00  0.00    -0.230 N 
ATOM     14  C   UNL     1       1.648  -2.131   0.000  0.00  0.00    +0.232 C 
ATOM     15  O   UNL     1       2.261  -1.579   0.000  0.00  0.00    -0.274 OA
ATOM     16  C   UNL     1       0.841  -1.960   0.000  0.00  0.00    +0.095 C 
ATOM     17  C   UNL     1       0.429  -2.674   0.000  0.00  0.00    +0.095 C 
ATOM     18  C   UNL     1       0.981  -3.287   0.000  0.00  0.00    +0.232 C 
ATOM     19  O   UNL     1       0.809  -4.094   0.000  0.00  0.00    -0.274 OA
ENDBRANCH  12  13
ENDBRANCH  11  12
ENDBRANCH   1  11
TORSDOF 4
