REMARK  Name = 
REMARK  6 active torsions:
REMARK  status: ('A' for Active; 'I' for Inactive)
REMARK    1  A    between atoms: S_2  and  C_3
REMARK    2  A    between atoms: C_7  and  N_9
REMARK    3  A    between atoms: N_9  and  C_10
REMARK    4  A    between atoms: C_10  and  C_11
REMARK    5  A    between atoms: C_10  and  C_18
REMARK    6  A    between atoms: C_11  and  C_12
REMARK                            x       y       z     vdW  Elec       q    Type
REMARK                         _______ _______ _______ _____ _____    ______ ____
ROOT
ATOM      1  C   UNL     1       0.715  -3.712   0.000  0.00  0.00    +0.172 C 
ENDROOT
BRANCH   1   2
ATOM      2  C   UNL     1       0.715  -2.888   0.000  0.00  0.00    +0.412 C 
ATOM      3  F   UNL     1       1.540  -2.888   0.000  0.00  0.00    -0.168 F 
ATOM      4  F   UNL     1      -0.111  -2.888   0.000  0.00  0.00    -0.168 F 
ATOM      5  F   UNL     1       0.715  -2.062   0.000  0.00  0.00    -0.168 F 
ENDBRANCH   1   2
BRANCH   1   6
ATOM      6  N   UNL     1       1.429  -4.125   0.000  0.00  0.00    -0.212 NA
BRANCH   6   9
ATOM      7  C   UNL     1       2.858  -2.475   0.000  0.00  0.00    +0.049 C 
ATOM      8  C   UNL     1       2.143  -2.888   0.000  0.00  0.00    +0.028 C 
ATOM      9  C   UNL     1       2.143  -3.712   0.000  0.00  0.00    +0.074 C 
ATOM     10  C   UNL     1       2.858  -4.125   0.000  0.00  0.00    +0.017 C 
ATOM     11  C   UNL     1       3.572  -3.712   0.000  0.00  0.00    +0.002 C 
ATOM     12  C   UNL     1       3.572  -2.888   0.000  0.00  0.00    +0.011 C 
BRANCH   7  14
ATOM     13  C   UNL     1       3.572  -1.238   0.000  0.00  0.00    +0.069 C 
ATOM     14  S   UNL     1       2.858  -1.650   0.000  0.00  0.00    -0.140 S 
ENDBRANCH   7  14
ENDBRANCH   6   9
ENDBRANCH   1   6
BRANCH   1  15
ATOM     15  C   UNL     1       0.000  -4.125   0.000  0.00  0.00    +0.053 C 
BRANCH  15  16
ATOM     16  C   UNL     1      -0.715  -3.712   0.000  0.00  0.00    -0.017 A 
ATOM     17  C   UNL     1      -0.715  -2.888   0.000  0.00  0.00    +0.016 A 
ATOM     18  C   UNL     1      -1.429  -2.475   0.000  0.00  0.00    +0.099 A 
ATOM     19  N   UNL     1      -2.143  -2.888   0.000  0.00  0.00    -0.242 NA
ATOM     20  C   UNL     1      -2.143  -3.712   0.000  0.00  0.00    +0.099 A 
ATOM     21  C   UNL     1      -1.429  -4.125   0.000  0.00  0.00    +0.016 A 
ENDBRANCH  15  16
ENDBRANCH   1  15
TORSDOF 6
