REMARK  Name = 
REMARK  4 active torsions:
REMARK  status: ('A' for Active; 'I' for Inactive)
REMARK    1  A    between atoms: C_7  and  N_8
REMARK    2  A    between atoms: N_11  and  C_12
REMARK    3  A    between atoms: C_12  and  C_13
REMARK    4  A    between atoms: C_13  and  N_16
REMARK                            x       y       z     vdW  Elec       q    Type
REMARK                         _______ _______ _______ _____ _____    ______ ____
ROOT
ATOM      1  N   UNL     1       0.715  -4.537   0.000  0.00  0.00    -0.142 NA
ATOM      2  C   UNL     1       0.000  -4.950   0.000  0.00  0.00    +0.345 C 
ATOM      3  N   UNL     1      -0.715  -4.537   0.000  0.00  0.00    -0.186 NA
ATOM      4  O   UNL     1       0.000  -5.775   0.000  0.00  0.00    -0.249 OA
ENDROOT
BRANCH   1   7
ATOM      5  C   UNL     1       2.143  -3.712   0.000  0.00  0.00    +0.034 C 
ATOM      6  C   UNL     1       2.143  -4.537   0.000  0.00  0.00    +0.012 A 
ATOM      7  C   UNL     1       1.429  -4.950   0.000  0.00  0.00    +0.152 A 
ATOM      8  N   UNL     1       1.429  -5.775   0.000  0.00  0.00    -0.228 NA
ATOM      9  C   UNL     1       2.143  -6.188   0.000  0.00  0.00    +0.100 A 
ATOM     10  C   UNL     1       2.858  -5.775   0.000  0.00  0.00    +0.020 A 
ATOM     11  C   UNL     1       2.858  -4.950   0.000  0.00  0.00    +0.000 A 
ENDBRANCH   1   7
BRANCH   3  12
ATOM     12  C   UNL     1      -1.429  -4.950   0.000  0.00  0.00    +0.131 C 
BRANCH  12  13
ATOM     13  C   UNL     1      -2.143  -4.537   0.000  0.00  0.00    +0.066 C 
ATOM     14  C   UNL     1      -2.556  -5.252   0.000  0.00  0.00    +0.018 C 
ATOM     15  C   UNL     1      -1.731  -3.823   0.000  0.00  0.00    +0.018 C 
BRANCH  13  16
ATOM     16  N   UNL     1      -2.858  -4.125   0.000  0.00  0.00    -0.269 NA
ATOM     17  C   UNL     1      -2.858  -3.300   0.000  0.00  0.00    +0.105 C 
ATOM     18  C   UNL     1      -3.572  -2.888   0.000  0.00  0.00    +0.159 C 
ATOM     19  O   UNL     1      -4.287  -3.300   0.000  0.00  0.00    -0.351 OA
ATOM     20  C   UNL     1      -4.287  -4.125   0.000  0.00  0.00    +0.159 C 
ATOM     21  C   UNL     1      -3.572  -4.537   0.000  0.00  0.00    +0.105 C 
ENDBRANCH  13  16
ENDBRANCH  12  13
ENDBRANCH   3  12
TORSDOF 4
