REMARK  Name = 
REMARK  6 active torsions:
REMARK  status: ('A' for Active; 'I' for Inactive)
REMARK    1  A    between atoms: C_2  and  C_3
REMARK    2  A    between atoms: C_3  and  N_4
REMARK    3  A    between atoms: N_4  and  C_5
REMARK    4  A    between atoms: C_5  and  C_6
REMARK    5  A    between atoms: C_6  and  N_7
REMARK    6  A    between atoms: N_12  and  C_13
REMARK                            x       y       z     vdW  Elec       q    Type
REMARK                         _______ _______ _______ _____ _____    ______ ____
ROOT
ATOM      1  O   UNL     1       3.447  -5.287   0.000  0.00  0.00    -0.272 OA
ATOM      2  C   UNL     1       3.447  -4.462   0.000  0.00  0.00    +0.259 C 
ATOM      3  N   UNL     1       4.162  -4.050   0.000  0.00  0.00    -0.197 NA
ENDROOT
BRANCH   3   4
ATOM      4  C   UNL     1       4.876  -4.462   0.000  0.00  0.00    +0.173 C 
ATOM      5  C   UNL     1       4.814  -5.285   0.000  0.00  0.00    +0.261 C 
ATOM      6  O   UNL     1       4.046  -5.586   0.000  0.00  0.00    -0.271 OA
ATOM      7  N   UNL     1       5.419  -5.846   0.000  0.00  0.00    -0.204 NA
ATOM      8  C   UNL     1       6.235  -5.723   0.000  0.00  0.00    +0.115 C 
ATOM      9  C   UNL     1       6.648  -5.008   0.000  0.00  0.00    +0.024 C 
ATOM     10  C   UNL     1       6.346  -4.240   0.000  0.00  0.00    +0.004 C 
ATOM     11  C   UNL     1       5.558  -3.997   0.000  0.00  0.00    +0.031 C 
ENDBRANCH   3   4
BRANCH   2  12
ATOM     12  C   UNL     1       2.733  -4.050   0.000  0.00  0.00    +0.175 C 
BRANCH  12  13
ATOM     13  N   UNL     1       2.018  -4.462   0.000  0.00  0.00    -0.206 NA
BRANCH  13  14
ATOM     14  C   UNL     1       1.304  -4.050   0.000  0.00  0.00    +0.116 C 
BRANCH  14  15
ATOM     15  C   UNL     1       0.589  -4.462   0.000  0.00  0.00    +0.146 C 
BRANCH  15  16
ATOM     16  N   UNL     1      -0.125  -4.050   0.000  0.00  0.00    -0.248 N 
ATOM     17  N   UNL     1      -0.211  -3.229   0.000  0.00  0.00    -0.168 NA
ATOM     18  C   UNL     1      -1.018  -3.058   0.000  0.00  0.00    +0.122 A 
ATOM     19  C   UNL     1      -1.431  -3.772   0.000  0.00  0.00    +0.043 A 
ATOM     20  C   UNL     1      -0.879  -4.385   0.000  0.00  0.00    +0.097 A 
ENDBRANCH  15  16
ENDBRANCH  14  15
ENDBRANCH  13  14
ENDBRANCH  12  13
ENDBRANCH   2  12
TORSDOF 6
