REMARK  Name = 
REMARK  3 active torsions:
REMARK  status: ('A' for Active; 'I' for Inactive)
REMARK    1  A    between atoms: C_2  and  O_3
REMARK    2  A    between atoms: O_3  and  C_4
REMARK    3  A    between atoms: C_6  and  N_7
REMARK                            x       y       z     vdW  Elec       q    Type
REMARK                         _______ _______ _______ _____ _____    ______ ____
ROOT
ATOM      1  C   UNL     1       0.412  -0.171   0.000  0.00  0.00    +0.118 C 
ATOM      2  C   UNL     1       0.996   0.412   0.000  0.00  0.00    +0.044 C 
ATOM      3  C   UNL     1       1.579  -0.171   0.000  0.00  0.00    +0.004 C 
ATOM      4  C   UNL     1       2.163   0.412   0.000  0.00  0.00    +0.000 C 
ATOM      5  C   UNL     1       1.579   0.996   0.000  0.00  0.00    +0.004 C 
ATOM      6  C   UNL     1       0.412   0.996   0.000  0.00  0.00    +0.102 C 
ATOM      7  C   UNL     1      -0.171   0.412   0.000  0.00  0.00    +0.051 C 
ENDROOT
BRANCH   6   8
ATOM      8  N   UNL     1       0.412   1.821   0.000  0.00  0.00    -0.188 NA
ATOM      9  C   UNL     1       1.127   2.233   0.000  0.00  0.00    +0.345 C 
ATOM     10  N   UNL     1       1.127   3.058   0.000  0.00  0.00    -0.136 NA
ATOM     11  C   UNL     1       1.841   3.471   0.000  0.00  0.00    +0.187 A 
ATOM     12  S   UNL     1       2.595   3.135   0.000  0.00  0.00    -0.049 S 
ATOM     13  C   UNL     1       3.147   3.748   0.000  0.00  0.00    +0.059 A 
ATOM     14  C   UNL     1       2.735   4.463   0.000  0.00  0.00    +0.108 A 
ATOM     15  N   UNL     1       1.928   4.291   0.000  0.00  0.00    -0.221 NA
ATOM     16  O   UNL     1       1.841   1.821   0.000  0.00  0.00    -0.249 OA
ENDBRANCH   6   8
BRANCH   1  17
ATOM     17  O   UNL     1       0.412  -0.996   0.000  0.00  0.00    -0.356 OA
BRANCH  17  19
ATOM     18  C   UNL     1       1.127  -2.233   0.000  0.00  0.00    +0.035 C 
ATOM     19  C   UNL     1       1.127  -1.408   0.000  0.00  0.00    +0.142 C 
ENDBRANCH  17  19
ENDBRANCH   1  17
TORSDOF 3
