REMARK  Name = 
REMARK  7 active torsions:
REMARK  status: ('A' for Active; 'I' for Inactive)
REMARK    1  A    between atoms: C_2  and  C_3
REMARK    2  A    between atoms: C_3  and  C_5
REMARK    3  A    between atoms: C_5  and  N_6
REMARK    4  A    between atoms: C_12  and  C_14
REMARK    5  A    between atoms: N_19  and  C_20
REMARK    6  A    between atoms: C_20  and  C_21
REMARK    7  A    between atoms: C_21  and  O_22
REMARK                            x       y       z     vdW  Elec       q    Type
REMARK                         _______ _______ _______ _____ _____    ______ ____
ROOT
ATOM      1  N   UNL     1      -0.715  -1.238   0.000  0.00  0.00    -0.268 NA
ATOM      2  C   UNL     1      -1.429  -1.650   0.000  0.00  0.00    +0.094 C 
ATOM      3  C   UNL     1      -1.429  -2.475   0.000  0.00  0.00    +0.111 C 
ATOM      4  N   UNL     1      -0.715  -2.888   0.000  0.00  0.00    -0.273 N 
ATOM      5  C   UNL     1      -0.715  -3.712   0.000  0.00  0.00    +0.251 C 
ATOM      6  O   UNL     1      -1.429  -4.125   0.000  0.00  0.00    -0.270 OA
ATOM      7  C   UNL     1       0.000  -2.475   0.000  0.00  0.00    +0.111 C 
ATOM      8  C   UNL     1       0.000  -1.650   0.000  0.00  0.00    +0.094 C 
ENDROOT
BRANCH   5   9
ATOM      9  C   UNL     1       0.000  -4.125   0.000  0.00  0.00    +0.071 A 
ATOM     10  C   UNL     1       0.000  -4.950   0.000  0.00  0.00    +0.083 A 
ATOM     11  N   UNL     1       0.715  -5.362   0.000  0.00  0.00    -0.291 N 
ATOM     12  C   UNL     1       1.429  -4.950   0.000  0.00  0.00    +0.261 A 
ATOM     13  O   UNL     1       2.143  -5.362   0.000  0.00  0.00    -0.267 OA
ATOM     14  C   UNL     1       1.429  -4.125   0.000  0.00  0.00    +0.061 A 
ATOM     15  C   UNL     1       0.715  -3.712   0.000  0.00  0.00    +0.011 A 
BRANCH  11  16
ATOM     16  C   UNL     1       0.715  -6.188   0.000  0.00  0.00    +0.141 C 
BRANCH  16  17
ATOM     17  C   UNL     1       1.429  -6.600   0.000  0.00  0.00    +0.167 C 
BRANCH  17  18
ATOM     18  O   UNL     1       1.429  -7.425   0.000  0.00  0.00    -0.349 OA
ATOM     19  C   UNL     1       2.143  -7.838   0.000  0.00  0.00    +0.174 C 
ENDBRANCH  17  18
ENDBRANCH  16  17
ENDBRANCH  11  16
ENDBRANCH   5   9
BRANCH   1  20
ATOM     20  C   UNL     1      -0.715  -0.412   0.000  0.00  0.00    +0.105 C 
BRANCH  20  21
ATOM     21  C   UNL     1      -1.429   0.000   0.000  0.00  0.00    +0.168 C 
ATOM     22  O   UNL     1      -2.143  -0.412   0.000  0.00  0.00    -0.222 OA
BRANCH  21  24
ATOM     23  C   UNL     1      -2.143   1.238   0.000  0.00  0.00    +0.003 C 
ATOM     24  C   UNL     1      -1.429   0.825   0.000  0.00  0.00    +0.034 C 
ENDBRANCH  21  24
ENDBRANCH  20  21
ENDBRANCH   1  20
TORSDOF 7
