REMARK  Name = 
REMARK  7 active torsions:
REMARK  status: ('A' for Active; 'I' for Inactive)
REMARK    1  A    between atoms: N_1  and  C_3
REMARK    2  A    between atoms: C_11  and  C_23
REMARK    3  A    between atoms: C_12  and  C_24
REMARK    4  A    between atoms: C_14  and  C_22
REMARK    5  A    between atoms: C_17  and  O_19
REMARK    6  A    between atoms: C_17  and  C_26
REMARK    7  A    between atoms: O_19  and  C_22
REMARK                            x       y       z     vdW  Elec       q    Type
REMARK                         _______ _______ _______ _____ _____    ______ ____
ROOT
ATOM      1  N   UNL     1       1.137  -1.363   0.000  0.00  0.00    -0.269 N 
ATOM      2  C   UNL     1       0.650  -0.696   0.000  0.00  0.00    +0.182 A 
ATOM      3  N   UNL     1       1.137  -0.029   0.000  0.00  0.00    -0.219 NA
ATOM      4  C   UNL     1       1.921  -0.283   0.000  0.00  0.00    +0.149 A 
ATOM      5  C   UNL     1       2.638   0.129   0.000  0.00  0.00    +0.166 A 
ATOM      6  N   UNL     1       3.350  -0.283   0.000  0.00  0.00    -0.207 NA
ATOM      7  C   UNL     1       3.350  -1.108   0.000  0.00  0.00    +0.202 A 
ATOM      8  N   UNL     1       2.638  -1.521   0.000  0.00  0.00    -0.205 NA
ATOM      9  N   UNL     1       2.638   0.954   0.000  0.00  0.00    -0.184 N 
ATOM     10  C   UNL     1       3.350   1.367   0.000  0.00  0.00    +0.260 C 
ATOM     11  O   UNL     1       3.350   2.192   0.000  0.00  0.00    -0.269 OA
ATOM     12  C   UNL     1       1.921   1.367   0.000  0.00  0.00    +0.260 C 
ATOM     13  O   UNL     1       1.208   0.954   0.000  0.00  0.00    -0.269 OA
ATOM     14  C   UNL     1       1.921  -1.108   0.000  0.00  0.00    +0.169 A 
ENDROOT
BRANCH   1  15
ATOM     15  C   UNL     1       0.883  -2.150   0.000  0.00  0.00    +0.241 C 
ATOM     16  O   UNL     1       0.096  -2.404   0.000  0.00  0.00    -0.329 OA
ATOM     17  C   UNL     1       0.096  -3.229   0.000  0.00  0.00    +0.196 C 
ATOM     18  C   UNL     1       0.883  -3.483   0.000  0.00  0.00    +0.226 C 
ATOM     19  F   UNL     1       1.137  -4.267   0.000  0.00  0.00    -0.232 F 
ATOM     20  C   UNL     1       1.367  -2.817   0.000  0.00  0.00    +0.236 C 
ATOM     21  O   UNL     1       2.192  -2.817   0.000  0.00  0.00    -0.215 OA
BRANCH  17  22
ATOM     22  C   UNL     1      -0.571  -3.712   0.000  0.00  0.00    +0.241 C 
BRANCH  22  23
ATOM     23  O   UNL     1      -0.483  -4.533   0.000  0.00  0.00    -0.443 OA
BRANCH  23  24
ATOM     24  C   UNL     1      -1.150  -5.017   0.000  0.00  0.00    +0.341 C 
ATOM     25  O   UNL     1      -1.904  -4.683   0.000  0.00  0.00    -0.245 OA
BRANCH  24  26
ATOM     26  C   UNL     1      -1.067  -5.838   0.000  0.00  0.00    +0.076 A 
ATOM     27  C   UNL     1      -1.733  -6.325   0.000  0.00  0.00    +0.006 A 
ATOM     28  C   UNL     1      -1.646  -7.146   0.000  0.00  0.00    +0.000 A 
ATOM     29  C   UNL     1      -0.892  -7.479   0.000  0.00  0.00    +0.000 A 
ATOM     30  C   UNL     1      -0.225  -6.996   0.000  0.00  0.00    +0.000 A 
ATOM     31  C   UNL     1      -0.312  -6.175   0.000  0.00  0.00    +0.006 A 
ENDBRANCH  24  26
ENDBRANCH  23  24
ENDBRANCH  22  23
ENDBRANCH  17  22
ENDBRANCH   1  15
BRANCH  12  32
ATOM     32  C   UNL     1       1.921   2.192   0.000  0.00  0.00    +0.054 A 
ATOM     33  C   UNL     1       1.208   2.604   0.000  0.00  0.00    +0.005 A 
ATOM     34  C   UNL     1       1.208   3.429   0.000  0.00  0.00    +0.000 A 
ATOM     35  C   UNL     1       1.921   3.842   0.000  0.00  0.00    +0.000 A 
ATOM     36  C   UNL     1       2.638   3.429   0.000  0.00  0.00    +0.000 A 
ATOM     37  C   UNL     1       2.638   2.604   0.000  0.00  0.00    +0.005 A 
ENDBRANCH  12  32
BRANCH  10  38
ATOM     38  C   UNL     1       4.067   0.954   0.000  0.00  0.00    +0.054 A 
ATOM     39  C   UNL     1       4.067   0.129   0.000  0.00  0.00    +0.005 A 
ATOM     40  C   UNL     1       4.779  -0.283   0.000  0.00  0.00    +0.000 A 
ATOM     41  C   UNL     1       5.492   0.129   0.000  0.00  0.00    +0.000 A 
ATOM     42  C   UNL     1       5.492   0.954   0.000  0.00  0.00    +0.000 A 
ATOM     43  C   UNL     1       4.779   1.367   0.000  0.00  0.00    +0.005 A 
ENDBRANCH  10  38
TORSDOF 7
