REMARK  Name = 
REMARK  4 active torsions:
REMARK  status: ('A' for Active; 'I' for Inactive)
REMARK    1  A    between atoms: C_7  and  N_8
REMARK    2  A    between atoms: C_12  and  C_14
REMARK    3  A    between atoms: C_14  and  N_15
REMARK    4  A    between atoms: C_21  and  C_22
REMARK                            x       y       z     vdW  Elec       q    Type
REMARK                         _______ _______ _______ _____ _____    ______ ____
ROOT
ATOM      1  N   UNL     1       2.143  -3.712   0.000  0.00  0.00    -0.189 NA
ATOM      2  C   UNL     1       2.858  -4.125   0.000  0.00  0.00    +0.346 C 
ATOM      3  N   UNL     1       3.572  -3.712   0.000  0.00  0.00    -0.125 NA
ATOM      4  C   UNL     1       4.287  -4.125   0.000  0.00  0.00    +0.274 C 
ATOM      5  O   UNL     1       4.287  -4.950   0.000  0.00  0.00    -0.271 OA
ATOM      6  O   UNL     1       2.858  -4.950   0.000  0.00  0.00    -0.249 OA
ENDROOT
BRANCH   1   9
ATOM      7  C   UNL     1       2.143  -5.362   0.000  0.00  0.00    +0.002 C 
ATOM      8  C   UNL     1       1.429  -4.950   0.000  0.00  0.00    +0.020 C 
ATOM      9  C   UNL     1       1.429  -4.125   0.000  0.00  0.00    +0.097 C 
ATOM     10  C   UNL     1       0.715  -3.712   0.000  0.00  0.00    +0.022 C 
ATOM     11  C   UNL     1       0.000  -4.125   0.000  0.00  0.00    +0.002 C 
ATOM     12  C   UNL     1       0.000  -4.950   0.000  0.00  0.00    +0.000 C 
ATOM     13  C   UNL     1       0.715  -5.362   0.000  0.00  0.00    +0.002 C 
ENDBRANCH   1   9
BRANCH   4  14
ATOM     14  C   UNL     1       5.001  -3.712   0.000  0.00  0.00    +0.217 C 
BRANCH  14  15
ATOM     15  N   UNL     1       5.716  -4.125   0.000  0.00  0.00    -0.207 N 
ATOM     16  C   UNL     1       5.716  -4.950   0.000  0.00  0.00    +0.286 A 
ATOM     17  O   UNL     1       5.001  -5.362   0.000  0.00  0.00    -0.265 OA
ATOM     18  C   UNL     1       6.430  -5.362   0.000  0.00  0.00    +0.123 A 
ATOM     19  C   UNL     1       7.145  -4.950   0.000  0.00  0.00    +0.008 A 
ATOM     20  C   UNL     1       7.859  -5.362   0.000  0.00  0.00    +0.033 C 
ATOM     21  C   UNL     1       7.145  -4.125   0.000  0.00  0.00    +0.076 A 
ATOM     22  C   UNL     1       7.859  -3.712   0.000  0.00  0.00    +0.054 C 
ATOM     23  N   UNL     1       6.430  -3.712   0.000  0.00  0.00    -0.171 NA
BRANCH  18  24
ATOM     24  C   UNL     1       6.430  -6.188   0.000  0.00  0.00    +0.105 C 
ATOM     25  N   UNL     1       6.430  -7.013   0.000  0.00  0.00    -0.191 NA
ENDBRANCH  18  24
ENDBRANCH  14  15
ENDBRANCH   4  14
TORSDOF 4
