REMARK  Name = 
REMARK  4 active torsions:
REMARK  status: ('A' for Active; 'I' for Inactive)
REMARK    1  A    between atoms: C_2  and  C_3
REMARK    2  A    between atoms: C_2  and  C_13
REMARK    3  A    between atoms: C_3  and  N_4
REMARK    4  A    between atoms: N_7  and  C_8
REMARK                            x       y       z     vdW  Elec       q    Type
REMARK                         _______ _______ _______ _____ _____    ______ ____
ROOT
ATOM      1  C   UNL     1       1.754  -1.452   0.000  0.00  0.00    +0.123 C 
ENDROOT
BRANCH   1   2
ATOM      2  N   UNL     1       2.469  -1.040   0.000  0.00  0.00    -0.187 NA
ATOM      3  C   UNL     1       3.183  -1.452   0.000  0.00  0.00    +0.339 C 
ATOM      4  N   UNL     1       3.897  -1.040   0.000  0.00  0.00    -0.188 NA
ATOM      5  O   UNL     1       3.183  -2.277   0.000  0.00  0.00    -0.249 OA
BRANCH   4   6
ATOM      6  C   UNL     1       4.612  -1.452   0.000  0.00  0.00    +0.106 C 
ATOM      7  C   UNL     1       4.698  -2.272   0.000  0.00  0.00    +0.048 C 
ATOM      8  C   UNL     1       5.505  -2.444   0.000  0.00  0.00    -0.029 C 
ATOM      9  C   UNL     1       5.918  -1.730   0.000  0.00  0.00    -0.029 C 
ATOM     10  C   UNL     1       5.366  -1.117   0.000  0.00  0.00    +0.048 C 
ENDBRANCH   4   6
ENDBRANCH   1   2
BRANCH   1  12
ATOM     11  C   UNL     1       1.040  -0.215   0.000  0.00  0.00    +0.009 C 
ATOM     12  C   UNL     1       1.040  -1.040   0.000  0.00  0.00    +0.068 C 
BRANCH  12  13
ATOM     13  C   UNL     1       0.325  -1.452   0.000  0.00  0.00    +0.089 A 
ATOM     14  S   UNL     1      -0.429  -1.117   0.000  0.00  0.00    -0.075 S 
ATOM     15  C   UNL     1      -0.981  -1.730   0.000  0.00  0.00    +0.028 A 
ATOM     16  C   UNL     1      -1.801  -1.643   0.000  0.00  0.00    +0.040 C 
ATOM     17  C   UNL     1      -0.568  -2.444   0.000  0.00  0.00    +0.101 A 
ATOM     18  N   UNL     1       0.239  -2.272   0.000  0.00  0.00    -0.241 NA
ENDBRANCH  12  13
ENDBRANCH   1  12
TORSDOF 4
