REMARK  Name = 
REMARK  1 active torsions:
REMARK  status: ('A' for Active; 'I' for Inactive)
REMARK    1  A    between atoms: N_3  and  C_4
REMARK                            x       y       z     vdW  Elec       q    Type
REMARK                         _______ _______ _______ _____ _____    ______ ____
ROOT
ATOM      1  C   UNL     1       3.650   1.013   0.000  0.00  0.00    +0.101 C 
ATOM      2  C   UNL     1       3.292   0.269   0.000  0.00  0.00    +0.044 C 
ATOM      3  C   UNL     1       2.614   0.739   0.000  0.00  0.00    +0.004 C 
ATOM      4  C   UNL     1       1.958   0.239   0.000  0.00  0.00    +0.000 C 
ATOM      5  C   UNL     1       2.231  -0.540   0.000  0.00  0.00    +0.000 C 
ATOM      6  C   UNL     1       3.055  -0.521   0.000  0.00  0.00    +0.004 C 
ATOM      7  C   UNL     1       4.036  -0.088   0.000  0.00  0.00    +0.118 C 
ATOM      8  O   UNL     1       4.632  -0.658   0.000  0.00  0.00    -0.356 OA
ATOM      9  C   UNL     1       5.359  -0.267   0.000  0.00  0.00    +0.142 C 
ATOM     10  C   UNL     1       5.211   0.545   0.000  0.00  0.00    +0.036 C 
ATOM     11  C   UNL     1       4.394   0.655   0.000  0.00  0.00    +0.050 C 
ENDROOT
BRANCH   1  21
ATOM     12  O   UNL     1       4.726   2.264   0.000  0.00  0.00    -0.249 OA
ATOM     13  C   UNL     1       3.915   2.417   0.000  0.00  0.00    +0.345 C 
ATOM     14  N   UNL     1       3.642   3.196   0.000  0.00  0.00    -0.140 NA
ATOM     15  C   UNL     1       4.180   3.821   0.000  0.00  0.00    +0.177 A 
ATOM     16  N   UNL     1       4.991   3.668   0.000  0.00  0.00    -0.131 NA
ATOM     17  N   UNL     1       5.529   4.294   0.000  0.00  0.00    -0.145 NA
ATOM     18  C   UNL     1       5.256   5.072   0.000  0.00  0.00    +0.122 A 
ATOM     19  C   UNL     1       4.445   5.225   0.000  0.00  0.00    +0.025 A 
ATOM     20  C   UNL     1       3.908   4.600   0.000  0.00  0.00    +0.040 A 
ATOM     21  N   UNL     1       3.377   1.792   0.000  0.00  0.00    -0.189 NA
ENDBRANCH   1  21
TORSDOF 1
