REMARK  Name = 
REMARK  3 active torsions:
REMARK  status: ('A' for Active; 'I' for Inactive)
REMARK    1  A    between atoms: CA_4  and  C_5
REMARK    2  A    between atoms: CA_4  and  C_7
REMARK    3  A    between atoms: C_7  and  C_8
REMARK                            x       y       z     vdW  Elec       q    Type
REMARK                         _______ _______ _______ _____ _____    ______ ____
ROOT
ATOM      1 CL   UNL     1       0.000   0.000   0.000  0.00  0.00    +0.000 Cl
ENDROOT
TORSDOF 0
REMARK  Name = 
REMARK  3 active torsions:
REMARK  status: ('A' for Active; 'I' for Inactive)
REMARK    1  A    between atoms: CA_4  and  C_5
REMARK    2  A    between atoms: CA_4  and  C_7
REMARK    3  A    between atoms: C_7  and  C_8
REMARK                            x       y       z     vdW  Elec       q    Type
REMARK                         _______ _______ _______ _____ _____    ______ ____
ROOT
ATOM      1 CL   UNL     1       2.004   0.000   0.000  0.00  0.00    +0.000 Cl
ENDROOT
TORSDOF 0
REMARK  Name = 
REMARK  3 active torsions:
REMARK  status: ('A' for Active; 'I' for Inactive)
REMARK    1  A    between atoms: CA_4  and  C_5
REMARK    2  A    between atoms: CA_4  and  C_7
REMARK    3  A    between atoms: C_7  and  C_8
REMARK                            x       y       z     vdW  Elec       q    Type
REMARK                         _______ _______ _______ _____ _____    ______ ____
ROOT
ATOM      1  C   UNL     1       0.390  -4.125   0.000  0.00  0.00    -0.001 A 
ATOM      2  C   UNL     1      -0.325  -4.537   0.000  0.00  0.00    +0.095 A 
ATOM      3  N   UNL     1      -0.325  -5.362   0.000  0.00  0.00    -0.243 NA
ATOM      4  C   UNL     1       0.390  -5.775   0.000  0.00  0.00    +0.099 A 
ATOM      5  C   UNL     1       1.104  -5.362   0.000  0.00  0.00    +0.020 A 
ATOM      6  C   UNL     1       1.104  -4.537   0.000  0.00  0.00    -0.001 A 
ENDROOT
BRANCH   1   7
ATOM      7  C   UNL     1       0.390  -3.300   0.000  0.00  0.00    +0.050 C 
BRANCH   7   9
ATOM      8  N   UNL     1      -1.039  -3.300   0.000  0.00  0.00    -0.130 NA
ATOM      9  CA  UNL     1      -0.325  -2.888   0.000  0.00  0.00    +0.129 C 
BRANCH   9  10
ATOM     10  C   UNL     1      -0.325  -2.062   0.000  0.00  0.00    +0.201 C 
ATOM     11  O   UNL     1      -1.039  -1.650   0.000  0.00  0.00    -0.219 OA
ENDBRANCH   9  10
ENDBRANCH   7   9
ENDBRANCH   1   7
TORSDOF 3
