REMARK  Name = 
REMARK  4 active torsions:
REMARK  status: ('A' for Active; 'I' for Inactive)
REMARK    1  A    between atoms: C_2  and  C_3
REMARK    2  A    between atoms: C_3  and  N_6
REMARK    3  A    between atoms: C_7  and  C_9
REMARK    4  A    between atoms: C_9  and  N_10
REMARK                            x       y       z     vdW  Elec       q    Type
REMARK                         _______ _______ _______ _____ _____    ______ ____
ROOT
ATOM      1  C   UNL     1       0.715   2.062   0.000  0.00  0.00    +0.197 C 
ENDROOT
BRANCH   1   2
ATOM      2  N   UNL     1       0.715   1.238   0.000  0.00  0.00    -0.269 N 
ATOM      3  C   UNL     1       0.000   0.825   0.000  0.00  0.00    +0.353 A 
ATOM      4  O   UNL     1      -0.715   1.238   0.000  0.00  0.00    -0.244 OA
ATOM      5  N   UNL     1       0.000   0.000   0.000  0.00  0.00    -0.153 NA
ATOM      6  C   UNL     1       0.715  -0.412   0.000  0.00  0.00    +0.285 A 
ATOM      7  O   UNL     1       0.715  -1.238   0.000  0.00  0.00    -0.265 OA
ATOM      8  C   UNL     1       1.429   0.000   0.000  0.00  0.00    +0.081 A 
ATOM      9  C   UNL     1       1.429   0.825   0.000  0.00  0.00    +0.085 A 
ENDBRANCH   1   2
BRANCH   1  11
ATOM     10  N   UNL     1       0.000   3.300   0.000  0.00  0.00    -0.207 NA
ATOM     11  C   UNL     1       0.000   2.475   0.000  0.00  0.00    +0.264 C 
ATOM     12  O   UNL     1      -0.715   2.062   0.000  0.00  0.00    -0.271 OA
BRANCH  10  13
ATOM     13  C   UNL     1      -0.715   3.712   0.000  0.00  0.00    +0.079 C 
ATOM     14  C   UNL     1      -0.302   4.427   0.000  0.00  0.00    +0.022 C 
ATOM     15  C   UNL     1      -1.127   2.998   0.000  0.00  0.00    +0.022 C 
BRANCH  13  17
ATOM     16  C   UNL     1      -1.429   4.950   0.000  0.00  0.00    +0.002 C 
ATOM     17  C   UNL     1      -1.429   4.125   0.000  0.00  0.00    +0.020 C 
ENDBRANCH  13  17
ENDBRANCH  10  13
ENDBRANCH   1  11
TORSDOF 4
