REMARK  Name = 
REMARK  5 active torsions:
REMARK  status: ('A' for Active; 'I' for Inactive)
REMARK    1  A    between atoms: C_2  and  C_3
REMARK    2  A    between atoms: C_2  and  C_15
REMARK    3  A    between atoms: C_3  and  N_4
REMARK    4  A    between atoms: N_7  and  C_8
REMARK    5  A    between atoms: C_8  and  C_10
REMARK                            x       y       z     vdW  Elec       q    Type
REMARK                         _______ _______ _______ _____ _____    ______ ____
ROOT
ATOM      1  N   UNL     1       2.561  -1.624   0.000  0.00  0.00    -0.187 NA
ATOM      2  C   UNL     1       3.276  -1.211   0.000  0.00  0.00    +0.339 C 
ATOM      3  N   UNL     1       3.990  -1.624   0.000  0.00  0.00    -0.189 NA
ATOM      4  O   UNL     1       3.276  -0.386   0.000  0.00  0.00    -0.249 OA
ENDROOT
BRANCH   3   5
ATOM      5  C   UNL     1       4.704  -1.211   0.000  0.00  0.00    +0.099 C 
ATOM      6  C   UNL     1       4.704  -0.386   0.000  0.00  0.00    +0.024 C 
BRANCH   5   7
ATOM      7  C   UNL     1       5.419  -1.624   0.000  0.00  0.00    +0.052 C 
ATOM      8  C   UNL     1       5.505  -2.444   0.000  0.00  0.00    +0.144 C 
ATOM      9  O   UNL     1       6.312  -2.616   0.000  0.00  0.00    -0.354 OA
ATOM     10  C   UNL     1       6.725  -1.901   0.000  0.00  0.00    +0.142 C 
ATOM     11  C   UNL     1       6.173  -1.288   0.000  0.00  0.00    +0.036 C 
ENDBRANCH   5   7
ENDBRANCH   3   5
BRANCH   1  12
ATOM     12  C   UNL     1       1.847  -1.211   0.000  0.00  0.00    +0.123 C 
BRANCH  12  14
ATOM     13  C   UNL     1       1.132  -2.449   0.000  0.00  0.00    +0.009 C 
ATOM     14  C   UNL     1       1.132  -1.624   0.000  0.00  0.00    +0.068 C 
BRANCH  14  15
ATOM     15  C   UNL     1       0.418  -1.211   0.000  0.00  0.00    +0.089 A 
ATOM     16  S   UNL     1       0.331  -0.391   0.000  0.00  0.00    -0.071 S 
ATOM     17  C   UNL     1      -0.476  -0.219   0.000  0.00  0.00    +0.051 A 
ATOM     18  C   UNL     1      -0.888  -0.934   0.000  0.00  0.00    +0.066 A 
ATOM     19  C   UNL     1      -1.709  -1.020   0.000  0.00  0.00    +0.053 C 
ATOM     20  N   UNL     1      -0.336  -1.547   0.000  0.00  0.00    -0.247 NA
ENDBRANCH  14  15
ENDBRANCH  12  14
ENDBRANCH   1  12
TORSDOF 5
