REMARK  Name = 
REMARK  6 active torsions:
REMARK  status: ('A' for Active; 'I' for Inactive)
REMARK    1  A    between atoms: N_2  and  C_9
REMARK    2  A    between atoms: C_3  and  N_6
REMARK    3  A    between atoms: N_6  and  C_13
REMARK    4  A    between atoms: N_6  and  C_15
REMARK    5  A    between atoms: C_8  and  C_9
REMARK    6  A    between atoms: C_15  and  C_26
REMARK                            x       y       z     vdW  Elec       q    Type
REMARK                         _______ _______ _______ _____ _____    ______ ____
ROOT
ATOM      1  C   UNL     1       2.562   0.825   0.000  0.00  0.00    +0.149 A 
ATOM      2  N   UNL     1       1.779   1.083   0.000  0.00  0.00    -0.219 NA
ATOM      3  C   UNL     1       1.292   0.412   0.000  0.00  0.00    +0.180 A 
ATOM      4  N   UNL     1       1.779  -0.254   0.000  0.00  0.00    -0.292 N 
ATOM      5  C   UNL     1       2.562   0.000   0.000  0.00  0.00    +0.167 A 
ATOM      6  N   UNL     1       3.275  -0.412   0.000  0.00  0.00    -0.205 NA
ATOM      7  C   UNL     1       3.992   0.000   0.000  0.00  0.00    +0.201 A 
ATOM      8  N   UNL     1       3.992   0.825   0.000  0.00  0.00    -0.207 NA
ATOM      9  C   UNL     1       3.275   1.238   0.000  0.00  0.00    +0.154 A 
ENDROOT
BRANCH   4  10
ATOM     10  C   UNL     1       1.521  -1.038   0.000  0.00  0.00    +0.142 C 
BRANCH  10  11
ATOM     11  C   UNL     1       2.075  -1.650   0.000  0.00  0.00    +0.174 C 
ATOM     12  O   UNL     1       1.408  -2.138   0.000  0.00  0.00    -0.221 OA
ATOM     13  C   UNL     1       2.625  -1.038   0.000  0.00  0.00    +0.067 C 
ATOM     14  C   UNL     1       3.379  -1.375   0.000  0.00  0.00    +0.145 C 
ATOM     15  O   UNL     1       3.296  -2.192   0.000  0.00  0.00    -0.354 OA
ATOM     16  C   UNL     1       2.487  -2.367   0.000  0.00  0.00    +0.145 C 
ATOM     17  C   UNL     1       2.150  -3.117   0.000  0.00  0.00    +0.035 C 
ENDBRANCH  10  11
ENDBRANCH   4  10
BRANCH   9  18
ATOM     18  N   UNL     1       3.275   2.062   0.000  0.00  0.00    -0.293 N 
BRANCH  18  19
ATOM     19  C   UNL     1       2.562   2.475   0.000  0.00  0.00    +0.077 C 
ATOM     20  C   UNL     1       2.562   3.300   0.000  0.00  0.00    +0.037 C 
ATOM     21  C   UNL     1       1.850   3.712   0.000  0.00  0.00    +0.074 C 
ATOM     22  N   UNL     1       1.133   3.300   0.000  0.00  0.00    -0.271 NA
ATOM     23  C   UNL     1       1.133   2.475   0.000  0.00  0.00    +0.074 C 
ATOM     24  C   UNL     1       0.421   3.712   0.000  0.00  0.00    +0.090 C 
ATOM     25  C   UNL     1       1.850   2.062   0.000  0.00  0.00    +0.037 C 
ENDBRANCH  18  19
BRANCH  18  26
ATOM     26  C   UNL     1       3.992   2.475   0.000  0.00  0.00    +0.092 C 
BRANCH  26  27
ATOM     27  C   UNL     1       4.704   2.062   0.000  0.00  0.00    +0.020 C 
ATOM     28  C   UNL     1       4.704   1.238   0.000  0.00  0.00    +0.002 C 
ATOM     29  C   UNL     1       5.421   2.475   0.000  0.00  0.00    +0.002 C 
ENDBRANCH  26  27
ENDBRANCH  18  26
ENDBRANCH   9  18
TORSDOF 6
