REMARK  Name = 
REMARK  5 active torsions:
REMARK  status: ('A' for Active; 'I' for Inactive)
REMARK    1  A    between atoms: N_1  and  C_11
REMARK    2  A    between atoms: N_2  and  C_15
REMARK    3  A    between atoms: C_9  and  C_11
REMARK    4  A    between atoms: C_10  and  C_14
REMARK    5  A    between atoms: C_12  and  C_17
REMARK                            x       y       z     vdW  Elec       q    Type
REMARK                         _______ _______ _______ _____ _____    ______ ____
ROOT
ATOM      1  C   UNL     1      -5.300  -2.250   0.000  0.00  0.00    +0.268 C 
ATOM      2  O   UNL     1      -5.300  -3.075   0.000  0.00  0.00    -0.271 OA
ATOM      3  N   UNL     1      -6.013  -1.837   0.000  0.00  0.00    -0.173 N 
ATOM      4  C   UNL     1      -6.100  -1.017   0.000  0.00  0.00    +0.162 C 
ATOM      5  C   UNL     1      -6.904  -0.846   0.000  0.00  0.00    +0.077 C 
ATOM      6  C   UNL     1      -7.317  -1.562   0.000  0.00  0.00    +0.079 C 
ATOM      7  N   UNL     1      -6.767  -2.175   0.000  0.00  0.00    -0.180 NA
ENDROOT
BRANCH   6   8
ATOM      8  C   UNL     1      -8.137  -1.646   0.000  0.00  0.00    +0.015 A 
ATOM      9  C   UNL     1      -8.625  -0.979   0.000  0.00  0.00    +0.002 A 
ATOM     10  C   UNL     1      -9.442  -1.067   0.000  0.00  0.00    +0.011 A 
ATOM     11  C   UNL     1      -9.779  -1.821   0.000  0.00  0.00    +0.058 A 
ATOM     12  C   UNL     1      -9.296  -2.487   0.000  0.00  0.00    +0.011 A 
ATOM     13 CL   UNL     1     -10.600  -1.904   0.000  0.00  0.00    -0.082 Cl
ATOM     14  C   UNL     1      -8.475  -2.400   0.000  0.00  0.00    +0.002 A 
ENDBRANCH   6   8
BRANCH   4  15
ATOM     15  C   UNL     1      -5.487  -0.467   0.000  0.00  0.00    +0.143 A 
ATOM     16  C   UNL     1      -5.575   0.354   0.000  0.00  0.00    +0.038 A 
ATOM     17  C   UNL     1      -4.821   0.692   0.000  0.00  0.00    +0.043 A 
ATOM     18  C   UNL     1      -4.271   0.075   0.000  0.00  0.00    +0.179 A 
ATOM     19  O   UNL     1      -4.683  -0.637   0.000  0.00  0.00    -0.453 OA
ENDBRANCH   4  15
BRANCH   1  20
ATOM     20  C   UNL     1      -4.588  -1.837   0.000  0.00  0.00    +0.200 C 
BRANCH  20  21
ATOM     21  N   UNL     1      -3.871  -2.250   0.000  0.00  0.00    -0.238 N 
ATOM     22  C   UNL     1      -3.158  -1.837   0.000  0.00  0.00    +0.294 A 
ATOM     23  O   UNL     1      -3.158  -1.012   0.000  0.00  0.00    -0.264 OA
ATOM     24  C   UNL     1      -2.446  -2.250   0.000  0.00  0.00    +0.213 A 
ATOM     25  F   UNL     1      -1.729  -1.837   0.000  0.00  0.00    -0.198 F 
ATOM     26  C   UNL     1      -2.446  -3.075   0.000  0.00  0.00    +0.116 A 
ATOM     27  N   UNL     1      -3.158  -3.487   0.000  0.00  0.00    -0.255 N 
ATOM     28  C   UNL     1      -3.871  -3.075   0.000  0.00  0.00    +0.336 A 
ATOM     29  O   UNL     1      -4.588  -3.487   0.000  0.00  0.00    -0.246 OA
BRANCH  27  30
ATOM     30  C   UNL     1      -3.158  -4.312   0.000  0.00  0.00    +0.208 C 
ATOM     31  C   UNL     1      -2.492  -4.800   0.000  0.00  0.00    +0.057 C 
ATOM     32  C   UNL     1      -2.746  -5.583   0.000  0.00  0.00    +0.037 C 
ATOM     33  C   UNL     1      -3.571  -5.583   0.000  0.00  0.00    +0.144 C 
ATOM     34  O   UNL     1      -3.825  -4.800   0.000  0.00  0.00    -0.335 OA
ENDBRANCH  27  30
ENDBRANCH  20  21
ENDBRANCH   1  20
TORSDOF 5
