REMARK  Name = 
REMARK  3 active torsions:
REMARK  status: ('A' for Active; 'I' for Inactive)
REMARK    1  A    between atoms: C_7  and  N_8
REMARK    2  A    between atoms: N_11  and  C_12
REMARK    3  A    between atoms: C_12  and  C_13
REMARK                            x       y       z     vdW  Elec       q    Type
REMARK                         _______ _______ _______ _____ _____    ______ ____
ROOT
ATOM      1  N   UNL     1       1.387  -2.408   0.000  0.00  0.00    -0.157 NA
ATOM      2  C   UNL     1       2.102  -1.996   0.000  0.00  0.00    +0.344 C 
ATOM      3  N   UNL     1       2.816  -2.408   0.000  0.00  0.00    -0.184 NA
ATOM      4  O   UNL     1       2.102  -1.171   0.000  0.00  0.00    -0.249 OA
ENDROOT
BRANCH   1   7
ATOM      5  C   UNL     1      -0.253  -3.138   0.000  0.00  0.00    +0.057 C 
ATOM      6  C   UNL     1      -0.081  -2.331   0.000  0.00  0.00    +0.116 A 
ATOM      7  C   UNL     1       0.672  -1.996   0.000  0.00  0.00    +0.124 A 
ATOM      8  C   UNL     1       0.586  -1.175   0.000  0.00  0.00    +0.170 A 
ATOM      9  C   UNL     1       1.199  -0.623   0.000  0.00  0.00    +0.077 C 
ATOM     10  O   UNL     1      -0.221  -1.004   0.000  0.00  0.00    -0.357 OA
ATOM     11  N   UNL     1      -0.633  -1.718   0.000  0.00  0.00    -0.080 NA
ENDBRANCH   1   7
BRANCH   3  12
ATOM     12  C   UNL     1       3.530  -1.996   0.000  0.00  0.00    +0.146 C 
BRANCH  12  13
ATOM     13  C   UNL     1       4.245  -2.408   0.000  0.00  0.00    +0.137 C 
ATOM     14  O   UNL     1       4.331  -3.229   0.000  0.00  0.00    -0.354 OA
ATOM     15  C   UNL     1       5.138  -3.400   0.000  0.00  0.00    +0.142 C 
ATOM     16  C   UNL     1       5.551  -2.686   0.000  0.00  0.00    +0.035 C 
ATOM     17  C   UNL     1       4.999  -2.073   0.000  0.00  0.00    +0.034 C 
ENDBRANCH  12  13
ENDBRANCH   3  12
TORSDOF 3
