REMARK  Name = 
REMARK  3 active torsions:
REMARK  status: ('A' for Active; 'I' for Inactive)
REMARK    1  A    between atoms: N_6  and  C_7
REMARK    2  A    between atoms: C_7  and  C_8
REMARK    3  A    between atoms: N_13  and  C_14
REMARK                            x       y       z     vdW  Elec       q    Type
REMARK                         _______ _______ _______ _____ _____    ______ ____
ROOT
ATOM      1  C   UNL     1       3.878  -3.364   0.000  0.00  0.00    +0.272 C 
ATOM      2  N   UNL     1       4.592  -2.952   0.000  0.00  0.00    -0.125 NA
ATOM      3  C   UNL     1       5.307  -3.364   0.000  0.00  0.00    +0.346 C 
ATOM      4  N   UNL     1       6.021  -2.952   0.000  0.00  0.00    -0.189 NA
ATOM      5  O   UNL     1       5.307  -4.189   0.000  0.00  0.00    -0.249 OA
ATOM      6  O   UNL     1       3.878  -4.189   0.000  0.00  0.00    -0.271 OA
ENDROOT
BRANCH   4   7
ATOM      7  C   UNL     1       6.736  -3.364   0.000  0.00  0.00    +0.097 C 
ATOM      8  C   UNL     1       6.822  -4.185   0.000  0.00  0.00    +0.022 C 
ATOM      9  C   UNL     1       7.629  -4.356   0.000  0.00  0.00    +0.002 C 
ATOM     10  C   UNL     1       8.041  -3.642   0.000  0.00  0.00    +0.002 C 
ATOM     11  C   UNL     1       7.489  -3.029   0.000  0.00  0.00    +0.022 C 
ENDBRANCH   4   7
BRANCH   1  12
ATOM     12  C   UNL     1       3.163  -2.952   0.000  0.00  0.00    +0.196 C 
BRANCH  12  15
ATOM     13  N   UNL     1       2.976  -4.737   0.000  0.00  0.00    -0.121 NA
ATOM     14  C   UNL     1       2.363  -4.185   0.000  0.00  0.00    +0.197 A 
ATOM     15  N   UNL     1       2.449  -3.364   0.000  0.00  0.00    -0.296 N 
ATOM     16  C   UNL     1       1.695  -3.029   0.000  0.00  0.00    +0.085 A 
ATOM     17  C   UNL     1       1.143  -3.642   0.000  0.00  0.00    +0.057 A 
ATOM     18  S   UNL     1       1.556  -4.356   0.000  0.00  0.00    -0.047 S 
ENDBRANCH  12  15
ENDBRANCH   1  12
TORSDOF 3
