REMARK  Name = 
REMARK  5 active torsions:
REMARK  status: ('A' for Active; 'I' for Inactive)
REMARK    1  A    between atoms: C_2  and  C_4
REMARK    2  A    between atoms: C_7  and  C_20
REMARK    3  A    between atoms: N_8  and  C_9
REMARK    4  A    between atoms: C_9  and  C_10
REMARK    5  A    between atoms: C_10  and  C_12
REMARK                            x       y       z     vdW  Elec       q    Type
REMARK                         _______ _______ _______ _____ _____    ______ ____
ROOT
ATOM      1  C   UNL     1       1.429  -2.475   0.000  0.00  0.00    +0.113 A 
ATOM      2  C   UNL     1       2.143  -2.888   0.000  0.00  0.00    +0.265 A 
ATOM      3  O   UNL     1       2.858  -2.475   0.000  0.00  0.00    -0.267 OA
ATOM      4  N   UNL     1       2.143  -3.712   0.000  0.00  0.00    -0.289 N 
ATOM      5  C   UNL     1       1.429  -4.125   0.000  0.00  0.00    +0.134 A 
ATOM      6  C   UNL     1       0.715  -3.712   0.000  0.00  0.00    +0.021 A 
ATOM      7  C   UNL     1       0.715  -2.888   0.000  0.00  0.00    +0.011 A 
ENDROOT
BRANCH   5   8
ATOM      8  C   UNL     1       1.429  -4.950   0.000  0.00  0.00    +0.433 C 
ATOM      9  F   UNL     1       2.254  -4.950   0.000  0.00  0.00    -0.164 F 
ATOM     10  F   UNL     1       0.604  -4.950   0.000  0.00  0.00    -0.164 F 
ATOM     11  F   UNL     1       1.429  -5.775   0.000  0.00  0.00    -0.164 F 
ENDBRANCH   5   8
BRANCH   1  13
ATOM     12  N   UNL     1       2.143  -1.238   0.000  0.00  0.00    -0.084 NA
ATOM     13  C   UNL     1       1.429  -1.650   0.000  0.00  0.00    +0.289 C 
ATOM     14  O   UNL     1       0.715  -1.238   0.000  0.00  0.00    -0.266 OA
ENDBRANCH   1  13
BRANCH   4  15
ATOM     15  C   UNL     1       2.858  -4.125   0.000  0.00  0.00    +0.146 C 
BRANCH  15  16
ATOM     16  C   UNL     1       3.572  -3.712   0.000  0.00  0.00    +0.197 C 
ATOM     17  O   UNL     1       3.572  -2.888   0.000  0.00  0.00    -0.216 OA
BRANCH  16  18
ATOM     18  C   UNL     1       4.287  -4.125   0.000  0.00  0.00    +0.010 A 
ATOM     19  C   UNL     1       4.287  -4.950   0.000  0.00  0.00    -0.002 A 
ATOM     20  C   UNL     1       5.001  -5.362   0.000  0.00  0.00    -0.000 A 
ATOM     21  C   UNL     1       5.716  -4.950   0.000  0.00  0.00    -0.000 A 
ATOM     22  C   UNL     1       5.716  -4.125   0.000  0.00  0.00    -0.000 A 
ATOM     23  C   UNL     1       5.001  -3.712   0.000  0.00  0.00    -0.002 A 
ENDBRANCH  16  18
ENDBRANCH  15  16
ENDBRANCH   4  15
TORSDOF 5
