REMARK  Name = 
REMARK  5 active torsions:
REMARK  status: ('A' for Active; 'I' for Inactive)
REMARK    1  A    between atoms: N_4  and  C_5
REMARK    2  A    between atoms: C_5  and  C_6
REMARK    3  A    between atoms: C_6  and  C_7
REMARK    4  A    between atoms: C_7  and  N_8
REMARK    5  A    between atoms: N_11  and  C_12
REMARK                            x       y       z     vdW  Elec       q    Type
REMARK                         _______ _______ _______ _____ _____    ______ ____
ROOT
ATOM      1  C   UNL     1      -1.429   0.825   0.000  0.00  0.00    +0.041 C 
ENDROOT
BRANCH   1   2
ATOM      2  C   UNL     1      -2.143   0.412   0.000  0.00  0.00    +0.074 C 
BRANCH   2   9
ATOM      3  C   UNL     1      -3.572   2.888   0.000  0.00  0.00    +0.034 C 
ATOM      4  C   UNL     1      -3.572   2.062   0.000  0.00  0.00    +0.131 C 
ATOM      5  O   UNL     1      -4.287   1.650   0.000  0.00  0.00    -0.356 OA
ATOM      6  C   UNL     1      -4.287   0.825   0.000  0.00  0.00    +0.131 C 
ATOM      7  C   UNL     1      -5.001   0.412   0.000  0.00  0.00    +0.034 C 
ATOM      8  C   UNL     1      -3.572   0.412   0.000  0.00  0.00    +0.102 C 
ATOM      9  N   UNL     1      -2.858   0.825   0.000  0.00  0.00    -0.269 NA
ATOM     10  C   UNL     1      -2.858   1.650   0.000  0.00  0.00    +0.102 C 
ENDBRANCH   2   9
ENDBRANCH   1   2
BRANCH   1  11
ATOM     11  C   UNL     1      -0.715   0.412   0.000  0.00  0.00    +0.118 C 
BRANCH  11  12
ATOM     12  N   UNL     1       0.000   0.825   0.000  0.00  0.00    -0.187 NA
ATOM     13  C   UNL     1       0.715   0.412   0.000  0.00  0.00    +0.344 C 
ATOM     14  N   UNL     1       1.429   0.825   0.000  0.00  0.00    -0.158 NA
ATOM     15  O   UNL     1       0.715  -0.412   0.000  0.00  0.00    -0.249 OA
BRANCH  14  16
ATOM     16  C   UNL     1       2.143   0.412   0.000  0.00  0.00    +0.117 A 
ATOM     17  C   UNL     1       2.230  -0.408   0.000  0.00  0.00    +0.140 A 
ATOM     18  N   UNL     1       3.037  -0.580   0.000  0.00  0.00    -0.145 NA
ATOM     19  N   UNL     1       3.449   0.135   0.000  0.00  0.00    -0.145 NA
ATOM     20  C   UNL     1       2.897   0.748   0.000  0.00  0.00    +0.140 A 
ENDBRANCH  14  16
ENDBRANCH  11  12
ENDBRANCH   1  11
TORSDOF 5
