REMARK  Name = 
REMARK  4 active torsions:
REMARK  status: ('A' for Active; 'I' for Inactive)
REMARK    1  A    between atoms: C_4  and  C_14
REMARK    2  A    between atoms: N_5  and  C_6
REMARK    3  A    between atoms: C_6  and  C_7
REMARK    4  A    between atoms: C_7  and  C_8
REMARK                            x       y       z     vdW  Elec       q    Type
REMARK                         _______ _______ _______ _____ _____    ______ ____
ROOT
ATOM      1 CL   UNL     1       0.000   0.000   0.000  0.00  0.00    +0.000 Cl
ENDROOT
TORSDOF 0
REMARK  Name = 
REMARK  4 active torsions:
REMARK  status: ('A' for Active; 'I' for Inactive)
REMARK    1  A    between atoms: C_4  and  C_14
REMARK    2  A    between atoms: N_5  and  C_6
REMARK    3  A    between atoms: C_6  and  C_7
REMARK    4  A    between atoms: C_7  and  C_8
REMARK                            x       y       z     vdW  Elec       q    Type
REMARK                         _______ _______ _______ _____ _____    ______ ____
ROOT
ATOM      1 CL   UNL     1       2.004   0.000   0.000  0.00  0.00    +0.000 Cl
ENDROOT
TORSDOF 0
REMARK  Name = 
REMARK  4 active torsions:
REMARK  status: ('A' for Active; 'I' for Inactive)
REMARK    1  A    between atoms: C_4  and  C_14
REMARK    2  A    between atoms: N_5  and  C_6
REMARK    3  A    between atoms: C_6  and  C_7
REMARK    4  A    between atoms: C_7  and  C_8
REMARK                            x       y       z     vdW  Elec       q    Type
REMARK                         _______ _______ _______ _____ _____    ______ ____
ROOT
ATOM      1  O   UNL     1      -1.009  -4.125   0.000  0.00  0.00    -0.273 OA
ATOM      2  C   UNL     1      -1.009  -3.300   0.000  0.00  0.00    +0.241 C 
ATOM      3  N   UNL     1      -0.294  -2.888   0.000  0.00  0.00    -0.205 NA
ENDROOT
BRANCH   2   4
ATOM      4  C   UNL     1      -1.723  -2.888   0.000  0.00  0.00    +0.081 C 
ATOM      5  C   UNL     1      -1.723  -2.062   0.000  0.00  0.00    +0.028 C 
ATOM      6  C   UNL     1      -2.438  -1.650   0.000  0.00  0.00    +0.089 C 
ATOM      7  N   UNL     1      -3.152  -2.062   0.000  0.00  0.00    -0.218 NA
ATOM      8  C   UNL     1      -3.152  -2.888   0.000  0.00  0.00    +0.089 C 
ATOM      9  C   UNL     1      -2.438  -3.300   0.000  0.00  0.00    +0.028 C 
ENDBRANCH   2   4
BRANCH   3  10
ATOM     10  C   UNL     1       0.420  -3.300   0.000  0.00  0.00    +0.121 C 
BRANCH  10  11
ATOM     11  C   UNL     1       1.135  -2.888   0.000  0.00  0.00    +0.069 C 
BRANCH  11  12
ATOM     12  C   UNL     1       1.849  -3.300   0.000  0.00  0.00    +0.061 A 
ATOM     13  N   UNL     1       1.849  -4.125   0.000  0.00  0.00    -0.248 NA
ATOM     14  C   UNL     1       2.564  -4.537   0.000  0.00  0.00    +0.098 A 
ATOM     15  C   UNL     1       3.278  -4.125   0.000  0.00  0.00    +0.021 A 
ATOM     16  C   UNL     1       3.278  -3.300   0.000  0.00  0.00    +0.003 A 
ATOM     17  C   UNL     1       2.564  -2.888   0.000  0.00  0.00    +0.015 A 
ENDBRANCH  11  12
ENDBRANCH  10  11
ENDBRANCH   3  10
TORSDOF 4
