REMARK  Name = 
REMARK  6 active torsions:
REMARK  status: ('A' for Active; 'I' for Inactive)
REMARK    1  A    between atoms: C_2  and  C_4
REMARK    2  A    between atoms: C_4  and  O_5
REMARK    3  A    between atoms: O_5  and  C_6
REMARK    4  A    between atoms: C_6  and  C_8
REMARK    5  A    between atoms: N_10  and  C_11
REMARK    6  A    between atoms: C_11  and  C_12
REMARK                            x       y       z     vdW  Elec       q    Type
REMARK                         _______ _______ _______ _____ _____    ______ ____
ROOT
ATOM      1  C   UNL     1       7.859  -7.838   0.000  0.00  0.00    +0.019 A 
ATOM      2  C   UNL     1       7.859  -8.662   0.000  0.00  0.00    +0.098 A 
ATOM      3  N   UNL     1       8.574  -9.075   0.000  0.00  0.00    -0.229 NA
ATOM      4  C   UNL     1       9.288  -8.662   0.000  0.00  0.00    +0.132 A 
ATOM      5  N   UNL     1      10.003  -9.075   0.000  0.00  0.00    -0.288 N 
ATOM      6  C   UNL     1      10.003  -9.900   0.000  0.00  0.00    +0.124 C 
ATOM      7  C   UNL     1      10.717 -10.312   0.000  0.00  0.00    +0.164 C 
ATOM      8  O   UNL     1      11.431  -9.900   0.000  0.00  0.00    -0.350 OA
ATOM      9  C   UNL     1      11.431  -9.075   0.000  0.00  0.00    +0.164 C 
ATOM     10  C   UNL     1      10.717  -8.662   0.000  0.00  0.00    +0.124 C 
ATOM     11  C   UNL     1       9.288  -7.838   0.000  0.00  0.00    +0.034 A 
ATOM     12  C   UNL     1       8.574  -7.425   0.000  0.00  0.00    +0.002 A 
ENDROOT
BRANCH   1  13
ATOM     13  C   UNL     1       7.145  -7.425   0.000  0.00  0.00    +0.143 C 
BRANCH  13  15
ATOM     14  C   UNL     1       5.716  -7.425   0.000  0.00  0.00    +0.269 C 
ATOM     15  N   UNL     1       6.430  -7.838   0.000  0.00  0.00    -0.198 NA
ATOM     16  O   UNL     1       5.716  -6.600   0.000  0.00  0.00    -0.271 OA
BRANCH  14  17
ATOM     17  C   UNL     1       5.001  -7.838   0.000  0.00  0.00    +0.193 C 
ATOM     18  C   UNL     1       5.001  -8.662   0.000  0.00  0.00    +0.042 C 
BRANCH  17  19
ATOM     19  O   UNL     1       4.287  -7.425   0.000  0.00  0.00    -0.347 OA
BRANCH  19  20
ATOM     20  C   UNL     1       3.572  -7.838   0.000  0.00  0.00    +0.143 C 
BRANCH  20  22
ATOM     21  C   UNL     1       2.143  -7.838   0.000  0.00  0.00    +0.003 C 
ATOM     22  C   UNL     1       2.858  -7.425   0.000  0.00  0.00    +0.030 C 
ATOM     23  C   UNL     1       2.858  -6.600   0.000  0.00  0.00    +0.003 C 
ENDBRANCH  20  22
ENDBRANCH  19  20
ENDBRANCH  17  19
ENDBRANCH  14  17
ENDBRANCH  13  15
ENDBRANCH   1  13
TORSDOF 6
