REMARK  Name = 
REMARK  2 active torsions:
REMARK  status: ('A' for Active; 'I' for Inactive)
REMARK    1  A    between atoms: C_2  and  C_4
REMARK    2  A    between atoms: N_11  and  C_12
REMARK                            x       y       z     vdW  Elec       q    Type
REMARK                         _______ _______ _______ _____ _____    ______ ____
ROOT
ATOM      1  C   UNL     1       2.751  -2.537   0.000  0.00  0.00    +0.112 A 
ATOM      2  S   UNL     1       2.084  -3.022   0.000  0.00  0.00    -0.033 S 
ATOM      3  C   UNL     1       2.339  -3.806   0.000  0.00  0.00    +0.209 A 
ATOM      4  N   UNL     1       1.854  -4.474   0.000  0.00  0.00    -0.134 NA
ATOM      5  C   UNL     1       1.033  -4.387   0.000  0.00  0.00    +0.345 C 
ATOM      6  N   UNL     1       0.548  -5.055   0.000  0.00  0.00    -0.189 NA
ATOM      7  O   UNL     1       0.698  -3.634   0.000  0.00  0.00    -0.249 OA
ATOM      8  N   UNL     1       3.164  -3.806   0.000  0.00  0.00    -0.124 NA
ATOM      9  N   UNL     1       3.419  -3.022   0.000  0.00  0.00    -0.144 NA
ENDROOT
BRANCH   6  10
ATOM     10  C   UNL     1      -0.272  -4.969   0.000  0.00  0.00    +0.097 C 
ATOM     11  C   UNL     1      -0.608  -4.215   0.000  0.00  0.00    +0.024 C 
ATOM     12  C   UNL     1      -1.428  -4.129   0.000  0.00  0.00    +0.035 C 
ATOM     13  C   UNL     1      -1.913  -4.796   0.000  0.00  0.00    +0.152 C 
ATOM     14  O   UNL     1      -2.734  -4.710   0.000  0.00  0.00    -0.223 OA
ATOM     15  C   UNL     1      -1.577  -5.550   0.000  0.00  0.00    +0.035 C 
ATOM     16  C   UNL     1      -0.757  -5.636   0.000  0.00  0.00    +0.024 C 
ENDBRANCH   6  10
BRANCH   1  18
ATOM     17  C   UNL     1       3.466  -1.299   0.000  0.00  0.00    +0.007 C 
ATOM     18  C   UNL     1       2.751  -1.712   0.000  0.00  0.00    +0.048 C 
ATOM     19  C   UNL     1       2.037  -1.299   0.000  0.00  0.00    +0.007 C 
ENDBRANCH   1  18
TORSDOF 2
