REMARK  Name = 
REMARK  4 active torsions:
REMARK  status: ('A' for Active; 'I' for Inactive)
REMARK    1  A    between atoms: C_2  and  N_4
REMARK    2  A    between atoms: N_12  and  C_13
REMARK    3  A    between atoms: N_16  and  C_17
REMARK    4  A    between atoms: C_17  and  C_18
REMARK                            x       y       z     vdW  Elec       q    Type
REMARK                         _______ _______ _______ _____ _____    ______ ____
ROOT
ATOM      1  N   UNL     1       2.143   8.416   0.000  0.00  0.00    -0.271 NA
ATOM      2  C   UNL     1       1.429   8.004   0.000  0.00  0.00    +0.094 C 
ATOM      3  C   UNL     1       1.429   7.179   0.000  0.00  0.00    +0.112 C 
ATOM      4  N   UNL     1       2.143   6.766   0.000  0.00  0.00    -0.260 N 
ATOM      5  C   UNL     1       2.143   5.941   0.000  0.00  0.00    +0.328 C 
ATOM      6  N   UNL     1       1.429   5.529   0.000  0.00  0.00    -0.159 NA
ATOM      7  O   UNL     1       2.858   5.529   0.000  0.00  0.00    -0.250 OA
ATOM      8  C   UNL     1       2.858   7.179   0.000  0.00  0.00    +0.112 C 
ATOM      9  C   UNL     1       2.858   8.004   0.000  0.00  0.00    +0.094 C 
ENDROOT
BRANCH   6  10
ATOM     10  C   UNL     1       1.429   4.704   0.000  0.00  0.00    +0.114 A 
ATOM     11  C   UNL     1       0.761   4.219   0.000  0.00  0.00    +0.114 A 
ATOM     12  N   UNL     1       1.016   3.434   0.000  0.00  0.00    -0.239 N 
ATOM     13  N   UNL     1       1.841   3.434   0.000  0.00  0.00    -0.166 NA
ATOM     14  C   UNL     1       2.096   4.219   0.000  0.00  0.00    +0.138 A 
BRANCH  12  15
ATOM     15  C   UNL     1       0.531   2.767   0.000  0.00  0.00    +0.215 C 
BRANCH  15  16
ATOM     16  C   UNL     1      -0.289   2.853   0.000  0.00  0.00    +0.286 C 
ATOM     17  N   UNL     1      -0.625   3.607   0.000  0.00  0.00    -0.086 NA
ATOM     18  O   UNL     1      -0.774   2.185   0.000  0.00  0.00    -0.269 OA
ENDBRANCH  15  16
ENDBRANCH  12  15
ENDBRANCH   6  10
BRANCH   1  20
ATOM     19  C   UNL     1       1.429   9.654   0.000  0.00  0.00    +0.017 C 
ATOM     20  C   UNL     1       2.143   9.241   0.000  0.00  0.00    +0.058 C 
ATOM     21  C   UNL     1       2.858   9.654   0.000  0.00  0.00    +0.017 C 
ENDBRANCH   1  20
TORSDOF 4
