REMARK  Name = 
REMARK  3 active torsions:
REMARK  status: ('A' for Active; 'I' for Inactive)
REMARK    1  A    between atoms: N_2  and  C1*_4
REMARK    2  A    between atoms: C4*_15  and  C5*_22
REMARK    3  A    between atoms: C_16  and  C_20
REMARK                            x       y       z     vdW  Elec       q    Type
REMARK                         _______ _______ _______ _____ _____    ______ ____
ROOT
ATOM      1  C   UNL     1       0.637   1.113   0.000  0.00  0.00    +0.172 A 
ATOM      2  N   UNL     1       1.354   0.700   0.000  0.00  0.00    -0.193 NA
ATOM      3  C   UNL     1       2.067   1.113   0.000  0.00  0.00    +0.247 A 
ATOM      4  N   UNL     1       2.067   1.938   0.000  0.00  0.00    -0.172 NA
ATOM      5  C   UNL     1       1.354   2.350   0.000  0.00  0.00    +0.302 A 
ATOM      6  O   UNL     1       1.354   3.175   0.000  0.00  0.00    -0.263 OA
ATOM      7  N   UNL     1       2.783   0.700   0.000  0.00  0.00    -0.143 NA
ATOM      8  C   UNL     1       3.496   1.113   0.000  0.00  0.00    +0.248 C 
ATOM      9  O   UNL     1       3.496   1.938   0.000  0.00  0.00    -0.273 OA
ATOM     10  C   UNL     1       0.637   1.938   0.000  0.00  0.00    +0.175 A 
ATOM     11  N   UNL     1      -0.146   2.192   0.000  0.00  0.00    -0.217 NA
ATOM     12  C   UNL     1      -0.629   1.525   0.000  0.00  0.00    +0.182 A 
ATOM     13  N   UNL     1      -0.146   0.858   0.000  0.00  0.00    -0.269 N 
ENDROOT
BRANCH  13  14
ATOM     14  C1* UNL     1      -0.400   0.075   0.000  0.00  0.00    +0.241 C 
ATOM     15  O4* UNL     1       0.083  -0.596   0.000  0.00  0.00    -0.331 OA
ATOM     16  C4* UNL     1      -0.400  -1.262   0.000  0.00  0.00    +0.183 C 
ATOM     17  C3* UNL     1      -1.183  -1.008   0.000  0.00  0.00    +0.216 C 
ATOM     18  O3* UNL     1      -1.854  -1.492   0.000  0.00  0.00    -0.218 OA
ATOM     19  C2* UNL     1      -1.183  -0.183   0.000  0.00  0.00    +0.234 C 
ATOM     20  O2* UNL     1      -1.854   0.304   0.000  0.00  0.00    -0.216 OA
BRANCH  16  21
ATOM     21  C5* UNL     1      -0.146  -2.046   0.000  0.00  0.00    +0.214 C 
ATOM     22  O5* UNL     1       0.662  -2.217   0.000  0.00  0.00    -0.218 OA
ENDBRANCH  16  21
ENDBRANCH  13  14
BRANCH   8  23
ATOM     23  C   UNL     1       4.213   0.700   0.000  0.00  0.00    +0.079 C 
ATOM     24  C   UNL     1       4.213  -0.125   0.000  0.00  0.00    +0.010 C 
ATOM     25  C   UNL     1       4.925   1.113   0.000  0.00  0.00    +0.010 C 
ENDBRANCH   8  23
TORSDOF 3
