REMARK  Name = 
REMARK  4 active torsions:
REMARK  status: ('A' for Active; 'I' for Inactive)
REMARK    1  A    between atoms: C_2  and  C_3
REMARK    2  A    between atoms: C_2  and  N_10
REMARK    3  A    between atoms: C_3  and  C_4
REMARK    4  A    between atoms: N_10  and  C_11
REMARK                            x       y       z     vdW  Elec       q    Type
REMARK                         _______ _______ _______ _____ _____    ______ ____
ROOT
ATOM      1  C   UNL     1       5.024  -0.786   0.000  0.00  0.00    +0.019 C 
ATOM      2  C   UNL     1       4.309  -0.374   0.000  0.00  0.00    +0.079 C 
ENDROOT
BRANCH   2   3
ATOM      3  N   UNL     1       4.309   0.451   0.000  0.00  0.00    -0.220 NA
BRANCH   3   4
ATOM      4  C   UNL     1       5.024   0.864   0.000  0.00  0.00    +0.073 C 
ATOM      5  C   UNL     1       5.777   0.528   0.000  0.00  0.00    +0.015 C 
ATOM      6  C   UNL     1       5.531  -0.259   0.000  0.00  0.00    +0.001 C 
ATOM      7  C   UNL     1       6.323  -0.091   0.000  0.00  0.00    +0.001 C 
ATOM      8  C   UNL     1       6.330   1.141   0.000  0.00  0.00    +0.001 C 
ATOM      9  C   UNL     1       5.917   1.856   0.000  0.00  0.00    +0.001 C 
ATOM     10  C   UNL     1       5.110   1.684   0.000  0.00  0.00    +0.017 C 
ENDBRANCH   3   4
ENDBRANCH   2   3
BRANCH   2  11
ATOM     11  C   UNL     1       3.595  -0.786   0.000  0.00  0.00    +0.065 C 
BRANCH  11  12
ATOM     12  C   UNL     1       3.595  -1.611   0.000  0.00  0.00    +0.083 A 
ATOM     13  N   UNL     1       2.928  -2.096   0.000  0.00  0.00    -0.153 NA
ATOM     14  N   UNL     1       3.182  -2.881   0.000  0.00  0.00    -0.153 NA
ATOM     15  C   UNL     1       4.007  -2.881   0.000  0.00  0.00    +0.082 A 
ATOM     16  C   UNL     1       4.492  -3.548   0.000  0.00  0.00    +0.054 C 
ATOM     17  C   UNL     1       4.262  -2.096   0.000  0.00  0.00    +0.033 A 
ENDBRANCH  11  12
ENDBRANCH   2  11
TORSDOF 4
