REMARK  Name = 
REMARK  6 active torsions:
REMARK  status: ('A' for Active; 'I' for Inactive)
REMARK    1  A    between atoms: O_2  and  C_3
REMARK    2  A    between atoms: C_3  and  C_4
REMARK    3  A    between atoms: C_4  and  N_5
REMARK    4  A    between atoms: C_6  and  C_14
REMARK    5  A    between atoms: C_14  and  N_16
REMARK    6  A    between atoms: C_17  and  C_19
REMARK                            x       y       z     vdW  Elec       q    Type
REMARK                         _______ _______ _______ _____ _____    ______ ____
ROOT
ATOM      1  N   UNL     1       1.139  -1.365   0.000  0.00  0.00    -0.311 N 
ATOM      2  C   UNL     1       1.923  -1.110   0.000  0.00  0.00    +0.079 A 
ATOM      3  C   UNL     1       1.923  -0.285   0.000  0.00  0.00    +0.098 A 
ATOM      4  C   UNL     1       2.638   0.127   0.000  0.00  0.00    +0.021 A 
ATOM      5  C   UNL     1       3.352  -0.285   0.000  0.00  0.00    +0.002 A 
ATOM      6  C   UNL     1       3.352  -1.110   0.000  0.00  0.00    +0.002 A 
ATOM      7  N   UNL     1       1.139  -0.030   0.000  0.00  0.00    -0.229 NA
ATOM      8  C   UNL     1       2.638  -1.523   0.000  0.00  0.00    +0.019 A 
ATOM      9  C   UNL     1       0.654  -0.698   0.000  0.00  0.00    +0.140 A 
ENDROOT
BRANCH   9  10
ATOM     10  C   UNL     1      -0.171  -0.698   0.000  0.00  0.00    +0.152 C 
ATOM     11  C   UNL     1      -0.584  -1.412   0.000  0.00  0.00    +0.032 C 
BRANCH  10  12
ATOM     12  N   UNL     1      -0.584   0.017   0.000  0.00  0.00    -0.193 NA
ATOM     13  C   UNL     1      -1.409   0.017   0.000  0.00  0.00    +0.300 C 
ATOM     14  O   UNL     1      -1.821  -0.698   0.000  0.00  0.00    -0.265 OA
BRANCH  13  15
ATOM     15  C   UNL     1      -1.821   0.731   0.000  0.00  0.00    +0.200 A 
ATOM     16  O   UNL     1      -1.486   1.485   0.000  0.00  0.00    -0.446 OA
ATOM     17  C   UNL     1      -2.099   2.037   0.000  0.00  0.00    +0.180 A 
ATOM     18  C   UNL     1      -2.813   1.624   0.000  0.00  0.00    +0.044 A 
ATOM     19  C   UNL     1      -2.642   0.817   0.000  0.00  0.00    +0.046 A 
ENDBRANCH  13  15
ENDBRANCH  10  12
ENDBRANCH   9  10
BRANCH   1  20
ATOM     20  C   UNL     1       0.884  -2.150   0.000  0.00  0.00    +0.139 C 
BRANCH  20  21
ATOM     21  C   UNL     1       1.436  -2.763   0.000  0.00  0.00    +0.167 C 
BRANCH  21  23
ATOM     22  C   UNL     1       1.733  -4.161   0.000  0.00  0.00    +0.174 C 
ATOM     23  O   UNL     1       1.181  -3.548   0.000  0.00  0.00    -0.349 OA
ENDBRANCH  21  23
ENDBRANCH  20  21
ENDBRANCH   1  20
TORSDOF 6
