REMARK  Name = 
REMARK  5 active torsions:
REMARK  status: ('A' for Active; 'I' for Inactive)
REMARK    1  A    between atoms: C_5  and  C_6
REMARK    2  A    between atoms: C_9  and  N_10
REMARK    3  A    between atoms: N_13  and  C_14
REMARK    4  A    between atoms: C_14  and  C_16
REMARK    5  A    between atoms: C_14  and  C_18
REMARK                            x       y       z     vdW  Elec       q    Type
REMARK                         _______ _______ _______ _____ _____    ______ ____
ROOT
ATOM      1  N   UNL     1      -0.265   3.849   0.000  0.00  0.00    -0.157 NA
ATOM      2  C   UNL     1      -0.878   4.401   0.000  0.00  0.00    +0.344 C 
ATOM      3  N   UNL     1      -1.663   4.146   0.000  0.00  0.00    -0.188 NA
ATOM      4  O   UNL     1      -0.707   5.208   0.000  0.00  0.00    -0.249 OA
ENDROOT
BRANCH   1   7
ATOM      5  C   UNL     1       0.289   5.556   0.000  0.00  0.00    +0.057 C 
ATOM      6  C   UNL     1       0.774   4.888   0.000  0.00  0.00    +0.116 A 
ATOM      7  C   UNL     1       0.519   4.104   0.000  0.00  0.00    +0.124 A 
ATOM      8  C   UNL     1       1.187   3.619   0.000  0.00  0.00    +0.169 A 
ATOM      9  O   UNL     1       1.854   4.104   0.000  0.00  0.00    -0.357 OA
ATOM     10  N   UNL     1       1.599   4.888   0.000  0.00  0.00    -0.080 NA
BRANCH   8  11
ATOM     11  C   UNL     1       1.187   2.794   0.000  0.00  0.00    +0.062 C 
ATOM     12  C   UNL     1       0.774   2.079   0.000  0.00  0.00    +0.008 C 
ATOM     13  C   UNL     1       1.599   2.079   0.000  0.00  0.00    +0.008 C 
ENDBRANCH   8  11
ENDBRANCH   1   7
BRANCH   3  14
ATOM     14  C   UNL     1      -2.276   4.698   0.000  0.00  0.00    +0.111 C 
ATOM     15  C   UNL     1      -1.724   5.311   0.000  0.00  0.00    +0.024 C 
BRANCH  14  16
ATOM     16  C   UNL     1      -2.828   4.085   0.000  0.00  0.00    +0.021 C 
ATOM     17  C   UNL     1      -3.613   3.830   0.000  0.00  0.00    +0.002 C 
ATOM     18  C   UNL     1      -3.000   3.278   0.000  0.00  0.00    +0.002 C 
ENDBRANCH  14  16
BRANCH  14  19
ATOM     19  C   UNL     1      -2.889   5.250   0.000  0.00  0.00    +0.202 C 
ATOM     20  O   UNL     1      -3.674   4.995   0.000  0.00  0.00    -0.219 OA
ENDBRANCH  14  19
ENDBRANCH   3  14
TORSDOF 5
