REMARK  Name = 
REMARK  4 active torsions:
REMARK  status: ('A' for Active; 'I' for Inactive)
REMARK    1  A    between atoms: N_6  and  C_11
REMARK    2  A    between atoms: C_11  and  O_13
REMARK    3  A    between atoms: O_13  and  C_16
REMARK    4  A    between atoms: C_15  and  C_16
REMARK                            x       y       z     vdW  Elec       q    Type
REMARK                         _______ _______ _______ _____ _____    ______ ____
ROOT
ATOM      1  C   UNL     1       1.587  -0.396   0.000  0.00  0.00    +0.172 A 
ATOM      2  N   UNL     1       1.675   0.425   0.000  0.00  0.00    -0.268 N 
ATOM      3  C   UNL     1       0.921   0.758   0.000  0.00  0.00    +0.182 A 
ATOM      4  N   UNL     1       0.367   0.146   0.000  0.00  0.00    -0.217 NA
ATOM      5  N   UNL     1       2.138  -1.012   0.000  0.00  0.00    -0.192 NA
ATOM      6  C   UNL     1       1.883  -1.796   0.000  0.00  0.00    +0.261 A 
ATOM      7  N   UNL     1       2.438  -2.408   0.000  0.00  0.00    -0.086 NA
ATOM      8  N   UNL     1       1.075  -1.967   0.000  0.00  0.00    -0.171 NA
ATOM      9  C   UNL     1       0.525  -1.354   0.000  0.00  0.00    +0.302 A 
ATOM     10  O   UNL     1      -0.283  -1.525   0.000  0.00  0.00    -0.263 OA
ATOM     11  C   UNL     1       0.779  -0.571   0.000  0.00  0.00    +0.175 A 
ENDROOT
BRANCH   2  12
ATOM     12  C   UNL     1       2.388   0.838   0.000  0.00  0.00    +0.258 C 
BRANCH  12  13
ATOM     13  O   UNL     1       3.100   0.425   0.000  0.00  0.00    -0.329 OA
BRANCH  13  14
ATOM     14  C   UNL     1       3.817   0.838   0.000  0.00  0.00    +0.180 C 
BRANCH  14  15
ATOM     15  C   UNL     1       4.529   0.425   0.000  0.00  0.00    +0.214 C 
ATOM     16  O   UNL     1       5.246   0.838   0.000  0.00  0.00    -0.218 OA
ENDBRANCH  14  15
ENDBRANCH  13  14
ENDBRANCH  12  13
ENDBRANCH   2  12
TORSDOF 4
