REMARK  Name = 
REMARK  6 active torsions:
REMARK  status: ('A' for Active; 'I' for Inactive)
REMARK    1  A    between atoms: C_8  and  C_9
REMARK    2  A    between atoms: C_9  and  C_10
REMARK    3  A    between atoms: N_12  and  C_13
REMARK    4  A    between atoms: C_13  and  C_14
REMARK    5  A    between atoms: C_14  and  S_15
REMARK    6  A    between atoms: S_15  and  C_16
REMARK                            x       y       z     vdW  Elec       q    Type
REMARK                         _______ _______ _______ _____ _____    ______ ____
ROOT
ATOM      1  C   UNL     1       3.163  -2.952   0.000  0.00  0.00    +0.246 C 
ATOM      2  N   UNL     1       3.878  -3.364   0.000  0.00  0.00    -0.204 NA
ATOM      3  O   UNL     1       3.163  -2.127   0.000  0.00  0.00    -0.273 OA
ENDROOT
BRANCH   1   4
ATOM      4  C   UNL     1       2.449  -3.364   0.000  0.00  0.00    +0.115 C 
BRANCH   4   7
ATOM      5  C   UNL     1       0.809  -4.094   0.000  0.00  0.00    +0.054 C 
ATOM      6  C   UNL     1       0.981  -3.287   0.000  0.00  0.00    +0.077 A 
ATOM      7  C   UNL     1       1.734  -2.952   0.000  0.00  0.00    +0.015 A 
ATOM      8  C   UNL     1       1.648  -2.131   0.000  0.00  0.00    +0.054 A 
ATOM      9  C   UNL     1       2.261  -1.579   0.000  0.00  0.00    +0.051 C 
ATOM     10  N   UNL     1       0.841  -1.960   0.000  0.00  0.00    -0.253 N 
ATOM     11  C   UNL     1       0.506  -1.206   0.000  0.00  0.00    +0.153 C 
ATOM     12  N   UNL     1       0.429  -2.674   0.000  0.00  0.00    -0.174 NA
ENDBRANCH   4   7
ENDBRANCH   1   4
BRANCH   2  13
ATOM     13  C   UNL     1       4.592  -2.952   0.000  0.00  0.00    +0.127 C 
BRANCH  13  14
ATOM     14  C   UNL     1       5.307  -3.364   0.000  0.00  0.00    +0.081 C 
BRANCH  14  15
ATOM     15  S   UNL     1       6.021  -2.952   0.000  0.00  0.00    -0.139 S 
BRANCH  15  16
ATOM     16  C   UNL     1       6.736  -3.364   0.000  0.00  0.00    +0.048 C 
ATOM     17  C   UNL     1       6.822  -4.185   0.000  0.00  0.00    +0.011 C 
ATOM     18  C   UNL     1       7.629  -4.356   0.000  0.00  0.00    +0.001 C 
ATOM     19  C   UNL     1       8.041  -3.642   0.000  0.00  0.00    +0.001 C 
ATOM     20  C   UNL     1       7.489  -3.029   0.000  0.00  0.00    +0.011 C 
ENDBRANCH  15  16
ENDBRANCH  14  15
ENDBRANCH  13  14
ENDBRANCH   2  13
TORSDOF 6
