REMARK  Name = 
REMARK  4 active torsions:
REMARK  status: ('A' for Active; 'I' for Inactive)
REMARK    1  A    between atoms: C_2  and  N_3
REMARK    2  A    between atoms: C_2  and  C_14
REMARK    3  A    between atoms: C_4  and  C_6
REMARK    4  A    between atoms: C_6  and  C_7
REMARK                            x       y       z     vdW  Elec       q    Type
REMARK                         _______ _______ _______ _____ _____    ______ ____
ROOT
ATOM      1  N   UNL     1       2.102  -1.996   0.000  0.00  0.00    -0.207 NA
ATOM      2  C   UNL     1       2.816  -2.408   0.000  0.00  0.00    +0.246 C 
ATOM      3  O   UNL     1       2.816  -3.233   0.000  0.00  0.00    -0.273 OA
ENDROOT
BRANCH   1   5
ATOM      4  C   UNL     1       1.387  -3.233   0.000  0.00  0.00    +0.023 C 
ATOM      5  C   UNL     1       1.387  -2.408   0.000  0.00  0.00    +0.095 C 
BRANCH   5   6
ATOM      6  C   UNL     1       0.672  -1.996   0.000  0.00  0.00    +0.020 C 
ATOM      7  C   UNL     1       0.260  -1.281   0.000  0.00  0.00    +0.002 C 
ATOM      8  C   UNL     1      -0.152  -1.996   0.000  0.00  0.00    +0.002 C 
ENDBRANCH   5   6
ENDBRANCH   1   5
BRANCH   2   9
ATOM      9  C   UNL     1       3.530  -1.996   0.000  0.00  0.00    +0.117 C 
BRANCH   9  10
ATOM     10  C   UNL     1       4.245  -2.408   0.000  0.00  0.00    +0.037 A 
ATOM     11  C   UNL     1       4.331  -3.229   0.000  0.00  0.00    +0.151 A 
ATOM     12  C   UNL     1       3.718  -3.781   0.000  0.00  0.00    +0.075 C 
ATOM     13  O   UNL     1       5.138  -3.400   0.000  0.00  0.00    -0.358 OA
ATOM     14  N   UNL     1       5.551  -2.686   0.000  0.00  0.00    -0.082 NA
ATOM     15  C   UNL     1       4.999  -2.073   0.000  0.00  0.00    +0.097 A 
ATOM     16  C   UNL     1       5.170  -1.266   0.000  0.00  0.00    +0.055 C 
ENDBRANCH   9  10
ENDBRANCH   2   9
TORSDOF 4
