REMARK  Name = 
REMARK  7 active torsions:
REMARK  status: ('A' for Active; 'I' for Inactive)
REMARK    1  A    between atoms: C_2  and  C_3
REMARK    2  A    between atoms: C_2  and  N_9
REMARK    3  A    between atoms: C_3  and  N_4
REMARK    4  A    between atoms: N_9  and  C_10
REMARK    5  A    between atoms: C_10  and  C_12
REMARK    6  A    between atoms: N_14  and  C_15
REMARK    7  A    between atoms: C_15  and  C_16
REMARK                            x       y       z     vdW  Elec       q    Type
REMARK                         _______ _______ _______ _____ _____    ______ ____
ROOT
ATOM      1  N   UNL     1       1.202  -1.240   0.000  0.00  0.00    -0.210 NA
ENDROOT
BRANCH   1   2
ATOM      2  C   UNL     1       1.917  -1.653   0.000  0.00  0.00    +0.150 C 
ATOM      3  C   UNL     1       1.917  -2.478   0.000  0.00  0.00    +0.029 C 
BRANCH   2   4
ATOM      4  C   UNL     1       2.631  -1.240   0.000  0.00  0.00    +0.257 C 
ATOM      5  N   UNL     1       3.345  -1.653   0.000  0.00  0.00    -0.199 NA
ATOM      6  O   UNL     1       2.631  -0.415   0.000  0.00  0.00    -0.272 OA
BRANCH   5   7
ATOM      7  C   UNL     1       4.060  -1.240   0.000  0.00  0.00    +0.141 C 
BRANCH   7   8
ATOM      8  C   UNL     1       4.774  -1.653   0.000  0.00  0.00    -0.003 C 
ATOM      9  C   UNL     1       5.489  -1.240   0.000  0.00  0.00    -0.003 C 
ENDBRANCH   7   8
ENDBRANCH   5   7
ENDBRANCH   2   4
ENDBRANCH   1   2
BRANCH   1  11
ATOM     10  C   UNL     1       0.487  -2.478   0.000  0.00  0.00    +0.021 C 
ATOM     11  C   UNL     1       0.487  -1.653   0.000  0.00  0.00    +0.098 C 
BRANCH  11  12
ATOM     12  C   UNL     1      -0.227  -1.240   0.000  0.00  0.00    +0.145 C 
BRANCH  12  13
ATOM     13  N   UNL     1      -0.941  -1.653   0.000  0.00  0.00    -0.248 N 
ATOM     14  N   UNL     1      -1.695  -1.317   0.000  0.00  0.00    -0.168 NA
ATOM     15  C   UNL     1      -2.247  -1.930   0.000  0.00  0.00    +0.122 A 
ATOM     16  C   UNL     1      -1.835  -2.645   0.000  0.00  0.00    +0.043 A 
ATOM     17  C   UNL     1      -1.028  -2.473   0.000  0.00  0.00    +0.097 A 
ENDBRANCH  12  13
ENDBRANCH  11  12
ENDBRANCH   1  11
TORSDOF 7
