REMARK  Name = 
REMARK  3 active torsions:
REMARK  status: ('A' for Active; 'I' for Inactive)
REMARK    1  A    between atoms: N_9  and  C_10
REMARK    2  A    between atoms: C_10  and  C_11
REMARK    3  A    between atoms: C_10  and  C_16
REMARK                            x       y       z     vdW  Elec       q    Type
REMARK                         _______ _______ _______ _____ _____    ______ ____
ROOT
ATOM      1  C   UNL     1       0.750  -0.224   0.000  0.00  0.00    +0.154 C 
ATOM      2  N   UNL     1       1.504  -0.560   0.000  0.00  0.00    -0.246 N 
ATOM      3  N   UNL     1       1.675  -1.367   0.000  0.00  0.00    -0.152 NA
ATOM      4  C   UNL     1       2.496  -1.453   0.000  0.00  0.00    +0.177 A 
ATOM      5  N   UNL     1       2.908  -2.167   0.000  0.00  0.00    -0.140 NA
ATOM      6  C   UNL     1       3.733  -2.167   0.000  0.00  0.00    +0.345 C 
ATOM      7  N   UNL     1       4.146  -2.882   0.000  0.00  0.00    -0.180 NA
ATOM      8  O   UNL     1       4.146  -1.453   0.000  0.00  0.00    -0.249 OA
ATOM      9  C   UNL     1       2.832  -0.699   0.000  0.00  0.00    +0.058 A 
ATOM     10  C   UNL     1       2.218  -0.147   0.000  0.00  0.00    +0.098 A 
ENDROOT
BRANCH   7  11
ATOM     11  C   UNL     1       4.971  -2.882   0.000  0.00  0.00    +0.191 C 
BRANCH  11  12
ATOM     12  C   UNL     1       5.383  -3.596   0.000  0.00  0.00    +0.029 C 
ATOM     13  C   UNL     1       5.048  -4.350   0.000  0.00  0.00    +0.002 C 
ATOM     14  C   UNL     1       5.661  -4.902   0.000  0.00  0.00    +0.000 C 
ATOM     15  C   UNL     1       6.375  -4.489   0.000  0.00  0.00    +0.000 C 
ATOM     16  C   UNL     1       6.204  -3.682   0.000  0.00  0.00    +0.002 C 
ENDBRANCH  11  12
BRANCH  11  17
ATOM     17  C   UNL     1       5.383  -2.167   0.000  0.00  0.00    +0.416 C 
ATOM     18  F   UNL     1       5.796  -1.453   0.000  0.00  0.00    -0.168 F 
ATOM     19  F   UNL     1       4.669  -1.755   0.000  0.00  0.00    -0.168 F 
ATOM     20  F   UNL     1       6.098  -2.580   0.000  0.00  0.00    -0.168 F 
ENDBRANCH  11  17
ENDBRANCH   7  11
TORSDOF 3
