REMARK  Name = 
REMARK  2 active torsions:
REMARK  status: ('A' for Active; 'I' for Inactive)
REMARK    1  A    between atoms: N_5  and  C_6
REMARK    2  A    between atoms: C_6  and  C_7
REMARK                            x       y       z     vdW  Elec       q    Type
REMARK                         _______ _______ _______ _____ _____    ______ ____
ROOT
ATOM      1  C   UNL     1       0.107   7.240   0.000  0.00  0.00    +0.159 C 
ATOM      2  N   UNL     1      -0.608   6.828   0.000  0.00  0.00    -0.199 N 
ATOM      3  C   UNL     1      -1.322   7.240   0.000  0.00  0.00    +0.350 A 
ATOM      4  O   UNL     1      -1.322   8.065   0.000  0.00  0.00    -0.245 OA
ATOM      5  N   UNL     1      -2.037   6.828   0.000  0.00  0.00    -0.243 N 
ATOM      6  C   UNL     1      -2.751   7.240   0.000  0.00  0.00    +0.138 C 
ATOM      7  C   UNL     1      -2.037   6.003   0.000  0.00  0.00    +0.299 A 
ATOM      8  O   UNL     1      -2.751   5.590   0.000  0.00  0.00    -0.264 OA
ATOM      9  C   UNL     1      -1.322   5.590   0.000  0.00  0.00    +0.224 A 
ATOM     10  N   UNL     1      -1.322   4.765   0.000  0.00  0.00    -0.212 NA
ATOM     11  N   UNL     1      -0.608   6.003   0.000  0.00  0.00    -0.144 NA
ENDROOT
BRANCH  10  12
ATOM     12  C   UNL     1      -2.037   4.353   0.000  0.00  0.00    +0.143 C 
BRANCH  12  13
ATOM     13  C   UNL     1      -2.037   3.528   0.000  0.00  0.00    +0.137 C 
ATOM     14  O   UNL     1      -2.704   3.043   0.000  0.00  0.00    -0.354 OA
ATOM     15  C   UNL     1      -2.449   2.258   0.000  0.00  0.00    +0.142 C 
ATOM     16  C   UNL     1      -1.624   2.258   0.000  0.00  0.00    +0.035 C 
ATOM     17  C   UNL     1      -1.369   3.043   0.000  0.00  0.00    +0.034 C 
ENDBRANCH  12  13
ENDBRANCH  10  12
TORSDOF 2
