REMARK  Name = 
REMARK  2 active torsions:
REMARK  status: ('A' for Active; 'I' for Inactive)
REMARK    1  A    between atoms: C_9  and  N_11
REMARK    2  A    between atoms: N_14  and  C_15
REMARK                            x       y       z     vdW  Elec       q    Type
REMARK                         _______ _______ _______ _____ _____    ______ ____
ROOT
ATOM      1  N   UNL     1       3.561  -0.030   0.000  0.00  0.00    -0.189 NA
ATOM      2  C   UNL     1       3.973   0.685   0.000  0.00  0.00    +0.343 C 
ATOM      3  N   UNL     1       3.561   1.399   0.000  0.00  0.00    -0.159 NA
ATOM      4  O   UNL     1       4.798   0.685   0.000  0.00  0.00    -0.249 OA
ENDROOT
BRANCH   3   5
ATOM      5  C   UNL     1       3.973   2.114   0.000  0.00  0.00    +0.094 A 
ATOM      6  C   UNL     1       4.798   2.114   0.000  0.00  0.00    +0.117 A 
ATOM      7  N   UNL     1       5.211   2.828   0.000  0.00  0.00    -0.228 NA
ATOM      8  C   UNL     1       4.798   3.543   0.000  0.00  0.00    +0.132 A 
ATOM      9  N   UNL     1       5.211   4.257   0.000  0.00  0.00    -0.293 N 
ATOM     10  C   UNL     1       6.031   4.343   0.000  0.00  0.00    +0.092 C 
ATOM     11  C   UNL     1       6.203   5.150   0.000  0.00  0.00    +0.023 C 
ATOM     12  C   UNL     1       5.488   5.563   0.000  0.00  0.00    +0.023 C 
ATOM     13  C   UNL     1       4.875   5.011   0.000  0.00  0.00    +0.092 C 
ATOM     14  C   UNL     1       3.973   3.543   0.000  0.00  0.00    +0.036 A 
ATOM     15  C   UNL     1       3.561   2.828   0.000  0.00  0.00    +0.021 A 
ENDBRANCH   3   5
BRANCH   1  20
ATOM     16  C   UNL     1       0.721  -0.515   0.000  0.00  0.00    +0.090 C 
ATOM     17  N   UNL     1       1.388  -0.030   0.000  0.00  0.00    -0.274 NA
ATOM     18  C   UNL     1       1.658  -1.108   0.000  0.00  0.00    +0.059 C 
ATOM     19  C   UNL     1       2.420  -0.792   0.000  0.00  0.00    +0.038 C 
ATOM     20  C   UNL     1       2.736  -0.030   0.000  0.00  0.00    +0.100 C 
ATOM     21  C   UNL     1       2.420   0.733   0.000  0.00  0.00    +0.038 C 
ATOM     22  C   UNL     1       0.895  -0.792   0.000  0.00  0.00    +0.016 C 
ATOM     23  C   UNL     1       0.580  -0.030   0.000  0.00  0.00    +0.003 C 
ATOM     24  C   UNL     1       0.895   0.733   0.000  0.00  0.00    +0.016 C 
ATOM     25  C   UNL     1       1.658   1.048   0.000  0.00  0.00    +0.059 C 
ENDBRANCH   1  20
TORSDOF 2
