REMARK  Name = 
REMARK  7 active torsions:
REMARK  status: ('A' for Active; 'I' for Inactive)
REMARK    1  A    between atoms: N_1  and  C_8
REMARK    2  A    between atoms: C_11  and  C_24
REMARK    3  A    between atoms: C_11  and  C_25
REMARK    4  A    between atoms: C_18  and  C_26
REMARK    5  A    between atoms: C_20  and  C_29
REMARK    6  A    between atoms: O_22  and  C_26
REMARK    7  A    between atoms: O_22  and  C_29
REMARK                            x       y       z     vdW  Elec       q    Type
REMARK                         _______ _______ _______ _____ _____    ______ ____
ROOT
ATOM      1  N   UNL     1       1.137  -1.363   0.000  0.00  0.00    -0.296 N 
ATOM      2  C   UNL     1       0.650  -0.696   0.000  0.00  0.00    +0.180 A 
ATOM      3  N   UNL     1       1.137  -0.029   0.000  0.00  0.00    -0.219 NA
ATOM      4  C   UNL     1       1.921  -0.283   0.000  0.00  0.00    +0.149 A 
ATOM      5  C   UNL     1       2.638   0.129   0.000  0.00  0.00    +0.154 A 
ATOM      6  N   UNL     1       3.350  -0.283   0.000  0.00  0.00    -0.207 NA
ATOM      7  C   UNL     1       3.350  -1.108   0.000  0.00  0.00    +0.201 A 
ATOM      8  N   UNL     1       2.638  -1.521   0.000  0.00  0.00    -0.205 NA
ATOM      9  N   UNL     1       2.638   0.954   0.000  0.00  0.00    -0.287 N 
ATOM     10  C   UNL     1       1.921   1.367   0.000  0.00  0.00    +0.124 C 
ATOM     11  C   UNL     1       1.921   2.192   0.000  0.00  0.00    +0.164 C 
ATOM     12  O   UNL     1       2.638   2.604   0.000  0.00  0.00    -0.350 OA
ATOM     13  C   UNL     1       3.350   2.192   0.000  0.00  0.00    +0.164 C 
ATOM     14  C   UNL     1       3.350   1.367   0.000  0.00  0.00    +0.124 C 
ATOM     15  C   UNL     1       1.921  -1.108   0.000  0.00  0.00    +0.167 A 
ENDROOT
BRANCH   1  16
ATOM     16  C   UNL     1       0.883  -2.150   0.000  0.00  0.00    +0.089 C 
ATOM     17  C   UNL     1       0.146  -2.521   0.000  0.00  0.00    +0.028 C 
ATOM     18  C   UNL     1       0.521  -3.258   0.000  0.00  0.00    +0.065 C 
ATOM     19  C   UNL     1       1.254  -2.883   0.000  0.00  0.00    +0.028 C 
BRANCH  18  20
ATOM     20  C   UNL     1      -0.212  -3.633   0.000  0.00  0.00    +0.185 C 
ATOM     21  O   UNL     1      -0.904  -3.183   0.000  0.00  0.00    -0.220 OA
ENDBRANCH  18  20
BRANCH  18  22
ATOM     22  C   UNL     1       0.896  -3.992   0.000  0.00  0.00    +0.185 C 
ATOM     23  O   UNL     1       1.721  -4.037   0.000  0.00  0.00    -0.220 OA
ENDBRANCH  18  22
ENDBRANCH   1  16
BRANCH  13  24
ATOM     24  C   UNL     1       4.067   2.604   0.000  0.00  0.00    +0.173 C 
BRANCH  24  25
ATOM     25  O   UNL     1       4.779   2.192   0.000  0.00  0.00    -0.351 OA
BRANCH  25  26
ATOM     26  C   UNL     1       5.492   2.604   0.000  0.00  0.00    +0.142 C 
BRANCH  26  27
ATOM     27  C   UNL     1       6.208   2.192   0.000  0.00  0.00    +0.030 C 
ATOM     28  C   UNL     1       7.033   2.192   0.000  0.00  0.00    +0.003 C 
ATOM     29  C   UNL     1       6.621   1.479   0.000  0.00  0.00    +0.003 C 
ENDBRANCH  26  27
ENDBRANCH  25  26
ENDBRANCH  24  25
ENDBRANCH  13  24
TORSDOF 7
