REMARK  Name = 
REMARK  2 active torsions:
REMARK  status: ('A' for Active; 'I' for Inactive)
REMARK    1  A    between atoms: C_7  and  N_8
REMARK    2  A    between atoms: N_11  and  C_12
REMARK                            x       y       z     vdW  Elec       q    Type
REMARK                         _______ _______ _______ _____ _____    ______ ____
ROOT
ATOM      1  N   UNL     1      -0.178  -3.106   0.000  0.00  0.00    -0.142 NA
ATOM      2  C   UNL     1       0.077  -2.321   0.000  0.00  0.00    +0.345 C 
ATOM      3  N   UNL     1       0.884  -2.150   0.000  0.00  0.00    -0.187 NA
ATOM      4  O   UNL     1      -0.475  -1.708   0.000  0.00  0.00    -0.249 OA
ENDROOT
BRANCH   3   5
ATOM      5  C   UNL     1       1.139  -1.365   0.000  0.00  0.00    +0.113 C 
ATOM      6  C   UNL     1       1.923  -1.110   0.000  0.00  0.00    +0.078 C 
ATOM      7  N   UNL     1       1.923  -0.285   0.000  0.00  0.00    -0.272 NA
ATOM      8  C   UNL     1       2.638   0.127   0.000  0.00  0.00    +0.072 C 
ATOM      9  C   UNL     1       3.352  -0.285   0.000  0.00  0.00    +0.017 C 
ATOM     10  C   UNL     1       3.352  -1.110   0.000  0.00  0.00    +0.003 C 
ATOM     11  C   UNL     1       1.139  -0.030   0.000  0.00  0.00    +0.074 C 
ATOM     12  C   UNL     1       2.638  -1.523   0.000  0.00  0.00    +0.018 C 
ATOM     13  C   UNL     1       0.654  -0.698   0.000  0.00  0.00    +0.040 C 
ENDBRANCH   3   5
BRANCH   1  16
ATOM     14  C   UNL     1      -0.688  -4.675   0.000  0.00  0.00    +0.034 C 
ATOM     15  C   UNL     1      -1.240  -4.062   0.000  0.00  0.00    +0.012 A 
ATOM     16  C   UNL     1      -0.985  -3.278   0.000  0.00  0.00    +0.152 A 
ATOM     17  N   UNL     1      -1.537  -2.665   0.000  0.00  0.00    -0.228 NA
ATOM     18  C   UNL     1      -2.344  -2.836   0.000  0.00  0.00    +0.100 A 
ATOM     19  C   UNL     1      -2.599  -3.621   0.000  0.00  0.00    +0.020 A 
ATOM     20  C   UNL     1      -2.047  -4.234   0.000  0.00  0.00    +0.000 A 
ENDBRANCH   1  16
TORSDOF 2
