REMARK  Name = 
REMARK  5 active torsions:
REMARK  status: ('A' for Active; 'I' for Inactive)
REMARK    1  A    between atoms: C_2  and  C_3
REMARK    2  A    between atoms: C_2  and  N_10
REMARK    3  A    between atoms: C_3  and  N_4
REMARK    4  A    between atoms: N_13  and  C_14
REMARK    5  A    between atoms: C_19  and  N_20
REMARK                            x       y       z     vdW  Elec       q    Type
REMARK                         _______ _______ _______ _____ _____    ______ ____
ROOT
ATOM      1  N   UNL     1      -0.715  -1.238   0.000  0.00  0.00    -0.187 NA
ATOM      2  C   UNL     1       0.000  -1.650   0.000  0.00  0.00    +0.344 C 
ATOM      3  N   UNL     1       0.715  -1.238   0.000  0.00  0.00    -0.157 NA
ATOM      4  O   UNL     1       0.000  -2.475   0.000  0.00  0.00    -0.249 OA
ENDROOT
BRANCH   3   5
ATOM      5  C   UNL     1       0.715  -0.412   0.000  0.00  0.00    +0.126 A 
ATOM      6  C   UNL     1       1.429   0.000   0.000  0.00  0.00    +0.151 A 
ATOM      7  N   UNL     1       1.429   0.825   0.000  0.00  0.00    -0.208 NA
ATOM      8  C   UNL     1       0.715   1.238   0.000  0.00  0.00    +0.200 A 
ATOM      9  N   UNL     1       0.000   0.825   0.000  0.00  0.00    -0.221 NA
ATOM     10  C   UNL     1       0.000   0.000   0.000  0.00  0.00    +0.120 A 
BRANCH   6  11
ATOM     11  N   UNL     1       2.143  -0.412   0.000  0.00  0.00    -0.289 N 
ATOM     12  C   UNL     1       2.858   0.000   0.000  0.00  0.00    +0.114 C 
ATOM     13  C   UNL     1       2.143  -1.238   0.000  0.00  0.00    +0.114 C 
ENDBRANCH   6  11
ENDBRANCH   3   5
BRANCH   1  15
ATOM     14  C   UNL     1      -1.429  -2.475   0.000  0.00  0.00    +0.025 C 
ATOM     15  C   UNL     1      -1.429  -1.650   0.000  0.00  0.00    +0.113 C 
BRANCH  15  16
ATOM     16  C   UNL     1      -2.143  -1.238   0.000  0.00  0.00    +0.094 C 
BRANCH  16  17
ATOM     17  N   UNL     1      -2.858  -1.650   0.000  0.00  0.00    -0.271 NA
ATOM     18  C   UNL     1      -3.572  -1.238   0.000  0.00  0.00    +0.072 C 
ATOM     19  C   UNL     1      -4.287  -1.650   0.000  0.00  0.00    +0.017 C 
ATOM     20  C   UNL     1      -4.287  -2.475   0.000  0.00  0.00    +0.003 C 
ATOM     21  C   UNL     1      -3.572  -2.888   0.000  0.00  0.00    +0.017 C 
ATOM     22  C   UNL     1      -2.858  -2.475   0.000  0.00  0.00    +0.072 C 
ENDBRANCH  16  17
ENDBRANCH  15  16
ENDBRANCH   1  15
TORSDOF 5
