REMARK  Name = 
REMARK  3 active torsions:
REMARK  status: ('A' for Active; 'I' for Inactive)
REMARK    1  A    between atoms: C_8  and  C_9
REMARK    2  A    between atoms: C_9  and  C_10
REMARK    3  A    between atoms: C_10  and  N_11
REMARK                            x       y       z     vdW  Elec       q    Type
REMARK                         _______ _______ _______ _____ _____    ______ ____
ROOT
ATOM      1  C   UNL     1       1.793   0.715   0.000  0.00  0.00    +0.052 C 
ENDROOT
BRANCH   1   4
ATOM      2  C   UNL     1       0.153  -0.016   0.000  0.00  0.00    +0.054 C 
ATOM      3  C   UNL     1       0.324   0.791   0.000  0.00  0.00    +0.076 A 
ATOM      4  C   UNL     1       1.078   1.127   0.000  0.00  0.00    +0.008 A 
ATOM      5  C   UNL     1       0.992   1.948   0.000  0.00  0.00    +0.053 A 
ATOM      6  C   UNL     1       1.605   2.499   0.000  0.00  0.00    +0.051 C 
ATOM      7  N   UNL     1       0.185   2.119   0.000  0.00  0.00    -0.253 N 
ATOM      8  C   UNL     1      -0.151   2.873   0.000  0.00  0.00    +0.153 C 
ATOM      9  N   UNL     1      -0.228   1.405   0.000  0.00  0.00    -0.174 NA
ENDBRANCH   1   4
BRANCH   1  10
ATOM     10  C   UNL     1       2.507   1.127   0.000  0.00  0.00    +0.122 C 
BRANCH  10  11
ATOM     11  N   UNL     1       3.221   0.715   0.000  0.00  0.00    -0.188 NA
ATOM     12  C   UNL     1       3.936   1.127   0.000  0.00  0.00    +0.323 C 
ATOM     13  N   UNL     1       4.651   0.715   0.000  0.00  0.00    -0.263 N 
ATOM     14  C   UNL     1       4.864  -0.082   0.000  0.00  0.00    +0.097 C 
ATOM     15  C   UNL     1       5.661   0.131   0.000  0.00  0.00    +0.043 C 
ATOM     16  C   UNL     1       5.447   0.928   0.000  0.00  0.00    +0.097 C 
ATOM     17  O   UNL     1       3.936   1.952   0.000  0.00  0.00    -0.251 OA
ENDBRANCH  10  11
ENDBRANCH   1  10
TORSDOF 3
