REMARK  Name = 
REMARK  3 active torsions:
REMARK  status: ('A' for Active; 'I' for Inactive)
REMARK    1  A    between atoms: C_2  and  C_3
REMARK    2  A    between atoms: C_3  and  N_7
REMARK    3  A    between atoms: C_13  and  O_14
REMARK                            x       y       z     vdW  Elec       q    Type
REMARK                         _______ _______ _______ _____ _____    ______ ____
ROOT
ATOM      1  N   UNL     1       3.290  -1.570   0.000  0.00  0.00    -0.190 NA
ATOM      2  C   UNL     1       4.087  -1.783   0.000  0.00  0.00    +0.345 C 
ATOM      3  N   UNL     1       4.670  -1.200   0.000  0.00  0.00    -0.142 NA
ATOM      4  C   UNL     1       5.467  -1.413   0.000  0.00  0.00    +0.162 A 
ATOM      5  N   UNL     1       5.681  -2.210   0.000  0.00  0.00    -0.207 NA
ATOM      6  C   UNL     1       6.478  -2.424   0.000  0.00  0.00    +0.203 A 
ATOM      7  N   UNL     1       7.061  -1.841   0.000  0.00  0.00    -0.189 NA
ATOM      8  C   UNL     1       6.848  -1.044   0.000  0.00  0.00    +0.229 A 
ATOM      9  C   UNL     1       6.051  -0.830   0.000  0.00  0.00    +0.094 A 
ATOM     10  O   UNL     1       4.301  -2.580   0.000  0.00  0.00    -0.249 OA
ENDROOT
BRANCH   1  11
ATOM     11  C   UNL     1       2.707  -2.153   0.000  0.00  0.00    +0.080 C 
ATOM     12  C   UNL     1       2.123  -2.736   0.000  0.00  0.00    +0.020 C 
ATOM     13  C   UNL     1       2.707  -3.320   0.000  0.00  0.00    +0.003 C 
ATOM     14  C   UNL     1       3.290  -2.736   0.000  0.00  0.00    +0.020 C 
BRANCH  11  16
ATOM     15  C   UNL     1       2.337  -0.773   0.000  0.00  0.00    +0.002 C 
ATOM     16  C   UNL     1       2.123  -1.570   0.000  0.00  0.00    +0.020 C 
ENDBRANCH  11  16
ENDBRANCH   1  11
BRANCH   8  17
ATOM     17  O   UNL     1       7.431  -0.460   0.000  0.00  0.00    -0.456 OA
ATOM     18  C   UNL     1       8.228  -0.674   0.000  0.00  0.00    +0.254 C 
ENDBRANCH   8  17
TORSDOF 3
