REMARK  Name = 
REMARK  5 active torsions:
REMARK  status: ('A' for Active; 'I' for Inactive)
REMARK    1  A    between atoms: C_2  and  C_4
REMARK    2  A    between atoms: C_7  and  C_10
REMARK    3  A    between atoms: N_12  and  C_13
REMARK    4  A    between atoms: C_13  and  C_14
REMARK    5  A    between atoms: C_14  and  C_16
REMARK                            x       y       z     vdW  Elec       q    Type
REMARK                         _______ _______ _______ _____ _____    ______ ____
ROOT
ATOM      1  C   UNL     1       0.715  -2.888   0.000  0.00  0.00    +0.241 C 
ATOM      2  N   UNL     1       1.429  -2.475   0.000  0.00  0.00    -0.202 NA
ATOM      3  O   UNL     1       0.715  -3.712   0.000  0.00  0.00    -0.273 OA
ENDROOT
BRANCH   1   7
ATOM      4  C   UNL     1      -1.429  -1.650   0.000  0.00  0.00    +0.000 C 
ATOM      5  C   UNL     1      -1.429  -2.475   0.000  0.00  0.00    +0.000 C 
ATOM      6  C   UNL     1      -0.715  -2.888   0.000  0.00  0.00    +0.009 C 
ATOM      7  C   UNL     1       0.000  -2.475   0.000  0.00  0.00    +0.078 C 
ATOM      8  C   UNL     1       0.000  -1.650   0.000  0.00  0.00    +0.009 C 
ATOM      9  C   UNL     1      -0.715  -1.238   0.000  0.00  0.00    +0.000 C 
BRANCH   4  11
ATOM     10  C   UNL     1      -2.858  -1.650   0.000  0.00  0.00    +0.000 C 
ATOM     11  C   UNL     1      -2.143  -1.238   0.000  0.00  0.00    +0.000 C 
ATOM     12  C   UNL     1      -2.143  -0.412   0.000  0.00  0.00    +0.000 C 
ENDBRANCH   4  11
ENDBRANCH   1   7
BRANCH   2  13
ATOM     13  C   UNL     1       2.143  -2.888   0.000  0.00  0.00    +0.153 C 
BRANCH  13  14
ATOM     14  C   UNL     1       2.858  -2.475   0.000  0.00  0.00    +0.197 C 
ATOM     15  O   UNL     1       2.858  -1.650   0.000  0.00  0.00    -0.216 OA
BRANCH  14  16
ATOM     16  C   UNL     1       3.572  -2.888   0.000  0.00  0.00    +0.029 A 
ATOM     17  C   UNL     1       3.572  -3.712   0.000  0.00  0.00    +0.097 A 
ATOM     18  N   UNL     1       4.287  -4.125   0.000  0.00  0.00    -0.243 NA
ATOM     19  C   UNL     1       5.001  -3.712   0.000  0.00  0.00    +0.099 A 
ATOM     20  C   UNL     1       5.001  -2.888   0.000  0.00  0.00    +0.020 A 
ATOM     21  C   UNL     1       4.287  -2.475   0.000  0.00  0.00    +0.001 A 
ENDBRANCH  14  16
ENDBRANCH  13  14
ENDBRANCH   2  13
TORSDOF 5
