REMARK  Name = 
REMARK  4 active torsions:
REMARK  status: ('A' for Active; 'I' for Inactive)
REMARK    1  A    between atoms: N_2  and  C_3
REMARK    2  A    between atoms: C_3  and  C_4
REMARK    3  A    between atoms: N_6  and  C_7
REMARK    4  A    between atoms: C_7  and  C_8
REMARK                            x       y       z     vdW  Elec       q    Type
REMARK                         _______ _______ _______ _____ _____    ______ ____
ROOT
ATOM      1  C   UNL     1       1.429  -2.475   0.000  0.00  0.00    +0.151 C 
ATOM      2  O   UNL     1       0.715  -2.888   0.000  0.00  0.00    -0.352 OA
ATOM      3  C   UNL     1       0.715  -3.712   0.000  0.00  0.00    +0.159 C 
ATOM      4  C   UNL     1       1.429  -4.125   0.000  0.00  0.00    +0.105 C 
ATOM      5  N   UNL     1       2.143  -3.712   0.000  0.00  0.00    -0.261 NA
ATOM      6  C   UNL     1       2.143  -2.888   0.000  0.00  0.00    +0.104 C 
ENDROOT
BRANCH   1   7
ATOM      7  C   UNL     1       1.429  -1.650   0.000  0.00  0.00    +0.123 C 
BRANCH   7   9
ATOM      8  C   UNL     1       0.000  -1.650   0.000  0.00  0.00    +0.114 C 
ATOM      9  N   UNL     1       0.715  -1.238   0.000  0.00  0.00    -0.288 N 
ATOM     10  C   UNL     1       0.715  -0.412   0.000  0.00  0.00    +0.154 A 
ATOM     11  N   UNL     1       1.429   0.000   0.000  0.00  0.00    -0.133 NA
ATOM     12  N   UNL     1       1.429   0.825   0.000  0.00  0.00    -0.145 NA
ATOM     13  C   UNL     1       0.715   1.238   0.000  0.00  0.00    +0.122 A 
ATOM     14  C   UNL     1       0.000   0.825   0.000  0.00  0.00    +0.025 A 
ATOM     15  C   UNL     1       0.000   0.000   0.000  0.00  0.00    +0.038 A 
ENDBRANCH   7   9
ENDBRANCH   1   7
BRANCH   5  16
ATOM     16  C   UNL     1       2.858  -4.125   0.000  0.00  0.00    +0.162 C 
BRANCH  16  17
ATOM     17  C   UNL     1       2.858  -4.950   0.000  0.00  0.00    +0.277 C 
ATOM     18  N   UNL     1       2.143  -5.362   0.000  0.00  0.00    -0.087 NA
ATOM     19  O   UNL     1       3.572  -5.362   0.000  0.00  0.00    -0.270 OA
ENDBRANCH  16  17
ENDBRANCH   5  16
TORSDOF 4
