REMARK  Name = 
REMARK  3 active torsions:
REMARK  status: ('A' for Active; 'I' for Inactive)
REMARK    1  A    between atoms: C_6  and  N_7
REMARK    2  A    between atoms: N_10  and  C_11
REMARK    3  A    between atoms: N_14  and  C_17
REMARK                            x       y       z     vdW  Elec       q    Type
REMARK                         _______ _______ _______ _____ _____    ______ ____
ROOT
ATOM      1  N   UNL     1       0.000   8.004   0.000  0.00  0.00    -0.156 NA
ATOM      2  C   UNL     1       0.000   7.179   0.000  0.00  0.00    +0.344 C 
ATOM      3  N   UNL     1       0.715   6.766   0.000  0.00  0.00    -0.189 NA
ATOM      4  O   UNL     1      -0.715   6.766   0.000  0.00  0.00    -0.249 OA
ENDROOT
BRANCH   1   9
ATOM      5  C   UNL     1      -2.858   8.004   0.000  0.00  0.00    +0.134 C 
ATOM      6  N   UNL     1      -2.143   8.416   0.000  0.00  0.00    -0.291 N 
ATOM      7  C   UNL     1      -1.429   8.004   0.000  0.00  0.00    +0.276 A 
ATOM      8  O   UNL     1      -1.429   7.179   0.000  0.00  0.00    -0.266 OA
ATOM      9  C   UNL     1      -0.715   8.416   0.000  0.00  0.00    +0.131 A 
ATOM     10  C   UNL     1      -0.715   9.241   0.000  0.00  0.00    +0.023 A 
ATOM     11  C   UNL     1      -1.429   9.654   0.000  0.00  0.00    +0.020 A 
ATOM     12  C   UNL     1      -2.143   9.241   0.000  0.00  0.00    +0.078 A 
ENDBRANCH   1   9
BRANCH   3  13
ATOM     13  C   UNL     1       0.715   5.941   0.000  0.00  0.00    +0.100 C 
ATOM     14  C   UNL     1       0.000   5.529   0.000  0.00  0.00    +0.039 C 
ATOM     15  C   UNL     1       0.000   4.704   0.000  0.00  0.00    +0.074 C 
ATOM     16  N   UNL     1       0.715   4.291   0.000  0.00  0.00    -0.274 NA
ATOM     17  C   UNL     1       1.429   4.704   0.000  0.00  0.00    +0.074 C 
ATOM     18  C   UNL     1       1.429   5.529   0.000  0.00  0.00    +0.039 C 
BRANCH  16  19
ATOM     19  C   UNL     1       0.715   3.466   0.000  0.00  0.00    +0.058 C 
ATOM     20  C   UNL     1       0.047   2.981   0.000  0.00  0.00    +0.016 C 
ATOM     21  C   UNL     1       0.302   2.196   0.000  0.00  0.00    +0.001 C 
ATOM     22  C   UNL     1       1.127   2.196   0.000  0.00  0.00    +0.001 C 
ATOM     23  C   UNL     1       1.382   2.981   0.000  0.00  0.00    +0.016 C 
ENDBRANCH  16  19
ENDBRANCH   3  13
TORSDOF 3
