REMARK  Name = 
REMARK  8 active torsions:
REMARK  status: ('A' for Active; 'I' for Inactive)
REMARK    1  A    between atoms: N_2  and  C_11
REMARK    2  A    between atoms: C_5  and  N_7
REMARK    3  A    between atoms: N_7  and  C_15
REMARK    4  A    between atoms: N_7  and  C_21
REMARK    5  A    between atoms: C_10  and  C_11
REMARK    6  A    between atoms: C_10  and  C_20
REMARK    7  A    between atoms: C_13  and  C_17
REMARK    8  A    between atoms: C_15  and  C_17
REMARK                            x       y       z     vdW  Elec       q    Type
REMARK                         _______ _______ _______ _____ _____    ______ ____
ROOT
ATOM      1  C   UNL     1       0.600  -3.074   0.000  0.00  0.00    +0.149 A 
ATOM      2  C   UNL     1       1.425  -3.074   0.000  0.00  0.00    +0.154 A 
ATOM      3  N   UNL     1       1.837  -3.791   0.000  0.00  0.00    -0.207 NA
ATOM      4  C   UNL     1       1.425  -4.503   0.000  0.00  0.00    +0.201 A 
ATOM      5  N   UNL     1       0.600  -4.503   0.000  0.00  0.00    -0.205 NA
ATOM      6  N   UNL     1       0.050  -2.462   0.000  0.00  0.00    -0.219 NA
ATOM      7  C   UNL     1      -0.704  -2.799   0.000  0.00  0.00    +0.180 A 
ATOM      8  N   UNL     1      -0.617  -3.620   0.000  0.00  0.00    -0.294 N 
ATOM      9  C   UNL     1       0.187  -3.791   0.000  0.00  0.00    +0.167 A 
ENDROOT
BRANCH   8  10
ATOM     10  C   UNL     1      -1.229  -4.170   0.000  0.00  0.00    +0.116 C 
BRANCH  10  11
ATOM     11  C   UNL     1      -1.058  -4.978   0.000  0.00  0.00    +0.106 C 
ATOM     12  C   UNL     1      -0.254  -4.807   0.000  0.00  0.00    +0.149 C 
ATOM     13  O   UNL     1      -0.079  -5.611   0.000  0.00  0.00    -0.353 OA
ATOM     14  C   UNL     1      -0.887  -5.786   0.000  0.00  0.00    +0.149 C 
BRANCH  11  15
ATOM     15  C   UNL     1      -1.866  -5.149   0.000  0.00  0.00    +0.189 C 
ATOM     16  O   UNL     1      -2.120  -5.932   0.000  0.00  0.00    -0.220 OA
ENDBRANCH  11  15
ENDBRANCH  10  11
ENDBRANCH   8  10
BRANCH   2  17
ATOM     17  N   UNL     1       1.837  -2.362   0.000  0.00  0.00    -0.291 N 
BRANCH  17  18
ATOM     18  C   UNL     1       1.425  -1.649   0.000  0.00  0.00    +0.092 C 
ATOM     19  C   UNL     1       1.837  -0.933   0.000  0.00  0.00    +0.023 C 
ENDBRANCH  17  18
BRANCH  17  20
ATOM     20  C   UNL     1       2.662  -2.362   0.000  0.00  0.00    +0.107 C 
BRANCH  20  21
ATOM     21  C   UNL     1       3.074  -1.649   0.000  0.00  0.00    +0.111 C 
ATOM     22  C   UNL     1       2.662  -0.933   0.000  0.00  0.00    +0.018 C 
BRANCH  21  23
ATOM     23  C   UNL     1       3.899  -1.649   0.000  0.00  0.00    +0.074 C 
ATOM     24  N   UNL     1       4.724  -1.649   0.000  0.00  0.00    -0.196 NA
ENDBRANCH  21  23
ENDBRANCH  20  21
ENDBRANCH  17  20
ENDBRANCH   2  17
TORSDOF 8
