REMARK  Name = 
REMARK  6 active torsions:
REMARK  status: ('A' for Active; 'I' for Inactive)
REMARK    1  A    between atoms: C_5  and  S_6
REMARK    2  A    between atoms: S_6  and  C_7
REMARK    3  A    between atoms: C_7  and  C_8
REMARK    4  A    between atoms: C_7  and  C_10
REMARK    5  A    between atoms: N_16  and  C_17
REMARK    6  A    between atoms: C_17  and  C_18
REMARK                            x       y       z     vdW  Elec       q    Type
REMARK                         _______ _______ _______ _____ _____    ______ ____
ROOT
ATOM      1  C   UNL     1       1.429  -1.650   0.000  0.00  0.00    +0.074 C 
ATOM      2  C   UNL     1       1.429  -2.475   0.000  0.00  0.00    +0.144 A 
ATOM      3  N   UNL     1       0.761  -2.960   0.000  0.00  0.00    -0.285 N 
ATOM      4  C   UNL     1       1.016  -3.744   0.000  0.00  0.00    +0.194 A 
ATOM      5  N   UNL     1       1.841  -3.744   0.000  0.00  0.00    -0.122 NA
ATOM      6  N   UNL     1       2.096  -2.960   0.000  0.00  0.00    -0.133 NA
ENDROOT
BRANCH   3   7
ATOM      7  C   UNL     1      -0.023  -2.705   0.000  0.00  0.00    +0.198 C 
BRANCH   7   8
ATOM      8  C   UNL     1      -0.195  -1.898   0.000  0.00  0.00    +0.284 C 
ATOM      9  N   UNL     1       0.418  -1.346   0.000  0.00  0.00    -0.086 NA
ATOM     10  O   UNL     1      -0.979  -1.643   0.000  0.00  0.00    -0.270 OA
ENDBRANCH   7   8
ENDBRANCH   3   7
BRANCH   4  11
ATOM     11  S   UNL     1       0.531  -4.412   0.000  0.00  0.00    -0.061 S 
BRANCH  11  12
ATOM     12  C   UNL     1       0.867  -5.166   0.000  0.00  0.00    +0.145 C 
BRANCH  12  13
ATOM     13  C   UNL     1       0.382  -5.833   0.000  0.00  0.00    +0.025 C 
ATOM     14  C   UNL     1      -0.438  -5.747   0.000  0.00  0.00    +0.002 C 
ATOM     15  C   UNL     1      -0.923  -6.414   0.000  0.00  0.00    +0.000 C 
ATOM     16  C   UNL     1      -0.588  -7.168   0.000  0.00  0.00    +0.000 C 
ATOM     17  C   UNL     1       0.233  -7.254   0.000  0.00  0.00    +0.000 C 
ATOM     18  C   UNL     1       0.718  -6.587   0.000  0.00  0.00    +0.002 C 
ENDBRANCH  12  13
BRANCH  12  19
ATOM     19  C   UNL     1       1.688  -5.252   0.000  0.00  0.00    +0.084 C 
ATOM     20  N   UNL     1       2.508  -5.338   0.000  0.00  0.00    -0.195 NA
ENDBRANCH  12  19
ENDBRANCH  11  12
ENDBRANCH   4  11
TORSDOF 6
