REMARK  Name = 
REMARK  4 active torsions:
REMARK  status: ('A' for Active; 'I' for Inactive)
REMARK    1  A    between atoms: N_2  and  C_4
REMARK    2  A    between atoms: C_4  and  C_5
REMARK    3  A    between atoms: C_5  and  C_6
REMARK    4  A    between atoms: C_6  and  N_7
REMARK                            x       y       z     vdW  Elec       q    Type
REMARK                         _______ _______ _______ _____ _____    ______ ____
ROOT
ATOM      1  C   UNL     1       1.429  -1.650   0.000  0.00  0.00    +0.118 C 
ENDROOT
BRANCH   1   2
ATOM      2  N   UNL     1       1.429  -2.475   0.000  0.00  0.00    -0.187 NA
ATOM      3  C   UNL     1       2.143  -2.888   0.000  0.00  0.00    +0.345 C 
ATOM      4  N   UNL     1       2.858  -2.475   0.000  0.00  0.00    -0.140 NA
ATOM      5  C   UNL     1       3.572  -2.888   0.000  0.00  0.00    +0.177 A 
ATOM      6  N   UNL     1       3.572  -3.712   0.000  0.00  0.00    -0.131 NA
ATOM      7  N   UNL     1       4.287  -4.125   0.000  0.00  0.00    -0.145 NA
ATOM      8  C   UNL     1       5.001  -3.712   0.000  0.00  0.00    +0.122 A 
ATOM      9  C   UNL     1       5.001  -2.888   0.000  0.00  0.00    +0.025 A 
ATOM     10  C   UNL     1       4.287  -2.475   0.000  0.00  0.00    +0.040 A 
ATOM     11  O   UNL     1       2.143  -3.712   0.000  0.00  0.00    -0.249 OA
ENDBRANCH   1   2
BRANCH   1  12
ATOM     12  C   UNL     1       2.143  -1.238   0.000  0.00  0.00    +0.035 C 
ATOM     13  C   UNL     1       2.479  -1.991   0.000  0.00  0.00    +0.003 C 
ATOM     14  C   UNL     1       3.300  -1.905   0.000  0.00  0.00    +0.000 C 
ATOM     15  C   UNL     1       3.471  -1.098   0.000  0.00  0.00    +0.000 C 
ATOM     16  C   UNL     1       2.756  -0.685   0.000  0.00  0.00    +0.003 C 
BRANCH  12  17
ATOM     17  C   UNL     1       1.659  -0.570   0.000  0.00  0.00    +0.074 C 
BRANCH  17  19
ATOM     18  C   UNL     1       0.353   0.011   0.000  0.00  0.00    +0.090 C 
ATOM     19  N   UNL     1       0.838  -0.656   0.000  0.00  0.00    -0.270 NA
ATOM     20  C   UNL     1       0.502  -1.410   0.000  0.00  0.00    +0.090 C 
ENDBRANCH  17  19
ENDBRANCH  12  17
ENDBRANCH   1  12
TORSDOF 4
