REMARK  Name = 
REMARK  1 active torsions:
REMARK  status: ('A' for Active; 'I' for Inactive)
REMARK    1  A    between atoms: C_2  and  CA_4
REMARK                            x       y       z     vdW  Elec       q    Type
REMARK                         _______ _______ _______ _____ _____    ______ ____
ROOT
ATOM      1  CA  UNL     1       0.715  -1.238   0.000  0.00  0.00    +0.176 A 
ATOM      2  C   UNL     1       0.000  -1.650   0.000  0.00  0.00    +0.101 A 
ATOM      3 CL   UNL     1      -0.715  -1.238   0.000  0.00  0.00    -0.079 Cl
ATOM      4  C   UNL     1       0.000  -2.475   0.000  0.00  0.00    +0.115 A 
ATOM      5  N   UNL     1       0.715  -2.888   0.000  0.00  0.00    -0.211 NA
ATOM      6  C   UNL     1       1.429  -2.475   0.000  0.00  0.00    +0.221 A 
ATOM      7  N   UNL     1       2.143  -2.888   0.000  0.00  0.00    -0.273 N 
ATOM      8  C   UNL     1       2.143  -3.712   0.000  0.00  0.00    +0.126 C 
ATOM      9  C   UNL     1       2.858  -4.125   0.000  0.00  0.00    +0.164 C 
ATOM     10  O   UNL     1       3.572  -3.712   0.000  0.00  0.00    -0.350 OA
ATOM     11  C   UNL     1       3.572  -2.888   0.000  0.00  0.00    +0.164 C 
ATOM     12  C   UNL     1       2.858  -2.475   0.000  0.00  0.00    +0.126 C 
ATOM     13  N   UNL     1       1.429  -1.650   0.000  0.00  0.00    -0.206 NA
ENDROOT
BRANCH   1  15
ATOM     14  O   UNL     1       0.000   0.000   0.000  0.00  0.00    -0.239 OA
ATOM     15  C   UNL     1       0.715  -0.412   0.000  0.00  0.00    +0.406 C 
ATOM     16  OXT UNL     1       1.429   0.000   0.000  0.00  0.00    -0.239 OA
ENDBRANCH   1  15
TORSDOF 1
