REMARK  Name = 
REMARK  5 active torsions:
REMARK  status: ('A' for Active; 'I' for Inactive)
REMARK    1  A    between atoms: C_2  and  O_3
REMARK    2  A    between atoms: O_3  and  C_4
REMARK    3  A    between atoms: C_4  and  C_5
REMARK    4  A    between atoms: C_5  and  C_7
REMARK    5  A    between atoms: C_7  and  N_8
REMARK                            x       y       z     vdW  Elec       q    Type
REMARK                         _______ _______ _______ _____ _____    ______ ____
ROOT
ATOM      1  N   UNL     1       9.139  -0.851   0.000  0.00  0.00    -0.229 N 
ATOM      2  C   UNL     1       9.893  -1.187   0.000  0.00  0.00    +0.100 A 
ATOM      3  C   UNL     1      10.445  -0.574   0.000  0.00  0.00    +0.123 A 
ATOM      4  C   UNL     1      11.252  -0.745   0.000  0.00  0.00    +0.035 A 
ATOM      5  C   UNL     1      11.507  -1.530   0.000  0.00  0.00    +0.070 A 
ATOM      6  C   UNL     1      10.955  -2.143   0.000  0.00  0.00    +0.070 A 
ATOM      7 CL   UNL     1      11.210  -2.928   0.000  0.00  0.00    -0.081 Cl
ATOM      8 CL   UNL     1      12.314  -1.701   0.000  0.00  0.00    -0.081 Cl
ATOM      9  N   UNL     1      10.033   0.141   0.000  0.00  0.00    -0.129 NA
ATOM     10  C   UNL     1      10.148  -1.971   0.000  0.00  0.00    +0.033 A 
ATOM     11  N   UNL     1       9.226  -0.031   0.000  0.00  0.00    -0.064 NA
ENDROOT
BRANCH   1  12
ATOM     12  C   UNL     1       8.425  -1.264   0.000  0.00  0.00    +0.165 C 
BRANCH  12  13
ATOM     13  C   UNL     1       7.710  -0.851   0.000  0.00  0.00    +0.206 C 
ATOM     14  O   UNL     1       7.710  -0.026   0.000  0.00  0.00    -0.218 OA
BRANCH  13  15
ATOM     15  C   UNL     1       6.996  -1.264   0.000  0.00  0.00    +0.177 C 
BRANCH  15  16
ATOM     16  O   UNL     1       6.282  -0.851   0.000  0.00  0.00    -0.351 OA
BRANCH  16  18
ATOM     17  C   UNL     1       4.853  -0.851   0.000  0.00  0.00    +0.035 C 
ATOM     18  C   UNL     1       5.567  -1.264   0.000  0.00  0.00    +0.142 C 
ENDBRANCH  16  18
ENDBRANCH  15  16
ENDBRANCH  13  15
ENDBRANCH  12  13
ENDBRANCH   1  12
TORSDOF 5
