REMARK  Name = 
REMARK  4 active torsions:
REMARK  status: ('A' for Active; 'I' for Inactive)
REMARK    1  A    between atoms: N_2  and  C_10
REMARK    2  A    between atoms: C_8  and  C_10
REMARK    3  A    between atoms: N_9  and  C_17
REMARK    4  A    between atoms: C_17  and  C_18
REMARK                            x       y       z     vdW  Elec       q    Type
REMARK                         _______ _______ _______ _____ _____    ______ ____
ROOT
ATOM      1  C   UNL     1       1.921  -0.283   0.000  0.00  0.00    +0.149 A 
ATOM      2  C   UNL     1       2.638   0.129   0.000  0.00  0.00    +0.154 A 
ATOM      3  N   UNL     1       3.350  -0.283   0.000  0.00  0.00    -0.207 NA
ATOM      4  C   UNL     1       3.350  -1.108   0.000  0.00  0.00    +0.201 A 
ATOM      5  N   UNL     1       2.638  -1.521   0.000  0.00  0.00    -0.205 NA
ATOM      6  N   UNL     1       2.638   0.954   0.000  0.00  0.00    -0.290 N 
ATOM      7  C   UNL     1       1.921   1.367   0.000  0.00  0.00    +0.114 C 
ATOM      8  N   UNL     1       1.137  -0.029   0.000  0.00  0.00    -0.219 NA
ATOM      9  C   UNL     1       0.650  -0.696   0.000  0.00  0.00    +0.180 A 
ATOM     10  N   UNL     1       1.137  -1.363   0.000  0.00  0.00    -0.292 N 
ATOM     11  C   UNL     1       1.921  -1.108   0.000  0.00  0.00    +0.167 A 
ENDROOT
BRANCH   6  12
ATOM     12  C   UNL     1       3.350   1.367   0.000  0.00  0.00    +0.094 C 
BRANCH  12  13
ATOM     13  C   UNL     1       3.350   2.192   0.000  0.00  0.00    +0.045 C 
ATOM     14  C   UNL     1       2.683   2.675   0.000  0.00  0.00    +0.029 C 
ATOM     15  C   UNL     1       2.938   3.462   0.000  0.00  0.00    +0.151 C 
ATOM     16  S   UNL     1       3.763   3.462   0.000  0.00  0.00    -0.010 S 
ATOM     17  O   UNL     1       4.571   3.633   0.000  0.00  0.00    -0.173 OA
ATOM     18  O   UNL     1       3.675   4.279   0.000  0.00  0.00    -0.173 OA
ATOM     19  C   UNL     1       4.017   2.675   0.000  0.00  0.00    +0.153 C 
ENDBRANCH  12  13
ENDBRANCH   6  12
BRANCH  10  20
ATOM     20  C   UNL     1       0.883  -2.150   0.000  0.00  0.00    +0.142 C 
BRANCH  20  21
ATOM     21  C   UNL     1       0.075  -2.321   0.000  0.00  0.00    +0.174 C 
ATOM     22  O   UNL     1       0.346  -1.542   0.000  0.00  0.00    -0.221 OA
ATOM     23  C   UNL     1      -0.729  -2.138   0.000  0.00  0.00    +0.067 C 
ATOM     24  C   UNL     1      -1.150  -2.850   0.000  0.00  0.00    +0.145 C 
ATOM     25  O   UNL     1      -0.604  -3.467   0.000  0.00  0.00    -0.354 OA
ATOM     26  C   UNL     1       0.154  -3.142   0.000  0.00  0.00    +0.145 C 
ATOM     27  C   UNL     1       0.863  -3.562   0.000  0.00  0.00    +0.035 C 
ENDBRANCH  20  21
ENDBRANCH  10  20
TORSDOF 4
