REMARK  Name = 
REMARK  3 active torsions:
REMARK  status: ('A' for Active; 'I' for Inactive)
REMARK    1  A    between atoms: O_2  and  C_3
REMARK    2  A    between atoms: C_6  and  N_7
REMARK    3  A    between atoms: N_7  and  C_8
REMARK                            x       y       z     vdW  Elec       q    Type
REMARK                         _______ _______ _______ _____ _____    ______ ____
ROOT
ATOM      1  C   UNL     1      -0.107   5.590   0.000  0.00  0.00    +0.225 A 
ATOM      2  N   UNL     1      -0.107   4.765   0.000  0.00  0.00    -0.215 NA
ATOM      3  C   UNL     1       0.608   4.353   0.000  0.00  0.00    +0.077 A 
ATOM      4  C   UNL     1       0.608   3.528   0.000  0.00  0.00    +0.054 C 
ATOM      5  C   UNL     1       1.322   4.765   0.000  0.00  0.00    +0.079 A 
ATOM      6  C   UNL     1       1.322   5.590   0.000  0.00  0.00    +0.022 A 
ATOM      7  C   UNL     1       0.608   6.003   0.000  0.00  0.00    +0.059 A 
ENDROOT
BRANCH   1   9
ATOM      8  C   UNL     1      -1.536   5.590   0.000  0.00  0.00    +0.254 C 
ATOM      9  O   UNL     1      -0.821   6.003   0.000  0.00  0.00    -0.456 OA
ENDBRANCH   1   9
BRANCH   5  10
ATOM     10  N   UNL     1       2.037   4.353   0.000  0.00  0.00    -0.236 NA
BRANCH  10  11
ATOM     11  C   UNL     1       2.037   3.528   0.000  0.00  0.00    +0.124 C 
ATOM     12  C   UNL     1       1.369   3.043   0.000  0.00  0.00    +0.164 C 
ATOM     13  O   UNL     1       1.624   2.258   0.000  0.00  0.00    -0.352 OA
ATOM     14  C   UNL     1       2.449   2.258   0.000  0.00  0.00    +0.144 C 
ATOM     15  C   UNL     1       2.704   3.043   0.000  0.00  0.00    +0.056 C 
ENDBRANCH  10  11
ENDBRANCH   5  10
TORSDOF 3
