REMARK  Name = 
REMARK  4 active torsions:
REMARK  status: ('A' for Active; 'I' for Inactive)
REMARK    1  A    between atoms: C_2  and  C_3
REMARK    2  A    between atoms: C_3  and  N_4
REMARK    3  A    between atoms: C_11  and  C_14
REMARK    4  A    between atoms: N_17  and  C_18
REMARK                            x       y       z     vdW  Elec       q    Type
REMARK                         _______ _______ _______ _____ _____    ______ ____
ROOT
ATOM      1  N   UNL     1       2.858  -4.125   0.000  0.00  0.00    -0.177 NA
ATOM      2  C   UNL     1       2.143  -3.712   0.000  0.00  0.00    +0.345 C 
ATOM      3  N   UNL     1       1.429  -4.125   0.000  0.00  0.00    -0.140 NA
ATOM      4  C   UNL     1       0.715  -3.712   0.000  0.00  0.00    +0.177 A 
ATOM      5  N   UNL     1       0.715  -2.888   0.000  0.00  0.00    -0.131 NA
ATOM      6  N   UNL     1       0.000  -2.475   0.000  0.00  0.00    -0.151 NA
ATOM      7  C   UNL     1      -0.715  -2.888   0.000  0.00  0.00    +0.080 A 
ATOM      8  C   UNL     1      -0.715  -3.712   0.000  0.00  0.00    +0.019 A 
ATOM      9  C   UNL     1       0.000  -4.125   0.000  0.00  0.00    +0.039 A 
ATOM     10  O   UNL     1       2.143  -2.888   0.000  0.00  0.00    -0.249 OA
ENDROOT
BRANCH   7  11
ATOM     11  C   UNL     1      -1.429  -2.475   0.000  0.00  0.00    +0.042 C 
ATOM     12  C   UNL     1      -1.841  -1.760   0.000  0.00  0.00    +0.006 C 
ATOM     13  C   UNL     1      -2.254  -2.475   0.000  0.00  0.00    +0.006 C 
ENDBRANCH   7  11
BRANCH   1  14
ATOM     14  C   UNL     1       3.572  -3.712   0.000  0.00  0.00    +0.203 C 
BRANCH  14  16
ATOM     15  O   UNL     1       4.287  -4.950   0.000  0.00  0.00    -0.271 OA
ATOM     16  C   UNL     1       4.287  -4.125   0.000  0.00  0.00    +0.263 C 
ATOM     17  N   UNL     1       5.001  -3.712   0.000  0.00  0.00    -0.206 NA
BRANCH  17  18
ATOM     18  C   UNL     1       5.716  -4.125   0.000  0.00  0.00    +0.095 C 
ATOM     19  C   UNL     1       5.716  -4.950   0.000  0.00  0.00    +0.022 C 
ATOM     20  C   UNL     1       6.430  -5.362   0.000  0.00  0.00    +0.002 C 
ATOM     21  C   UNL     1       7.145  -4.950   0.000  0.00  0.00    +0.000 C 
ATOM     22  C   UNL     1       7.145  -4.125   0.000  0.00  0.00    +0.002 C 
ATOM     23  C   UNL     1       6.430  -3.712   0.000  0.00  0.00    +0.022 C 
ENDBRANCH  17  18
ENDBRANCH  14  16
ENDBRANCH   1  14
TORSDOF 4
