REMARK  Name = 
REMARK  4 active torsions:
REMARK  status: ('A' for Active; 'I' for Inactive)
REMARK    1  A    between atoms: O_2  and  C_3
REMARK    2  A    between atoms: C_3  and  C_4
REMARK    3  A    between atoms: C_4  and  N_5
REMARK    4  A    between atoms: C_7  and  N_8
REMARK                            x       y       z     vdW  Elec       q    Type
REMARK                         _______ _______ _______ _____ _____    ______ ____
ROOT
ATOM      1  N   UNL     1       2.128  -4.314   0.000  0.00  0.00    -0.161 NA
ATOM      2  C   UNL     1       2.842  -3.901   0.000  0.00  0.00    +0.328 C 
ATOM      3  N   UNL     1       3.557  -4.314   0.000  0.00  0.00    -0.263 N 
ATOM      4  C   UNL     1       3.495  -5.136   0.000  0.00  0.00    +0.095 C 
ATOM      5  C   UNL     1       4.100  -5.697   0.000  0.00  0.00    +0.020 C 
ATOM      6  C   UNL     1       3.857  -6.486   0.000  0.00  0.00    +0.002 C 
ATOM      7  C   UNL     1       4.916  -5.574   0.000  0.00  0.00    +0.002 C 
ATOM      8  C   UNL     1       5.328  -4.860   0.000  0.00  0.00    +0.002 C 
ATOM      9  C   UNL     1       6.151  -4.921   0.000  0.00  0.00    +0.000 C 
ATOM     10  C   UNL     1       5.027  -4.092   0.000  0.00  0.00    +0.022 C 
ATOM     11  C   UNL     1       4.239  -3.849   0.000  0.00  0.00    +0.095 C 
ATOM     12  O   UNL     1       2.842  -3.076   0.000  0.00  0.00    -0.250 OA
ENDROOT
BRANCH   1  18
ATOM     13  N   UNL     1       0.699  -2.663   0.000  0.00  0.00    -0.290 N 
ATOM     14  C   UNL     1      -0.015  -3.076   0.000  0.00  0.00    +0.261 A 
ATOM     15  O   UNL     1      -0.730  -2.663   0.000  0.00  0.00    -0.267 OA
ATOM     16  C   UNL     1      -0.015  -3.901   0.000  0.00  0.00    +0.062 A 
ATOM     17  C   UNL     1       0.699  -4.314   0.000  0.00  0.00    +0.023 A 
ATOM     18  C   UNL     1       1.413  -3.901   0.000  0.00  0.00    +0.092 A 
ATOM     19  C   UNL     1       1.413  -3.076   0.000  0.00  0.00    +0.095 A 
BRANCH  13  20
ATOM     20  C   UNL     1       0.699  -1.839   0.000  0.00  0.00    +0.141 C 
BRANCH  20  21
ATOM     21  C   UNL     1      -0.015  -1.426   0.000  0.00  0.00    +0.167 C 
BRANCH  21  23
ATOM     22  C   UNL     1      -0.730  -0.189   0.000  0.00  0.00    +0.174 C 
ATOM     23  O   UNL     1      -0.015  -0.601   0.000  0.00  0.00    -0.349 OA
ENDBRANCH  21  23
ENDBRANCH  20  21
ENDBRANCH  13  20
ENDBRANCH   1  18
TORSDOF 4
