REMARK  Name = 
REMARK  4 active torsions:
REMARK  status: ('A' for Active; 'I' for Inactive)
REMARK    1  A    between atoms: C_2  and  N_3
REMARK    2  A    between atoms: C_2  and  C_13
REMARK    3  A    between atoms: N_6  and  C_7
REMARK    4  A    between atoms: C_13  and  N_18
REMARK                            x       y       z     vdW  Elec       q    Type
REMARK                         _______ _______ _______ _____ _____    ______ ____
ROOT
ATOM      1  C   UNL     1      -1.305  -3.056   0.000  0.00  0.00    +0.025 C 
ATOM      2  C   UNL     1      -1.305  -2.231   0.000  0.00  0.00    +0.110 C 
ENDROOT
BRANCH   2   3
ATOM      3  C   UNL     1      -2.020  -1.819   0.000  0.00  0.00    +0.064 C 
ATOM      4  C   UNL     1      -1.535  -1.151   0.000  0.00  0.00    +0.016 C 
ATOM      5  C   UNL     1      -2.020  -0.484   0.000  0.00  0.00    +0.001 C 
ATOM      6  C   UNL     1      -2.804  -0.739   0.000  0.00  0.00    +0.001 C 
ATOM      7  C   UNL     1      -2.804  -1.564   0.000  0.00  0.00    +0.016 C 
BRANCH   3   8
ATOM      8  N   UNL     1      -2.355  -2.572   0.000  0.00  0.00    -0.269 NA
ATOM      9  C   UNL     1      -3.176  -2.659   0.000  0.00  0.00    +0.105 C 
ATOM     10  C   UNL     1      -3.511  -3.412   0.000  0.00  0.00    +0.159 C 
ATOM     11  O   UNL     1      -3.026  -4.080   0.000  0.00  0.00    -0.351 OA
ATOM     12  C   UNL     1      -2.206  -3.994   0.000  0.00  0.00    +0.159 C 
ATOM     13  C   UNL     1      -1.871  -3.240   0.000  0.00  0.00    +0.105 C 
ENDBRANCH   3   8
ENDBRANCH   2   3
BRANCH   2  14
ATOM     14  N   UNL     1      -0.591  -1.819   0.000  0.00  0.00    -0.187 NA
ATOM     15  C   UNL     1       0.123  -2.231   0.000  0.00  0.00    +0.343 C 
ATOM     16  N   UNL     1       0.838  -1.819   0.000  0.00  0.00    -0.161 NA
ATOM     17  O   UNL     1       0.123  -3.056   0.000  0.00  0.00    -0.249 OA
BRANCH  16  18
ATOM     18  C   UNL     1       1.552  -2.231   0.000  0.00  0.00    +0.078 A 
ATOM     19  C   UNL     1       1.552  -3.056   0.000  0.00  0.00    +0.037 A 
ATOM     20  C   UNL     1       2.267  -3.469   0.000  0.00  0.00    +0.100 A 
ATOM     21  N   UNL     1       2.981  -3.056   0.000  0.00  0.00    -0.242 NA
ATOM     22  C   UNL     1       2.981  -2.231   0.000  0.00  0.00    +0.100 A 
ATOM     23  C   UNL     1       2.267  -1.819   0.000  0.00  0.00    +0.037 A 
ENDBRANCH  16  18
ENDBRANCH   2  14
TORSDOF 4
