REMARK  Name = 
REMARK  3 active torsions:
REMARK  status: ('A' for Active; 'I' for Inactive)
REMARK    1  A    between atoms: O_2  and  C_3
REMARK    2  A    between atoms: N_10  and  C_11
REMARK    3  A    between atoms: C_11  and  C_13
REMARK                            x       y       z     vdW  Elec       q    Type
REMARK                         _______ _______ _______ _____ _____    ______ ____
ROOT
ATOM      1  C   UNL     1      -1.429  -1.650   0.000  0.00  0.00    +0.244 A 
ATOM      2  N   UNL     1      -1.429  -2.475   0.000  0.00  0.00    -0.109 NA
ATOM      3  N   UNL     1      -0.715  -2.888   0.000  0.00  0.00    -0.128 NA
ATOM      4  C   UNL     1       0.000  -2.475   0.000  0.00  0.00    +0.178 A 
ATOM      5  N   UNL     1       0.715  -2.888   0.000  0.00  0.00    -0.140 NA
ATOM      6  C   UNL     1       1.429  -2.475   0.000  0.00  0.00    +0.345 C 
ATOM      7  N   UNL     1       2.143  -2.888   0.000  0.00  0.00    -0.189 NA
ATOM      8  O   UNL     1       1.429  -1.650   0.000  0.00  0.00    -0.249 OA
ATOM      9  C   UNL     1       0.000  -1.650   0.000  0.00  0.00    +0.043 A 
ATOM     10  C   UNL     1      -0.715  -1.238   0.000  0.00  0.00    +0.062 A 
ENDROOT
BRANCH   1  12
ATOM     11  C   UNL     1      -2.858  -1.650   0.000  0.00  0.00    +0.254 C 
ATOM     12  O   UNL     1      -2.143  -1.238   0.000  0.00  0.00    -0.455 OA
ENDBRANCH   1  12
BRANCH   7  13
ATOM     13  C   UNL     1       2.858  -2.475   0.000  0.00  0.00    +0.097 C 
ATOM     14  C   UNL     1       2.858  -1.650   0.000  0.00  0.00    +0.023 C 
BRANCH  13  15
ATOM     15  C   UNL     1       3.572  -2.888   0.000  0.00  0.00    +0.025 C 
ATOM     16  C   UNL     1       3.572  -3.712   0.000  0.00  0.00    +0.034 C 
ATOM     17  C   UNL     1       4.287  -4.125   0.000  0.00  0.00    +0.142 C 
ATOM     18  O   UNL     1       5.001  -3.712   0.000  0.00  0.00    -0.354 OA
ATOM     19  C   UNL     1       5.001  -2.888   0.000  0.00  0.00    +0.142 C 
ATOM     20  C   UNL     1       4.287  -2.475   0.000  0.00  0.00    +0.034 C 
ENDBRANCH  13  15
ENDBRANCH   7  13
TORSDOF 3
