REMARK  Name = 
REMARK  4 active torsions:
REMARK  status: ('A' for Active; 'I' for Inactive)
REMARK    1  A    between atoms: N_5  and  C_6
REMARK    2  A    between atoms: C_6  and  C_7
REMARK    3  A    between atoms: N_9  and  C_10
REMARK    4  A    between atoms: C_10  and  C_16
REMARK                            x       y       z     vdW  Elec       q    Type
REMARK                         _______ _______ _______ _____ _____    ______ ____
ROOT
ATOM      1  C   UNL     1       1.643  -6.065   0.000  0.00  0.00    +0.267 C 
ATOM      2  N   UNL     1       1.643  -6.890   0.000  0.00  0.00    -0.193 NA
ATOM      3  O   UNL     1       2.357  -5.652   0.000  0.00  0.00    -0.271 OA
ENDROOT
BRANCH   2   4
ATOM      4  C   UNL     1       2.357  -7.302   0.000  0.00  0.00    +0.157 C 
ATOM      5  C   UNL     1       1.827  -7.934   0.000  0.00  0.00    +0.034 C 
ATOM      6  C   UNL     1       2.109  -8.709   0.000  0.00  0.00    +0.003 C 
ATOM      7  C   UNL     1       2.922  -8.853   0.000  0.00  0.00    +0.000 C 
ATOM      8  C   UNL     1       3.452  -8.221   0.000  0.00  0.00    +0.003 C 
ATOM      9  C   UNL     1       3.170  -7.446   0.000  0.00  0.00    +0.034 C 
BRANCH   4  10
ATOM     10  C   UNL     1       2.640  -6.527   0.000  0.00  0.00    +0.091 C 
ATOM     11  N   UNL     1       2.922  -5.752   0.000  0.00  0.00    -0.194 NA
ENDBRANCH   4  10
ENDBRANCH   2   4
BRANCH   1  12
ATOM     12  C   UNL     1       0.929  -5.652   0.000  0.00  0.00    +0.217 C 
BRANCH  12  19
ATOM     13 CL   UNL     1       0.929  -2.352   0.000  0.00  0.00    -0.080 Cl
ATOM     14  C   UNL     1       0.929  -3.177   0.000  0.00  0.00    +0.094 A 
ATOM     15  C   UNL     1       0.214  -3.590   0.000  0.00  0.00    +0.127 A 
ATOM     16 CL   UNL     1      -0.500  -3.177   0.000  0.00  0.00    -0.076 Cl
ATOM     17  C   UNL     1       0.214  -4.415   0.000  0.00  0.00    +0.288 A 
ATOM     18  O   UNL     1      -0.500  -4.827   0.000  0.00  0.00    -0.265 OA
ATOM     19  N   UNL     1       0.929  -4.827   0.000  0.00  0.00    -0.206 N 
ATOM     20  N   UNL     1       1.643  -4.415   0.000  0.00  0.00    -0.164 NA
ATOM     21  C   UNL     1       1.643  -3.590   0.000  0.00  0.00    +0.133 A 
ENDBRANCH  12  19
ENDBRANCH   1  12
TORSDOF 4
