REMARK  Name = 
REMARK  3 active torsions:
REMARK  status: ('A' for Active; 'I' for Inactive)
REMARK    1  A    between atoms: C_2  and  C_3
REMARK    2  A    between atoms: C_3  and  N_4
REMARK    3  A    between atoms: N_9  and  C_10
REMARK                            x       y       z     vdW  Elec       q    Type
REMARK                         _______ _______ _______ _____ _____    ______ ____
ROOT
ATOM      1  O   UNL     1      -0.475  -1.708   0.000  0.00  0.00    -0.271 OA
ATOM      2  C   UNL     1       0.077  -2.321   0.000  0.00  0.00    +0.266 C 
ATOM      3  N   UNL     1       0.884  -2.150   0.000  0.00  0.00    -0.204 NA
ENDROOT
BRANCH   3   4
ATOM      4  C   UNL     1       1.139  -1.365   0.000  0.00  0.00    +0.111 C 
ATOM      5  C   UNL     1       1.923  -1.110   0.000  0.00  0.00    +0.078 C 
ATOM      6  N   UNL     1       1.923  -0.285   0.000  0.00  0.00    -0.272 NA
ATOM      7  C   UNL     1       2.638   0.127   0.000  0.00  0.00    +0.072 C 
ATOM      8  C   UNL     1       3.352  -0.285   0.000  0.00  0.00    +0.017 C 
ATOM      9  C   UNL     1       3.352  -1.110   0.000  0.00  0.00    +0.003 C 
ATOM     10  C   UNL     1       1.139  -0.030   0.000  0.00  0.00    +0.074 C 
ATOM     11  C   UNL     1       2.638  -1.523   0.000  0.00  0.00    +0.018 C 
ATOM     12  C   UNL     1       0.654  -0.698   0.000  0.00  0.00    +0.040 C 
ENDBRANCH   3   4
BRANCH   2  13
ATOM     13  C   UNL     1      -0.178  -3.106   0.000  0.00  0.00    +0.214 C 
BRANCH  13  14
ATOM     14  N   UNL     1      -0.985  -3.278   0.000  0.00  0.00    -0.240 N 
ATOM     15  N   UNL     1      -1.598  -2.726   0.000  0.00  0.00    -0.167 NA
ATOM     16  C   UNL     1      -2.313  -3.138   0.000  0.00  0.00    +0.122 A 
ATOM     17  C   UNL     1      -2.141  -3.945   0.000  0.00  0.00    +0.043 A 
ATOM     18  C   UNL     1      -1.321  -4.031   0.000  0.00  0.00    +0.097 A 
ENDBRANCH  13  14
ENDBRANCH   2  13
TORSDOF 3
