REMARK  Name = 
REMARK  5 active torsions:
REMARK  status: ('A' for Active; 'I' for Inactive)
REMARK    1  A    between atoms: C_4  and  N_5
REMARK    2  A    between atoms: N_8  and  C_9
REMARK    3  A    between atoms: C_9  and  C_10
REMARK    4  A    between atoms: C_10  and  C_12
REMARK    5  A    between atoms: C_12  and  N_13
REMARK                            x       y       z     vdW  Elec       q    Type
REMARK                         _______ _______ _______ _____ _____    ______ ____
ROOT
ATOM      1  N   UNL     1       1.429  -4.125   0.000  0.00  0.00    -0.142 NA
ATOM      2  C   UNL     1       2.143  -3.712   0.000  0.00  0.00    +0.345 C 
ATOM      3  N   UNL     1       2.858  -4.125   0.000  0.00  0.00    -0.184 NA
ATOM      4  O   UNL     1       2.143  -2.888   0.000  0.00  0.00    -0.249 OA
ENDROOT
BRANCH   1  10
ATOM      5  C   UNL     1      -0.514  -1.967   0.000  0.00  0.00    +0.054 C 
ATOM      6  C   UNL     1      -0.179  -2.720   0.000  0.00  0.00    +0.082 A 
ATOM      7  N   UNL     1      -0.591  -3.435   0.000  0.00  0.00    -0.172 NA
ATOM      8  N   UNL     1      -0.039  -4.048   0.000  0.00  0.00    -0.234 N 
ATOM      9  C   UNL     1      -0.211  -4.855   0.000  0.00  0.00    +0.155 C 
ATOM     10  C   UNL     1       0.715  -3.712   0.000  0.00  0.00    +0.154 A 
ATOM     11  C   UNL     1       0.628  -2.892   0.000  0.00  0.00    +0.052 A 
ENDBRANCH   1  10
BRANCH   3  12
ATOM     12  C   UNL     1       3.572  -3.712   0.000  0.00  0.00    +0.151 C 
BRANCH  12  13
ATOM     13  C   UNL     1       4.287  -4.125   0.000  0.00  0.00    +0.189 C 
ATOM     14  O   UNL     1       4.287  -4.950   0.000  0.00  0.00    -0.220 OA
BRANCH  13  15
ATOM     15  C   UNL     1       5.001  -3.712   0.000  0.00  0.00    +0.107 C 
BRANCH  15  16
ATOM     16  N   UNL     1       5.716  -4.125   0.000  0.00  0.00    -0.271 NA
ATOM     17  C   UNL     1       5.716  -4.950   0.000  0.00  0.00    +0.072 C 
ATOM     18  C   UNL     1       6.430  -5.362   0.000  0.00  0.00    +0.017 C 
ATOM     19  C   UNL     1       7.145  -4.950   0.000  0.00  0.00    +0.003 C 
ATOM     20  C   UNL     1       7.145  -4.125   0.000  0.00  0.00    +0.017 C 
ATOM     21  C   UNL     1       6.430  -3.712   0.000  0.00  0.00    +0.072 C 
ENDBRANCH  15  16
ENDBRANCH  13  15
ENDBRANCH  12  13
ENDBRANCH   3  12
TORSDOF 5
