REMARK  Name = 
REMARK  6 active torsions:
REMARK  status: ('A' for Active; 'I' for Inactive)
REMARK    1  A    between atoms: C_2  and  C_3
REMARK    2  A    between atoms: C_2  and  N_10
REMARK    3  A    between atoms: C_3  and  N_4
REMARK    4  A    between atoms: N_10  and  C_11
REMARK    5  A    between atoms: C_11  and  C_12
REMARK    6  A    between atoms: N_14  and  C_15
REMARK                            x       y       z     vdW  Elec       q    Type
REMARK                         _______ _______ _______ _____ _____    ______ ____
ROOT
ATOM      1  N   UNL     1       2.858  -4.125   0.000  0.00  0.00    -0.208 NA
ENDROOT
BRANCH   1   3
ATOM      2  C   UNL     1       2.143  -2.888   0.000  0.00  0.00    +0.021 C 
ATOM      3  C   UNL     1       2.143  -3.712   0.000  0.00  0.00    +0.098 C 
BRANCH   3   4
ATOM      4  C   UNL     1       1.429  -4.125   0.000  0.00  0.00    +0.145 C 
BRANCH   4   5
ATOM      5  N   UNL     1       0.715  -3.712   0.000  0.00  0.00    -0.248 N 
ATOM      6  N   UNL     1       0.628  -2.892   0.000  0.00  0.00    -0.168 NA
ATOM      7  C   UNL     1      -0.179  -2.720   0.000  0.00  0.00    +0.117 A 
ATOM      8  C   UNL     1      -0.591  -3.435   0.000  0.00  0.00    +0.018 A 
ATOM      9  C   UNL     1      -1.412  -3.521   0.000  0.00  0.00    +0.034 C 
ATOM     10  C   UNL     1      -0.039  -4.048   0.000  0.00  0.00    +0.092 A 
ENDBRANCH   4   5
ENDBRANCH   3   4
ENDBRANCH   1   3
BRANCH   1  11
ATOM     11  C   UNL     1       3.572  -3.712   0.000  0.00  0.00    +0.175 C 
BRANCH  11  12
ATOM     12  C   UNL     1       4.287  -4.125   0.000  0.00  0.00    +0.259 C 
ATOM     13  N   UNL     1       5.001  -3.712   0.000  0.00  0.00    -0.206 NA
ATOM     14  O   UNL     1       4.287  -4.950   0.000  0.00  0.00    -0.272 OA
BRANCH  13  15
ATOM     15  C   UNL     1       5.716  -4.125   0.000  0.00  0.00    +0.100 C 
ATOM     16  C   UNL     1       5.716  -4.950   0.000  0.00  0.00    +0.054 C 
ATOM     17  C   UNL     1       6.430  -5.362   0.000  0.00  0.00    +0.144 C 
ATOM     18  O   UNL     1       7.145  -4.950   0.000  0.00  0.00    -0.354 OA
ATOM     19  C   UNL     1       7.145  -4.125   0.000  0.00  0.00    +0.144 C 
ATOM     20  C   UNL     1       6.430  -3.712   0.000  0.00  0.00    +0.054 C 
ENDBRANCH  13  15
ENDBRANCH  11  12
ENDBRANCH   1  11
TORSDOF 6
