REMARK  Name = 
REMARK  4 active torsions:
REMARK  status: ('A' for Active; 'I' for Inactive)
REMARK    1  A    between atoms: C_3  and  C_4
REMARK    2  A    between atoms: C_5  and  C_6
REMARK    3  A    between atoms: N_12  and  C_13
REMARK    4  A    between atoms: C_13  and  C_14
REMARK                            x       y       z     vdW  Elec       q    Type
REMARK                         _______ _______ _______ _____ _____    ______ ____
ROOT
ATOM      1  C   UNL     1      -0.237  -3.541   0.000  0.00  0.00    +0.247 C 
ATOM      2  N   UNL     1      -0.952  -3.128   0.000  0.00  0.00    -0.159 NA
ATOM      3  C   UNL     1      -1.666  -3.541   0.000  0.00  0.00    +0.175 A 
ATOM      4  N   UNL     1      -2.420  -3.205   0.000  0.00  0.00    -0.152 NA
ATOM      5  N   UNL     1      -2.972  -3.818   0.000  0.00  0.00    -0.239 N 
ATOM      6  C   UNL     1      -2.559  -4.533   0.000  0.00  0.00    +0.099 A 
ATOM      7  C   UNL     1      -1.752  -4.361   0.000  0.00  0.00    +0.058 A 
ATOM      8  O   UNL     1      -0.237  -4.366   0.000  0.00  0.00    -0.273 OA
ENDROOT
BRANCH   1  13
ATOM      9  C   UNL     1       1.302  -3.128   0.000  0.00  0.00    +0.030 C 
ATOM     10  C   UNL     1       0.890  -2.414   0.000  0.00  0.00    +0.013 C 
ATOM     11  C   UNL     1       1.363  -1.738   0.000  0.00  0.00    +0.001 C 
ATOM     12  C   UNL     1       0.416  -1.738   0.000  0.00  0.00    +0.001 C 
ATOM     13  C   UNL     1       0.477  -3.128   0.000  0.00  0.00    +0.083 C 
BRANCH   9  17
ATOM     14  C   UNL     1       3.446  -3.541   0.000  0.00  0.00    +0.026 C 
ATOM     15  C   UNL     1       2.731  -3.128   0.000  0.00  0.00    -0.048 C 
ATOM     16  C   UNL     1       2.731  -2.303   0.000  0.00  0.00    +0.026 C 
ATOM     17  C   UNL     1       2.017  -3.541   0.000  0.00  0.00    -0.034 C 
ENDBRANCH   9  17
ENDBRANCH   1  13
BRANCH   5  18
ATOM     18  C   UNL     1      -3.792  -3.732   0.000  0.00  0.00    +0.215 C 
BRANCH  18  19
ATOM     19  C   UNL     1      -4.128  -2.979   0.000  0.00  0.00    +0.286 C 
ATOM     20  N   UNL     1      -3.643  -2.311   0.000  0.00  0.00    -0.086 NA
ATOM     21  O   UNL     1      -4.949  -2.892   0.000  0.00  0.00    -0.269 OA
ENDBRANCH  18  19
ENDBRANCH   5  18
TORSDOF 4
