REMARK  Name = 
REMARK  3 active torsions:
REMARK  status: ('A' for Active; 'I' for Inactive)
REMARK    1  A    between atoms: O_2  and  C_3
REMARK    2  A    between atoms: C_3  and  C_4
REMARK    3  A    between atoms: C_4  and  N_5
REMARK                            x       y       z     vdW  Elec       q    Type
REMARK                         _______ _______ _______ _____ _____    ______ ____
ROOT
ATOM      1  N   UNL     1       1.139  -1.365   0.000  0.00  0.00    -0.288 N 
ATOM      2  C   UNL     1       1.923  -1.110   0.000  0.00  0.00    +0.156 A 
ATOM      3  C   UNL     1       1.923  -0.285   0.000  0.00  0.00    +0.171 A 
ATOM      4  N   UNL     1       2.638   0.127   0.000  0.00  0.00    -0.261 N 
ATOM      5  C   UNL     1       3.352  -0.285   0.000  0.00  0.00    +0.354 A 
ATOM      6  N   UNL     1       3.352  -1.110   0.000  0.00  0.00    -0.152 NA
ATOM      7  O   UNL     1       4.067   0.127   0.000  0.00  0.00    -0.244 OA
ATOM      8  C   UNL     1       2.638   0.952   0.000  0.00  0.00    +0.137 C 
ATOM      9  N   UNL     1       1.139  -0.030   0.000  0.00  0.00    -0.192 NA
ATOM     10  C   UNL     1       2.638  -1.523   0.000  0.00  0.00    +0.302 A 
ATOM     11  O   UNL     1       2.638  -2.348   0.000  0.00  0.00    -0.263 OA
ATOM     12  C   UNL     1       0.654  -0.698   0.000  0.00  0.00    +0.235 A 
ATOM     13  N   UNL     1      -0.171  -0.698   0.000  0.00  0.00    -0.202 N 
ATOM     14  C   UNL     1      -0.656  -0.030   0.000  0.00  0.00    +0.065 A 
ATOM     15  C   UNL     1      -0.401   0.754   0.000  0.00  0.00    +0.052 C 
ATOM     16  C   UNL     1      -1.441  -0.285   0.000  0.00  0.00    +0.031 A 
ATOM     17  C   UNL     1      -1.441  -1.110   0.000  0.00  0.00    +0.081 A 
ATOM     18  C   UNL     1      -2.108  -1.595   0.000  0.00  0.00    +0.054 C 
ATOM     19  N   UNL     1      -0.656  -1.365   0.000  0.00  0.00    -0.167 NA
ENDROOT
BRANCH   1  20
ATOM     20  C   UNL     1       0.884  -2.150   0.000  0.00  0.00    +0.141 C 
BRANCH  20  21
ATOM     21  C   UNL     1       0.077  -2.321   0.000  0.00  0.00    +0.167 C 
BRANCH  21  23
ATOM     22  C   UNL     1      -0.985  -3.278   0.000  0.00  0.00    +0.174 C 
ATOM     23  O   UNL     1      -0.178  -3.106   0.000  0.00  0.00    -0.349 OA
ENDBRANCH  21  23
ENDBRANCH  20  21
ENDBRANCH   1  20
TORSDOF 3
