REMARK  Name = 
REMARK  3 active torsions:
REMARK  status: ('A' for Active; 'I' for Inactive)
REMARK    1  A    between atoms: C_2  and  C_3
REMARK    2  A    between atoms: C_3  and  N_4
REMARK    3  A    between atoms: C_6  and  C_7
REMARK                            x       y       z     vdW  Elec       q    Type
REMARK                         _______ _______ _______ _____ _____    ______ ____
ROOT
ATOM      1  N   UNL     1       0.715   1.238   0.000  0.00  0.00    -0.275 N 
ATOM      2  C   UNL     1       0.000   0.825   0.000  0.00  0.00    +0.353 A 
ATOM      3  O   UNL     1      -0.715   1.238   0.000  0.00  0.00    -0.244 OA
ATOM      4  N   UNL     1       0.000   0.000   0.000  0.00  0.00    -0.153 NA
ATOM      5  C   UNL     1       0.715  -0.412   0.000  0.00  0.00    +0.291 A 
ATOM      6  O   UNL     1       0.715  -1.238   0.000  0.00  0.00    -0.265 OA
ATOM      7  C   UNL     1       1.429   0.000   0.000  0.00  0.00    +0.155 A 
ATOM      8  C   UNL     1       1.429   0.825   0.000  0.00  0.00    +0.091 A 
ENDROOT
BRANCH   7   9
ATOM      9  C   UNL     1       2.143  -0.412   0.000  0.00  0.00    +0.394 C 
ATOM     10  O   UNL     1       2.143  -1.238   0.000  0.00  0.00    -0.240 OA
ATOM     11  O   UNL     1       2.858   0.000   0.000  0.00  0.00    -0.240 OA
ENDBRANCH   7   9
BRANCH   1  12
ATOM     12  C   UNL     1       0.715   2.062   0.000  0.00  0.00    +0.146 C 
BRANCH  12  14
ATOM     13  O   UNL     1       0.000   3.300   0.000  0.00  0.00    -0.218 OA
ATOM     14  C   UNL     1       0.000   2.475   0.000  0.00  0.00    +0.207 C 
ENDBRANCH  12  14
ENDBRANCH   1  12
TORSDOF 3
