REMARK  Name = 
REMARK  5 active torsions:
REMARK  status: ('A' for Active; 'I' for Inactive)
REMARK    1  A    between atoms: C_2  and  C_3
REMARK    2  A    between atoms: C_2  and  N_15
REMARK    3  A    between atoms: C_3  and  N_4
REMARK    4  A    between atoms: C_5  and  C_7
REMARK    5  A    between atoms: C_7  and  N_8
REMARK                            x       y       z     vdW  Elec       q    Type
REMARK                         _______ _______ _______ _____ _____    ______ ____
ROOT
ATOM      1  C   UNL     1       1.429  -0.825   0.000  0.00  0.00    +0.131 C 
ENDROOT
BRANCH   1   2
ATOM      2  N   UNL     1       2.143  -1.238   0.000  0.00  0.00    -0.202 NA
ATOM      3  C   UNL     1       2.858  -0.825   0.000  0.00  0.00    +0.265 C 
ATOM      4  O   UNL     1       2.858   0.000   0.000  0.00  0.00    -0.271 OA
BRANCH   3   5
ATOM      5  C   UNL     1       3.572  -1.238   0.000  0.00  0.00    +0.196 C 
BRANCH   5   6
ATOM      6  N   UNL     1       4.287  -0.825   0.000  0.00  0.00    -0.285 N 
ATOM      7  C   UNL     1       5.001  -1.238   0.000  0.00  0.00    +0.261 A 
ATOM      8  O   UNL     1       5.001  -2.062   0.000  0.00  0.00    -0.267 OA
ATOM      9  C   UNL     1       5.716  -0.825   0.000  0.00  0.00    +0.061 A 
ATOM     10  C   UNL     1       5.716   0.000   0.000  0.00  0.00    +0.006 A 
ATOM     11  C   UNL     1       5.001   0.412   0.000  0.00  0.00    +0.019 A 
ATOM     12  C   UNL     1       4.287   0.000   0.000  0.00  0.00    +0.079 A 
ENDBRANCH   5   6
ENDBRANCH   3   5
ENDBRANCH   1   2
BRANCH   1  14
ATOM     13  C   UNL     1       0.715  -2.062   0.000  0.00  0.00    +0.019 C 
ATOM     14  C   UNL     1       0.715  -1.238   0.000  0.00  0.00    +0.079 C 
BRANCH  14  15
ATOM     15  N   UNL     1       0.000  -0.825   0.000  0.00  0.00    -0.268 NA
ATOM     16  C   UNL     1       0.000   0.000   0.000  0.00  0.00    +0.102 C 
ATOM     17  C   UNL     1      -0.715   0.412   0.000  0.00  0.00    +0.131 C 
ATOM     18  C   UNL     1      -0.715   1.238   0.000  0.00  0.00    +0.034 C 
ATOM     19  O   UNL     1      -1.429   0.000   0.000  0.00  0.00    -0.356 OA
ATOM     20  C   UNL     1      -1.429  -0.825   0.000  0.00  0.00    +0.131 C 
ATOM     21  C   UNL     1      -2.143  -1.238   0.000  0.00  0.00    +0.034 C 
ATOM     22  C   UNL     1      -0.715  -1.238   0.000  0.00  0.00    +0.102 C 
ENDBRANCH  14  15
ENDBRANCH   1  14
TORSDOF 5
