REMARK  Name = 
REMARK  6 active torsions:
REMARK  status: ('A' for Active; 'I' for Inactive)
REMARK    1  A    between atoms: C_2  and  C_3
REMARK    2  A    between atoms: C_3  and  N_4
REMARK    3  A    between atoms: C_7  and  N_8
REMARK    4  A    between atoms: N_8  and  C_9
REMARK    5  A    between atoms: C_9  and  C_10
REMARK    6  A    between atoms: C_10  and  O_11
REMARK                            x       y       z     vdW  Elec       q    Type
REMARK                         _______ _______ _______ _____ _____    ______ ____
ROOT
ATOM      1  N   UNL     1       2.284   5.443   0.000  0.00  0.00    -0.264 N 
ATOM      2  C   UNL     1       1.871   6.158   0.000  0.00  0.00    +0.354 A 
ATOM      3  O   UNL     1       2.284   6.872   0.000  0.00  0.00    -0.244 OA
ATOM      4  N   UNL     1       1.046   6.158   0.000  0.00  0.00    -0.152 NA
ATOM      5  C   UNL     1       0.634   5.443   0.000  0.00  0.00    +0.300 A 
ATOM      6  O   UNL     1      -0.191   5.443   0.000  0.00  0.00    -0.264 OA
ATOM      7  C   UNL     1       1.046   4.729   0.000  0.00  0.00    +0.146 A 
ATOM      8  C   UNL     1       1.871   4.729   0.000  0.00  0.00    +0.173 A 
ATOM      9  N   UNL     1       2.284   4.014   0.000  0.00  0.00    -0.107 NA
ENDROOT
BRANCH   7  10
ATOM     10  N   UNL     1       0.634   4.014   0.000  0.00  0.00    -0.250 N 
ATOM     11  C   UNL     1       1.046   3.300   0.000  0.00  0.00    +0.230 C 
ATOM     12  C   UNL     1       0.634   2.586   0.000  0.00  0.00    +0.095 C 
ATOM     13  O   UNL     1       1.871   3.300   0.000  0.00  0.00    -0.275 OA
BRANCH  10  14
ATOM     14  C   UNL     1      -0.191   4.014   0.000  0.00  0.00    +0.130 C 
BRANCH  14  15
ATOM     15  C   UNL     1      -0.604   3.300   0.000  0.00  0.00    +0.164 C 
BRANCH  15  16
ATOM     16  O   UNL     1      -1.429   3.300   0.000  0.00  0.00    -0.349 OA
ATOM     17  C   UNL     1      -1.841   2.586   0.000  0.00  0.00    +0.174 C 
ENDBRANCH  15  16
ENDBRANCH  14  15
ENDBRANCH  10  14
ENDBRANCH   7  10
BRANCH   1  18
ATOM     18  C   UNL     1       3.109   5.443   0.000  0.00  0.00    +0.112 C 
BRANCH  18  20
ATOM     19  C   UNL     1       4.346   6.158   0.000  0.00  0.00    +0.002 C 
ATOM     20  C   UNL     1       3.521   6.158   0.000  0.00  0.00    +0.025 C 
ENDBRANCH  18  20
ENDBRANCH   1  18
TORSDOF 6
