REMARK  Name = 
REMARK  4 active torsions:
REMARK  status: ('A' for Active; 'I' for Inactive)
REMARK    1  A    between atoms: N_4  and  C_5
REMARK    2  A    between atoms: C_5  and  C_6
REMARK    3  A    between atoms: C_6  and  N_7
REMARK    4  A    between atoms: N_10  and  C_11
REMARK                            x       y       z     vdW  Elec       q    Type
REMARK                         _______ _______ _______ _____ _____    ______ ____
ROOT
ATOM      1  N   UNL     1       3.572  -3.712   0.000  0.00  0.00    -0.185 NA
ATOM      2  C   UNL     1       4.287  -4.125   0.000  0.00  0.00    +0.345 C 
ATOM      3  N   UNL     1       5.001  -3.712   0.000  0.00  0.00    -0.142 NA
ATOM      4  O   UNL     1       4.287  -4.950   0.000  0.00  0.00    -0.249 OA
ENDROOT
BRANCH   3   5
ATOM      5  C   UNL     1       5.716  -4.125   0.000  0.00  0.00    +0.152 A 
ATOM      6  C   UNL     1       5.716  -4.950   0.000  0.00  0.00    +0.012 A 
ATOM      7  C   UNL     1       5.001  -5.362   0.000  0.00  0.00    +0.034 C 
ATOM      8  C   UNL     1       6.430  -5.362   0.000  0.00  0.00    +0.000 A 
ATOM      9  C   UNL     1       7.145  -4.950   0.000  0.00  0.00    +0.020 A 
ATOM     10  C   UNL     1       7.145  -4.125   0.000  0.00  0.00    +0.100 A 
ATOM     11  N   UNL     1       6.430  -3.712   0.000  0.00  0.00    -0.228 NA
ENDBRANCH   3   5
BRANCH   1  12
ATOM     12  C   UNL     1       2.858  -4.125   0.000  0.00  0.00    +0.134 C 
BRANCH  12  13
ATOM     13  C   UNL     1       2.143  -3.712   0.000  0.00  0.00    +0.096 C 
BRANCH  13  20
ATOM     14  C   UNL     1      -0.715  -3.712   0.000  0.00  0.00    +0.034 C 
ATOM     15  C   UNL     1       0.000  -4.125   0.000  0.00  0.00    +0.131 C 
ATOM     16  O   UNL     1       0.000  -4.950   0.000  0.00  0.00    -0.356 OA
ATOM     17  C   UNL     1       0.715  -5.362   0.000  0.00  0.00    +0.131 C 
ATOM     18  C   UNL     1       0.715  -6.188   0.000  0.00  0.00    +0.034 C 
ATOM     19  C   UNL     1       1.429  -4.950   0.000  0.00  0.00    +0.102 C 
ATOM     20  N   UNL     1       1.429  -4.125   0.000  0.00  0.00    -0.267 NA
ATOM     21  C   UNL     1       0.715  -3.712   0.000  0.00  0.00    +0.102 C 
ENDBRANCH  13  20
ENDBRANCH  12  13
ENDBRANCH   1  12
TORSDOF 4
