REMARK  Name = 
REMARK  5 active torsions:
REMARK  status: ('A' for Active; 'I' for Inactive)
REMARK    1  A    between atoms: C_4  and  N_5
REMARK    2  A    between atoms: N_8  and  C_9
REMARK    3  A    between atoms: N_12  and  C_13
REMARK    4  A    between atoms: C_13  and  C_14
REMARK    5  A    between atoms: C_14  and  C_15
REMARK                            x       y       z     vdW  Elec       q    Type
REMARK                         _______ _______ _______ _____ _____    ______ ____
ROOT
ATOM      1  C   UNL     1       0.278   4.073   0.000  0.00  0.00    +0.054 C 
ATOM      2  C   UNL     1      -0.543   4.159   0.000  0.00  0.00    +0.082 A 
ATOM      3  N   UNL     1      -0.955   4.873   0.000  0.00  0.00    -0.172 NA
ATOM      4  N   UNL     1      -1.762   4.702   0.000  0.00  0.00    -0.235 N 
ATOM      5  C   UNL     1      -1.848   3.881   0.000  0.00  0.00    +0.154 A 
ATOM      6  C   UNL     1      -1.095   3.546   0.000  0.00  0.00    +0.052 A 
ENDROOT
BRANCH   5   7
ATOM      7  N   UNL     1      -2.563   3.469   0.000  0.00  0.00    -0.142 NA
ATOM      8  C   UNL     1      -2.563   2.644   0.000  0.00  0.00    +0.345 C 
ATOM      9  N   UNL     1      -3.277   2.231   0.000  0.00  0.00    -0.189 NA
ATOM     10  O   UNL     1      -1.848   2.231   0.000  0.00  0.00    -0.249 OA
BRANCH   9  11
ATOM     11  C   UNL     1      -3.277   1.406   0.000  0.00  0.00    +0.097 C 
ATOM     12  C   UNL     1      -3.690   0.692   0.000  0.00  0.00    +0.023 C 
ATOM     13  C   UNL     1      -2.865   0.692   0.000  0.00  0.00    +0.023 C 
ENDBRANCH   9  11
ENDBRANCH   5   7
BRANCH   4  14
ATOM     14  C   UNL     1      -2.375   5.254   0.000  0.00  0.00    +0.145 C 
BRANCH  14  15
ATOM     15  C   UNL     1      -2.204   6.061   0.000  0.00  0.00    +0.132 C 
BRANCH  15  16
ATOM     16  C   UNL     1      -2.817   6.613   0.000  0.00  0.00    +0.075 C 
ATOM     17  N   UNL     1      -3.430   7.165   0.000  0.00  0.00    -0.196 NA
ENDBRANCH  15  16
ENDBRANCH  14  15
ENDBRANCH   4  14
TORSDOF 5
