REMARK  Name = 
REMARK  3 active torsions:
REMARK  status: ('A' for Active; 'I' for Inactive)
REMARK    1  A    between atoms: N_7  and  C_8
REMARK    2  A    between atoms: C_8  and  C_9
REMARK    3  A    between atoms: C_9  and  N_10
REMARK                            x       y       z     vdW  Elec       q    Type
REMARK                         _______ _______ _______ _____ _____    ______ ____
ROOT
ATOM      1  C   UNL     1       2.858  -4.125   0.000  0.00  0.00    +0.134 C 
ENDROOT
BRANCH   1   2
ATOM      2  N   UNL     1       3.572  -3.712   0.000  0.00  0.00    -0.185 NA
ATOM      3  C   UNL     1       4.287  -4.125   0.000  0.00  0.00    +0.345 C 
ATOM      4  N   UNL     1       5.001  -3.712   0.000  0.00  0.00    -0.142 NA
ATOM      5  C   UNL     1       5.716  -4.125   0.000  0.00  0.00    +0.156 A 
ATOM      6  N   UNL     1       5.716  -4.950   0.000  0.00  0.00    -0.227 NA
ATOM      7  C   UNL     1       6.430  -5.362   0.000  0.00  0.00    +0.100 A 
ATOM      8  C   UNL     1       7.145  -4.950   0.000  0.00  0.00    +0.021 A 
ATOM      9  C   UNL     1       7.145  -4.125   0.000  0.00  0.00    +0.005 A 
ATOM     10  C   UNL     1       6.430  -3.712   0.000  0.00  0.00    +0.036 A 
ATOM     11  O   UNL     1       4.287  -4.950   0.000  0.00  0.00    -0.249 OA
ENDBRANCH   1   2
BRANCH   1  12
ATOM     12  C   UNL     1       2.143  -3.712   0.000  0.00  0.00    +0.096 C 
BRANCH  12  18
ATOM     13  C   UNL     1      -0.715  -6.188   0.000  0.00  0.00    +0.095 C 
ATOM     14  C   UNL     1      -0.715  -5.362   0.000  0.00  0.00    +0.226 C 
ATOM     15  N   UNL     1       0.000  -4.950   0.000  0.00  0.00    -0.277 N 
ATOM     16  C   UNL     1       0.715  -5.362   0.000  0.00  0.00    +0.111 C 
ATOM     17  C   UNL     1       1.429  -4.950   0.000  0.00  0.00    +0.094 C 
ATOM     18  N   UNL     1       1.429  -4.125   0.000  0.00  0.00    -0.268 NA
ATOM     19  C   UNL     1       0.715  -3.712   0.000  0.00  0.00    +0.094 C 
ATOM     20  C   UNL     1       0.000  -4.125   0.000  0.00  0.00    +0.111 C 
ATOM     21  O   UNL     1      -1.429  -4.950   0.000  0.00  0.00    -0.275 OA
ENDBRANCH  12  18
ENDBRANCH   1  12
TORSDOF 3
