REMARK  Name = 
REMARK  2 active torsions:
REMARK  status: ('A' for Active; 'I' for Inactive)
REMARK    1  A    between atoms: C_3  and  C_4
REMARK    2  A    between atoms: C_4  and  C_5
REMARK                            x       y       z     vdW  Elec       q    Type
REMARK                         _______ _______ _______ _____ _____    ______ ____
ROOT
ATOM      1 CL   UNL     1       0.000   0.000   0.000  0.00  0.00    +0.000 Cl
ENDROOT
TORSDOF 0
REMARK  Name = 
REMARK  2 active torsions:
REMARK  status: ('A' for Active; 'I' for Inactive)
REMARK    1  A    between atoms: C_3  and  C_4
REMARK    2  A    between atoms: C_4  and  C_5
REMARK                            x       y       z     vdW  Elec       q    Type
REMARK                         _______ _______ _______ _____ _____    ______ ____
ROOT
ATOM      1  C   UNL     1       3.072  -0.077   0.000  0.00  0.00    +0.164 A 
ATOM      2  N   UNL     1       2.404  -0.562   0.000  0.00  0.00    -0.206 NA
ATOM      3  C   UNL     1       2.659  -1.347   0.000  0.00  0.00    +0.223 A 
ATOM      4  N   UNL     1       3.484  -1.347   0.000  0.00  0.00    -0.124 NA
ATOM      5  N   UNL     1       3.739  -0.562   0.000  0.00  0.00    -0.131 NA
ENDROOT
BRANCH   1   6
ATOM      6  C   UNL     1       3.072   0.748   0.000  0.00  0.00    +0.088 C 
BRANCH   6   8
ATOM      7  N   UNL     1       2.357   1.986   0.000  0.00  0.00    -0.131 NA
ATOM      8  C   UNL     1       2.357   1.161   0.000  0.00  0.00    +0.117 C 
ENDBRANCH   6   8
ENDBRANCH   1   6
TORSDOF 2
