REMARK  Name = 
REMARK  5 active torsions:
REMARK  status: ('A' for Active; 'I' for Inactive)
REMARK    1  A    between atoms: C_2  and  C_5
REMARK    2  A    between atoms: N_7  and  C_8
REMARK    3  A    between atoms: C_8  and  C_9
REMARK    4  A    between atoms: C_9  and  C_10
REMARK    5  A    between atoms: C_12  and  C_15
REMARK                            x       y       z     vdW  Elec       q    Type
REMARK                         _______ _______ _______ _____ _____    ______ ____
ROOT
ATOM      1  C   UNL     1      -0.155   4.828   0.000  0.00  0.00    +0.111 C 
ENDROOT
BRANCH   1   2
ATOM      2  C   UNL     1      -0.640   4.161   0.000  0.00  0.00    +0.238 A 
ATOM      3  O   UNL     1      -1.465   4.161   0.000  0.00  0.00    -0.337 OA
ATOM      4  N   UNL     1      -1.720   3.376   0.000  0.00  0.00    -0.061 NA
ATOM      5  C   UNL     1      -1.053   2.891   0.000  0.00  0.00    +0.180 A 
ATOM      6  N   UNL     1      -0.385   3.376   0.000  0.00  0.00    -0.195 NA
BRANCH   5   7
ATOM      7  C   UNL     1      -1.053   2.066   0.000  0.00  0.00    +0.062 C 
ATOM      8  C   UNL     1      -1.465   1.352   0.000  0.00  0.00    +0.008 C 
ATOM      9  C   UNL     1      -0.640   1.352   0.000  0.00  0.00    +0.008 C 
ENDBRANCH   5   7
ENDBRANCH   1   2
BRANCH   1  10
ATOM     10  C   UNL     1      -0.491   5.582   0.000  0.00  0.00    +0.125 C 
BRANCH  10  12
ATOM     11  C   UNL     1      -0.342   7.003   0.000  0.00  0.00    +0.240 C 
ATOM     12  N   UNL     1      -0.006   6.249   0.000  0.00  0.00    -0.205 NA
ATOM     13  O   UNL     1      -1.162   7.089   0.000  0.00  0.00    -0.273 OA
BRANCH  11  15
ATOM     14  C   UNL     1       0.628   8.338   0.000  0.00  0.00    +0.009 C 
ATOM     15  C   UNL     1       0.143   7.670   0.000  0.00  0.00    +0.071 C 
ATOM     16  C   UNL     1       0.811   7.186   0.000  0.00  0.00    +0.009 C 
ATOM     17  C   UNL     1      -0.524   8.155   0.000  0.00  0.00    +0.009 C 
ENDBRANCH  11  15
ENDBRANCH  10  12
ENDBRANCH   1  10
TORSDOF 5
