REMARK  Name = 
REMARK  2 active torsions:
REMARK  status: ('A' for Active; 'I' for Inactive)
REMARK    1  A    between atoms: N_3  and  C_4
REMARK    2  A    between atoms: N_10  and  C_11
REMARK                            x       y       z     vdW  Elec       q    Type
REMARK                         _______ _______ _______ _____ _____    ______ ____
ROOT
ATOM      1  O   UNL     1      -2.751  -1.712   0.000  0.00  0.00    -0.249 OA
ATOM      2  C   UNL     1      -2.037  -1.299   0.000  0.00  0.00    +0.344 C 
ATOM      3  N   UNL     1      -1.322  -1.712   0.000  0.00  0.00    -0.151 NA
ATOM      4  N   UNL     1      -2.037  -0.474   0.000  0.00  0.00    -0.189 NA
ENDROOT
BRANCH   4   5
ATOM      5  C   UNL     1      -2.751  -0.062   0.000  0.00  0.00    +0.099 C 
ATOM      6  C   UNL     1      -2.751   0.763   0.000  0.00  0.00    +0.033 C 
ATOM      7  C   UNL     1      -3.466   1.176   0.000  0.00  0.00    +0.059 C 
ATOM      8  S   UNL     1      -4.180   0.763   0.000  0.00  0.00    -0.140 S 
ATOM      9  C   UNL     1      -4.180  -0.062   0.000  0.00  0.00    +0.059 C 
ATOM     10  C   UNL     1      -3.466  -0.474   0.000  0.00  0.00    +0.033 C 
ENDBRANCH   4   5
BRANCH   3  11
ATOM     11  C   UNL     1      -1.322  -2.537   0.000  0.00  0.00    +0.144 A 
ATOM     12  S   UNL     1      -1.990  -3.022   0.000  0.00  0.00    +0.054 S 
ATOM     13  N   UNL     1      -1.735  -3.806   0.000  0.00  0.00    -0.108 NA
ATOM     14  N   UNL     1      -0.910  -3.806   0.000  0.00  0.00    -0.137 NA
ATOM     15  C   UNL     1      -0.655  -3.022   0.000  0.00  0.00    +0.147 A 
ENDBRANCH   3  11
TORSDOF 2
