REMARK  Name = 
REMARK  5 active torsions:
REMARK  status: ('A' for Active; 'I' for Inactive)
REMARK    1  A    between atoms: N_2  and  C_4
REMARK    2  A    between atoms: C_4  and  C_5
REMARK    3  A    between atoms: C_5  and  N_6
REMARK    4  A    between atoms: C_7  and  C_9
REMARK    5  A    between atoms: C_9  and  C_10
REMARK                            x       y       z     vdW  Elec       q    Type
REMARK                         _______ _______ _______ _____ _____    ______ ____
ROOT
ATOM      1  N   UNL     1       0.963  -1.820   0.000  0.00  0.00    -0.204 NA
ATOM      2  C   UNL     1       1.677  -1.407   0.000  0.00  0.00    +0.246 C 
ATOM      3  O   UNL     1       1.677  -0.582   0.000  0.00  0.00    -0.273 OA
ENDROOT
BRANCH   1   4
ATOM      4  C   UNL     1       0.248  -1.407   0.000  0.00  0.00    +0.130 C 
BRANCH   4   5
ATOM      5  C   UNL     1      -0.466  -1.820   0.000  0.00  0.00    +0.066 C 
ATOM      6  C   UNL     1      -0.749  -1.044   0.000  0.00  0.00    +0.016 C 
ATOM      7  C   UNL     1      -1.561  -0.901   0.000  0.00  0.00    +0.001 C 
ATOM      8  C   UNL     1      -2.091  -1.533   0.000  0.00  0.00    +0.000 C 
ATOM      9  C   UNL     1      -1.809  -2.308   0.000  0.00  0.00    +0.001 C 
ATOM     10  C   UNL     1      -0.997  -2.452   0.000  0.00  0.00    +0.016 C 
BRANCH   5  12
ATOM     11  C   UNL     1      -0.218  -3.227   0.000  0.00  0.00    +0.090 C 
ATOM     12  N   UNL     1       0.064  -2.452   0.000  0.00  0.00    -0.271 NA
ATOM     13  C   UNL     1       0.876  -2.308   0.000  0.00  0.00    +0.090 C 
ENDBRANCH   5  12
ENDBRANCH   4   5
ENDBRANCH   1   4
BRANCH   2  14
ATOM     14  C   UNL     1       2.392  -1.820   0.000  0.00  0.00    +0.117 C 
BRANCH  14  15
ATOM     15  C   UNL     1       3.106  -1.407   0.000  0.00  0.00    +0.037 A 
ATOM     16  C   UNL     1       3.860  -1.743   0.000  0.00  0.00    +0.151 A 
ATOM     17  C   UNL     1       4.031  -2.550   0.000  0.00  0.00    +0.075 C 
ATOM     18  O   UNL     1       4.412  -1.130   0.000  0.00  0.00    -0.358 OA
ATOM     19  N   UNL     1       3.999  -0.415   0.000  0.00  0.00    -0.082 NA
ATOM     20  C   UNL     1       3.192  -0.587   0.000  0.00  0.00    +0.097 A 
ATOM     21  C   UNL     1       2.579  -0.035   0.000  0.00  0.00    +0.055 C 
ENDBRANCH  14  15
ENDBRANCH   2  14
TORSDOF 5
