REMARK  Name = 
REMARK  4 active torsions:
REMARK  status: ('A' for Active; 'I' for Inactive)
REMARK    1  A    between atoms: C_7  and  N_8
REMARK    2  A    between atoms: N_11  and  C_12
REMARK    3  A    between atoms: C_12  and  C_13
REMARK    4  A    between atoms: C_13  and  C_14
REMARK                            x       y       z     vdW  Elec       q    Type
REMARK                         _______ _______ _______ _____ _____    ______ ____
ROOT
ATOM      1  N   UNL     1       1.429  -4.125   0.000  0.00  0.00    -0.159 NA
ATOM      2  C   UNL     1       2.143  -3.712   0.000  0.00  0.00    +0.344 C 
ATOM      3  N   UNL     1       2.858  -4.125   0.000  0.00  0.00    -0.186 NA
ATOM      4  O   UNL     1       2.143  -2.888   0.000  0.00  0.00    -0.249 OA
ENDROOT
BRANCH   1   7
ATOM      5  F   UNL     1       0.000  -4.950   0.000  0.00  0.00    -0.201 F 
ATOM      6  C   UNL     1       0.000  -4.125   0.000  0.00  0.00    +0.174 A 
ATOM      7  C   UNL     1       0.715  -3.712   0.000  0.00  0.00    +0.105 A 
ATOM      8  C   UNL     1       0.715  -2.888   0.000  0.00  0.00    +0.040 A 
ATOM      9  C   UNL     1       0.000  -2.475   0.000  0.00  0.00    +0.100 A 
ATOM     10  N   UNL     1      -0.715  -2.888   0.000  0.00  0.00    -0.240 NA
ATOM     11  C   UNL     1      -0.715  -3.712   0.000  0.00  0.00    +0.130 A 
ENDBRANCH   1   7
BRANCH   3  12
ATOM     12  C   UNL     1       3.572  -3.712   0.000  0.00  0.00    +0.126 C 
BRANCH  12  13
ATOM     13  C   UNL     1       4.287  -4.125   0.000  0.00  0.00    +0.109 C 
BRANCH  13  14
ATOM     14  C   UNL     1       5.001  -3.712   0.000  0.00  0.00    +0.227 C 
ATOM     15  N   UNL     1       5.716  -4.125   0.000  0.00  0.00    -0.279 N 
ATOM     16  C   UNL     1       5.716  -4.950   0.000  0.00  0.00    +0.093 C 
ATOM     17  C   UNL     1       6.430  -5.362   0.000  0.00  0.00    +0.022 C 
ATOM     18  C   UNL     1       7.145  -4.950   0.000  0.00  0.00    +0.004 C 
ATOM     19  C   UNL     1       7.145  -4.125   0.000  0.00  0.00    +0.022 C 
ATOM     20  C   UNL     1       6.430  -3.712   0.000  0.00  0.00    +0.093 C 
ATOM     21  O   UNL     1       5.001  -2.888   0.000  0.00  0.00    -0.275 OA
ENDBRANCH  13  14
ENDBRANCH  12  13
ENDBRANCH   3  12
TORSDOF 4
