REMARK  Name = 
REMARK  1 active torsions:
REMARK  status: ('A' for Active; 'I' for Inactive)
REMARK    1  A    between atoms: C_3  and  C_6
REMARK                            x       y       z     vdW  Elec       q    Type
REMARK                         _______ _______ _______ _____ _____    ______ ____
ROOT
ATOM      1  C   UNL     1       0.715  -0.412   0.000  0.00  0.00    +0.060 A 
ATOM      2  N   UNL     1       1.429   0.000   0.000  0.00  0.00    -0.248 NA
ATOM      3  C   UNL     1       1.429   0.825   0.000  0.00  0.00    +0.098 A 
ATOM      4  C   UNL     1       0.715   1.238   0.000  0.00  0.00    +0.021 A 
ATOM      5  C   UNL     1       0.000   0.825   0.000  0.00  0.00    +0.003 A 
ATOM      6  C   UNL     1       0.000   0.000   0.000  0.00  0.00    +0.015 A 
ENDROOT
BRANCH   1  10
ATOM      7  C   UNL     1       0.302  -2.507   0.000  0.00  0.00    +0.089 C 
ATOM      8  N   UNL     1       1.127  -2.507   0.000  0.00  0.00    -0.218 NA
ATOM      9  C   UNL     1       1.382  -1.722   0.000  0.00  0.00    +0.095 C 
ATOM     10  C   UNL     1       0.715  -1.238   0.000  0.00  0.00    +0.059 C 
ATOM     11  C   UNL     1       0.047  -1.722   0.000  0.00  0.00    +0.026 C 
ENDBRANCH   1  10
TORSDOF 1
