REMARK  Name = 
REMARK  5 active torsions:
REMARK  status: ('A' for Active; 'I' for Inactive)
REMARK    1  A    between atoms: O_2  and  C_3
REMARK    2  A    between atoms: C_3  and  C_4
REMARK    3  A    between atoms: C_4  and  C_5
REMARK    4  A    between atoms: C_5  and  N_6
REMARK    5  A    between atoms: C_7  and  C_9
REMARK                            x       y       z     vdW  Elec       q    Type
REMARK                         _______ _______ _______ _____ _____    ______ ____
ROOT
ATOM      1  C   UNL     1       1.429  -5.775   0.000  0.00  0.00    +0.151 A 
ATOM      2  C   UNL     1       1.429  -6.600   0.000  0.00  0.00    +0.099 A 
ATOM      3 CL   UNL     1       0.715  -7.013   0.000  0.00  0.00    -0.079 Cl
ATOM      4  C   UNL     1       2.143  -7.013   0.000  0.00  0.00    +0.115 A 
ATOM      5  N   UNL     1       2.858  -6.600   0.000  0.00  0.00    -0.211 NA
ATOM      6  C   UNL     1       2.858  -5.775   0.000  0.00  0.00    +0.220 A 
ATOM      7  N   UNL     1       3.572  -5.362   0.000  0.00  0.00    -0.273 N 
ATOM      8  C   UNL     1       4.287  -5.775   0.000  0.00  0.00    +0.126 C 
ATOM      9  C   UNL     1       5.001  -5.362   0.000  0.00  0.00    +0.164 C 
ATOM     10  O   UNL     1       5.001  -4.537   0.000  0.00  0.00    -0.350 OA
ATOM     11  C   UNL     1       4.287  -4.125   0.000  0.00  0.00    +0.164 C 
ATOM     12  C   UNL     1       3.572  -4.537   0.000  0.00  0.00    +0.126 C 
ATOM     13  N   UNL     1       2.143  -5.362   0.000  0.00  0.00    -0.208 NA
ENDROOT
BRANCH   1  15
ATOM     14  N   UNL     1       0.000  -5.775   0.000  0.00  0.00    -0.200 NA
ATOM     15  C   UNL     1       0.715  -5.362   0.000  0.00  0.00    +0.284 C 
ATOM     16  O   UNL     1       0.715  -4.537   0.000  0.00  0.00    -0.267 OA
BRANCH  14  17
ATOM     17  C   UNL     1      -0.715  -5.362   0.000  0.00  0.00    +0.118 C 
BRANCH  17  18
ATOM     18  C   UNL     1      -1.429  -5.775   0.000  0.00  0.00    +0.055 C 
BRANCH  18  19
ATOM     19  C   UNL     1      -2.143  -5.362   0.000  0.00  0.00    +0.144 C 
BRANCH  19  21
ATOM     20  C   UNL     1      -3.572  -5.362   0.000  0.00  0.00    +0.174 C 
ATOM     21  O   UNL     1      -2.858  -5.775   0.000  0.00  0.00    -0.351 OA
ENDBRANCH  19  21
ENDBRANCH  18  19
ENDBRANCH  17  18
ENDBRANCH  14  17
ENDBRANCH   1  15
TORSDOF 5
