REMARK  Name = 
REMARK  7 active torsions:
REMARK  status: ('A' for Active; 'I' for Inactive)
REMARK    1  A    between atoms: O_2  and  C_3
REMARK    2  A    between atoms: C_3  and  C_4
REMARK    3  A    between atoms: C_4  and  N_5
REMARK    4  A    between atoms: C_8  and  C_9
REMARK    5  A    between atoms: C_9  and  N_10
REMARK    6  A    between atoms: C_11  and  C_13
REMARK    7  A    between atoms: C_13  and  C_14
REMARK                            x       y       z     vdW  Elec       q    Type
REMARK                         _______ _______ _______ _____ _____    ______ ____
ROOT
ATOM      1  N   UNL     1       1.429  -2.475   0.000  0.00  0.00    -0.205 NA
ATOM      2  C   UNL     1       2.143  -2.888   0.000  0.00  0.00    +0.246 C 
ATOM      3  O   UNL     1       2.143  -3.712   0.000  0.00  0.00    -0.273 OA
ENDROOT
BRANCH   2   4
ATOM      4  C   UNL     1       2.858  -2.475   0.000  0.00  0.00    +0.119 C 
BRANCH   4   5
ATOM      5  C   UNL     1       3.572  -2.888   0.000  0.00  0.00    +0.058 A 
ATOM      6  C   UNL     1       3.572  -3.712   0.000  0.00  0.00    +0.278 A 
ATOM      7  O   UNL     1       2.858  -4.125   0.000  0.00  0.00    -0.265 OA
ATOM      8  N   UNL     1       4.287  -4.125   0.000  0.00  0.00    -0.193 NA
ATOM      9  C   UNL     1       5.001  -3.712   0.000  0.00  0.00    +0.142 A 
ATOM     10  C   UNL     1       5.716  -4.125   0.000  0.00  0.00    +0.074 C 
ATOM     11  N   UNL     1       5.001  -2.888   0.000  0.00  0.00    -0.235 NA
ATOM     12  C   UNL     1       4.287  -2.475   0.000  0.00  0.00    +0.062 A 
ATOM     13  C   UNL     1       4.287  -1.650   0.000  0.00  0.00    +0.052 C 
ENDBRANCH   4   5
ENDBRANCH   2   4
BRANCH   1  14
ATOM     14  C   UNL     1       0.715  -2.888   0.000  0.00  0.00    +0.115 C 
BRANCH  14  18
ATOM     15  N   UNL     1      -1.429  -1.650   0.000  0.00  0.00    -0.271 NA
ATOM     16  C   UNL     1      -1.429  -2.475   0.000  0.00  0.00    +0.072 C 
ATOM     17  C   UNL     1      -0.715  -2.888   0.000  0.00  0.00    +0.019 C 
ATOM     18  C   UNL     1       0.000  -2.475   0.000  0.00  0.00    +0.024 C 
ATOM     19  C   UNL     1       0.000  -1.650   0.000  0.00  0.00    +0.019 C 
ATOM     20  C   UNL     1      -0.715  -1.238   0.000  0.00  0.00    +0.072 C 
BRANCH  15  21
ATOM     21  C   UNL     1      -2.143  -1.238   0.000  0.00  0.00    +0.105 C 
BRANCH  21  22
ATOM     22  C   UNL     1      -2.858  -1.650   0.000  0.00  0.00    +0.160 C 
BRANCH  22  24
ATOM     23  C   UNL     1      -4.287  -1.650   0.000  0.00  0.00    +0.174 C 
ATOM     24  O   UNL     1      -3.572  -1.238   0.000  0.00  0.00    -0.350 OA
ENDBRANCH  22  24
ENDBRANCH  21  22
ENDBRANCH  15  21
ENDBRANCH  14  18
ENDBRANCH   1  14
TORSDOF 7
