REMARK  Name = 
REMARK  4 active torsions:
REMARK  status: ('A' for Active; 'I' for Inactive)
REMARK    1  A    between atoms: N_3  and  C_4
REMARK    2  A    between atoms: C_4  and  C_5
REMARK    3  A    between atoms: C_5  and  N_6
REMARK    4  A    between atoms: N_14  and  C_15
REMARK                            x       y       z     vdW  Elec       q    Type
REMARK                         _______ _______ _______ _____ _____    ______ ____
ROOT
ATOM      1  O   UNL     1       2.605  -2.556   0.000  0.00  0.00    -0.249 OA
ATOM      2  C   UNL     1       2.605  -1.731   0.000  0.00  0.00    +0.344 C 
ATOM      3  N   UNL     1       3.319  -1.319   0.000  0.00  0.00    -0.159 NA
ATOM      4  N   UNL     1       1.890  -1.319   0.000  0.00  0.00    -0.185 NA
ENDROOT
BRANCH   3   5
ATOM      5  C   UNL     1       4.034  -1.731   0.000  0.00  0.00    +0.094 A 
ATOM      6  C   UNL     1       4.034  -2.556   0.000  0.00  0.00    +0.115 A 
ATOM      7  N   UNL     1       4.748  -2.969   0.000  0.00  0.00    -0.241 NA
ATOM      8  C   UNL     1       5.463  -2.556   0.000  0.00  0.00    +0.099 A 
ATOM      9  C   UNL     1       5.463  -1.731   0.000  0.00  0.00    +0.022 A 
ATOM     10  C   UNL     1       4.748  -1.319   0.000  0.00  0.00    +0.020 A 
ENDBRANCH   3   5
BRANCH   4  11
ATOM     11  C   UNL     1       1.176  -1.731   0.000  0.00  0.00    +0.138 C 
BRANCH  11  12
ATOM     12  C   UNL     1       0.461  -1.319   0.000  0.00  0.00    +0.117 C 
BRANCH  12  13
ATOM     13  N   UNL     1      -0.253  -1.731   0.000  0.00  0.00    -0.278 N 
ATOM     14  C   UNL     1      -0.935  -1.266   0.000  0.00  0.00    +0.226 C 
ATOM     15  O   UNL     1      -0.812  -0.451   0.000  0.00  0.00    -0.275 OA
ATOM     16  C   UNL     1      -1.723  -1.510   0.000  0.00  0.00    +0.085 C 
ATOM     17  C   UNL     1      -2.024  -2.278   0.000  0.00  0.00    +0.010 C 
ATOM     18  C   UNL     1      -1.612  -2.992   0.000  0.00  0.00    +0.002 C 
ATOM     19  C   UNL     1      -0.796  -3.115   0.000  0.00  0.00    +0.022 C 
ATOM     20  C   UNL     1      -0.191  -2.554   0.000  0.00  0.00    +0.093 C 
ENDBRANCH  12  13
ENDBRANCH  11  12
ENDBRANCH   4  11
TORSDOF 4
