REMARK  Name = 
REMARK  1 active torsions:
REMARK  status: ('A' for Active; 'I' for Inactive)
REMARK    1  A    between atoms: C_4  and  C_5
REMARK                            x       y       z     vdW  Elec       q    Type
REMARK                         _______ _______ _______ _____ _____    ______ ____
ROOT
ATOM      1 CL   UNL     1       0.000   0.000   0.000  0.00  0.00    +0.000 Cl
ENDROOT
TORSDOF 0
REMARK  Name = 
REMARK  1 active torsions:
REMARK  status: ('A' for Active; 'I' for Inactive)
REMARK    1  A    between atoms: C_4  and  C_5
REMARK                            x       y       z     vdW  Elec       q    Type
REMARK                         _______ _______ _______ _____ _____    ______ ____
ROOT
ATOM      1 CL   UNL     1       2.004   0.000   0.000  0.00  0.00    +0.000 Cl
ENDROOT
TORSDOF 0
REMARK  Name = 
REMARK  1 active torsions:
REMARK  status: ('A' for Active; 'I' for Inactive)
REMARK    1  A    between atoms: C_4  and  C_5
REMARK                            x       y       z     vdW  Elec       q    Type
REMARK                         _______ _______ _______ _____ _____    ______ ____
ROOT
ATOM      1  C   UNL     1       0.051  -2.888   0.000  0.00  0.00    +0.016 A 
ATOM      2  C   UNL     1      -0.663  -3.300   0.000  0.00  0.00    +0.097 A 
ATOM      3  N   UNL     1      -0.663  -4.125   0.000  0.00  0.00    -0.229 NA
ATOM      4  C   UNL     1       0.051  -4.537   0.000  0.00  0.00    +0.132 A 
ATOM      5  N   UNL     1       0.051  -5.362   0.000  0.00  0.00    -0.288 N 
ATOM      6  C   UNL     1      -0.663  -5.775   0.000  0.00  0.00    +0.124 C 
ATOM      7  C   UNL     1      -0.663  -6.600   0.000  0.00  0.00    +0.164 C 
ATOM      8  O   UNL     1       0.051  -7.013   0.000  0.00  0.00    -0.350 OA
ATOM      9  C   UNL     1       0.765  -6.600   0.000  0.00  0.00    +0.164 C 
ATOM     10  C   UNL     1       0.765  -5.775   0.000  0.00  0.00    +0.124 C 
ATOM     11  C   UNL     1       0.765  -4.125   0.000  0.00  0.00    +0.034 A 
ATOM     12  C   UNL     1       0.765  -3.300   0.000  0.00  0.00    +0.002 A 
ENDROOT
BRANCH   1  14
ATOM     13  N   UNL     1      -0.663  -1.650   0.000  0.00  0.00    -0.126 NA
ATOM     14  C   UNL     1       0.051  -2.062   0.000  0.00  0.00    +0.137 C 
ENDBRANCH   1  14
TORSDOF 1
