REMARK  Name = 
REMARK  6 active torsions:
REMARK  status: ('A' for Active; 'I' for Inactive)
REMARK    1  A    between atoms: C_2  and  C_4
REMARK    2  A    between atoms: C_4  and  N_5
REMARK    3  A    between atoms: C_4  and  C_9
REMARK    4  A    between atoms: N_11  and  C_12
REMARK    5  A    between atoms: C_12  and  C_13
REMARK    6  A    between atoms: C_18  and  N_19
REMARK                            x       y       z     vdW  Elec       q    Type
REMARK                         _______ _______ _______ _____ _____    ______ ____
ROOT
ATOM      1  C   UNL     1       7.859  -1.238   0.000  0.00  0.00    +0.144 C 
ENDROOT
BRANCH   1   2
ATOM      2  C   UNL     1       8.574  -0.825   0.000  0.00  0.00    +0.031 A 
ATOM      3  C   UNL     1       9.288  -1.238   0.000  0.00  0.00    +0.129 A 
ATOM      4  N   UNL     1      10.003  -0.825   0.000  0.00  0.00    -0.229 NA
ATOM      5  C   UNL     1      10.003   0.000   0.000  0.00  0.00    +0.100 A 
ATOM      6  C   UNL     1       9.288   0.412   0.000  0.00  0.00    +0.021 A 
ATOM      7  C   UNL     1       8.574   0.000   0.000  0.00  0.00    +0.002 A 
BRANCH   3   8
ATOM      8  N   UNL     1       9.288  -2.062   0.000  0.00  0.00    -0.288 N 
ATOM      9  C   UNL     1       8.574  -2.475   0.000  0.00  0.00    +0.124 C 
ATOM     10  C   UNL     1       8.574  -3.300   0.000  0.00  0.00    +0.164 C 
ATOM     11  O   UNL     1       9.288  -3.712   0.000  0.00  0.00    -0.350 OA
ATOM     12  C   UNL     1      10.003  -3.300   0.000  0.00  0.00    +0.164 C 
ATOM     13  C   UNL     1      10.003  -2.475   0.000  0.00  0.00    +0.124 C 
ENDBRANCH   3   8
ENDBRANCH   1   2
BRANCH   1  15
ATOM     14  C   UNL     1       6.430  -1.238   0.000  0.00  0.00    +0.262 C 
ATOM     15  N   UNL     1       7.145  -0.825   0.000  0.00  0.00    -0.199 NA
ATOM     16  O   UNL     1       6.430  -2.062   0.000  0.00  0.00    -0.271 OA
BRANCH  14  17
ATOM     17  C   UNL     1       5.716  -0.825   0.000  0.00  0.00    +0.173 C 
BRANCH  17  18
ATOM     18  N   UNL     1       5.001  -1.238   0.000  0.00  0.00    -0.198 NA
ATOM     19  C   UNL     1       4.287  -0.825   0.000  0.00  0.00    +0.242 C 
ATOM     20  C   UNL     1       4.287   0.000   0.000  0.00  0.00    +0.096 C 
ATOM     21  O   UNL     1       3.572  -1.238   0.000  0.00  0.00    -0.273 OA
ENDBRANCH  17  18
BRANCH  17  23
ATOM     22  C   UNL     1       6.430   0.412   0.000  0.00  0.00    +0.002 C 
ATOM     23  C   UNL     1       5.716   0.000   0.000  0.00  0.00    +0.029 C 
ATOM     24  C   UNL     1       5.001   0.412   0.000  0.00  0.00    +0.002 C 
ENDBRANCH  17  23
ENDBRANCH  14  17
ENDBRANCH   1  15
TORSDOF 6
