REMARK  Name = 
REMARK  5 active torsions:
REMARK  status: ('A' for Active; 'I' for Inactive)
REMARK    1  A    between atoms: N_2  and  C_4
REMARK    2  A    between atoms: C_4  and  C_5
REMARK    3  A    between atoms: C_5  and  N_6
REMARK    4  A    between atoms: C_7  and  C_9
REMARK    5  A    between atoms: C_9  and  N_10
REMARK                            x       y       z     vdW  Elec       q    Type
REMARK                         _______ _______ _______ _____ _____    ______ ____
ROOT
ATOM      1  N   UNL     1       0.538  -1.939   0.000  0.00  0.00    -0.202 NA
ATOM      2  C   UNL     1       1.253  -1.527   0.000  0.00  0.00    +0.265 C 
ATOM      3  O   UNL     1       1.253  -0.702   0.000  0.00  0.00    -0.271 OA
ENDROOT
BRANCH   1   4
ATOM      4  C   UNL     1      -0.176  -1.527   0.000  0.00  0.00    +0.130 C 
BRANCH   4   5
ATOM      5  C   UNL     1      -0.891  -1.939   0.000  0.00  0.00    +0.066 C 
ATOM      6  C   UNL     1      -1.134  -1.151   0.000  0.00  0.00    +0.016 C 
ATOM      7  C   UNL     1      -1.902  -0.850   0.000  0.00  0.00    +0.001 C 
ATOM      8  C   UNL     1      -2.616  -1.262   0.000  0.00  0.00    +0.000 C 
ATOM      9  C   UNL     1      -2.739  -2.078   0.000  0.00  0.00    +0.000 C 
ATOM     10  C   UNL     1      -2.178  -2.683   0.000  0.00  0.00    +0.001 C 
ATOM     11  C   UNL     1      -1.355  -2.621   0.000  0.00  0.00    +0.016 C 
BRANCH   5  13
ATOM     12  C   UNL     1      -0.573  -3.332   0.000  0.00  0.00    +0.090 C 
ATOM     13  N   UNL     1      -0.330  -2.544   0.000  0.00  0.00    -0.271 NA
ATOM     14  C   UNL     1       0.475  -2.361   0.000  0.00  0.00    +0.090 C 
ENDBRANCH   5  13
ENDBRANCH   4   5
ENDBRANCH   1   4
BRANCH   2  15
ATOM     15  C   UNL     1       1.967  -1.939   0.000  0.00  0.00    +0.197 C 
BRANCH  15  16
ATOM     16  N   UNL     1       2.682  -1.527   0.000  0.00  0.00    -0.271 N 
ATOM     17  C   UNL     1       3.396  -1.939   0.000  0.00  0.00    +0.334 A 
ATOM     18  O   UNL     1       3.396  -2.764   0.000  0.00  0.00    -0.246 OA
ATOM     19  N   UNL     1       4.111  -1.527   0.000  0.00  0.00    -0.247 N 
ATOM     20  C   UNL     1       4.825  -1.939   0.000  0.00  0.00    +0.138 C 
ATOM     21  C   UNL     1       4.111  -0.702   0.000  0.00  0.00    +0.266 A 
ATOM     22  O   UNL     1       4.825  -0.289   0.000  0.00  0.00    -0.267 OA
ATOM     23  C   UNL     1       3.396  -0.289   0.000  0.00  0.00    +0.080 A 
ATOM     24  C   UNL     1       2.682  -0.702   0.000  0.00  0.00    +0.085 A 
ENDBRANCH  15  16
ENDBRANCH   2  15
TORSDOF 5
