REMARK  Name = 
REMARK  2 active torsions:
REMARK  status: ('A' for Active; 'I' for Inactive)
REMARK    1  A    between atoms: N_1  and  C1*_4
REMARK    2  A    between atoms: C4*_10  and  C5*_18
REMARK                            x       y       z     vdW  Elec       q    Type
REMARK                         _______ _______ _______ _____ _____    ______ ____
ROOT
ATOM      1  N   UNL     1       0.954  -1.642   0.000  0.00  0.00    -0.272 N 
ATOM      2  C   UNL     1       0.471  -0.975   0.000  0.00  0.00    +0.181 A 
ATOM      3  N   UNL     1       0.954  -0.308   0.000  0.00  0.00    -0.224 NA
ATOM      4  C   UNL     1       1.738  -0.563   0.000  0.00  0.00    +0.127 A 
ATOM      5  C   UNL     1       2.384  -0.046   0.000  0.00  0.00    +0.216 C 
ATOM      6  C   UNL     1       3.188  -0.229   0.000  0.00  0.00    +0.153 C 
ATOM      7  N   UNL     1       3.546  -0.975   0.000  0.00  0.00    -0.215 NA
ATOM      8  C   UNL     1       3.188  -1.717   0.000  0.00  0.00    +0.183 C 
ATOM      9  N   UNL     1       2.384  -1.900   0.000  0.00  0.00    -0.208 NA
ATOM     10  O   UNL     1       2.200   0.758   0.000  0.00  0.00    -0.215 OA
ATOM     11  C   UNL     1       1.738  -1.388   0.000  0.00  0.00    +0.164 A 
ENDROOT
BRANCH   1  12
ATOM     12  C1* UNL     1       0.700  -2.425   0.000  0.00  0.00    +0.210 C 
ATOM     13  C2* UNL     1       1.183  -3.092   0.000  0.00  0.00    +0.089 C 
ATOM     14  C3* UNL     1       0.700  -3.763   0.000  0.00  0.00    +0.186 C 
ATOM     15  C4* UNL     1      -0.083  -3.505   0.000  0.00  0.00    +0.180 C 
ATOM     16  O3* UNL     1       0.954  -4.547   0.000  0.00  0.00    -0.220 OA
ATOM     17  O4* UNL     1      -0.083  -2.680   0.000  0.00  0.00    -0.332 OA
BRANCH  15  18
ATOM     18  C5* UNL     1      -0.754  -3.992   0.000  0.00  0.00    +0.214 C 
ATOM     19  O5* UNL     1      -0.667  -4.813   0.000  0.00  0.00    -0.218 OA
ENDBRANCH  15  18
ENDBRANCH   1  12
TORSDOF 2
