REMARK  Name = 
REMARK  4 active torsions:
REMARK  status: ('A' for Active; 'I' for Inactive)
REMARK    1  A    between atoms: C_2  and  C_3
REMARK    2  A    between atoms: C_2  and  N_15
REMARK    3  A    between atoms: N_5  and  C_6
REMARK    4  A    between atoms: C_6  and  C_13
REMARK                            x       y       z     vdW  Elec       q    Type
REMARK                         _______ _______ _______ _____ _____    ______ ____
ROOT
ATOM      1  C   UNL     1       0.256  -1.947   0.000  0.00  0.00    +0.265 C 
ATOM      2  N   UNL     1       0.256  -1.122   0.000  0.00  0.00    -0.193 NA
ATOM      3  O   UNL     1      -0.458  -2.360   0.000  0.00  0.00    -0.271 OA
ENDROOT
BRANCH   2   4
ATOM      4  C   UNL     1      -0.458  -0.710   0.000  0.00  0.00    +0.157 C 
ATOM      5  C   UNL     1       0.072  -0.078   0.000  0.00  0.00    +0.034 C 
ATOM      6  C   UNL     1      -0.210   0.698   0.000  0.00  0.00    +0.003 C 
ATOM      7  C   UNL     1       0.320   1.330   0.000  0.00  0.00    +0.000 C 
ATOM      8  C   UNL     1      -1.023   0.841   0.000  0.00  0.00    +0.000 C 
ATOM      9  C   UNL     1      -1.553   0.209   0.000  0.00  0.00    +0.003 C 
ATOM     10  C   UNL     1      -1.271  -0.566   0.000  0.00  0.00    +0.034 C 
BRANCH   4  11
ATOM     11  C   UNL     1      -0.740  -1.485   0.000  0.00  0.00    +0.091 C 
ATOM     12  N   UNL     1      -1.023  -2.260   0.000  0.00  0.00    -0.194 NA
ENDBRANCH   4  11
ENDBRANCH   2   4
BRANCH   1  14
ATOM     13  C   UNL     1       1.685  -1.947   0.000  0.00  0.00    +0.036 C 
ATOM     14  C   UNL     1       0.971  -2.360   0.000  0.00  0.00    +0.183 C 
BRANCH  14  15
ATOM     15  N   UNL     1       0.971  -3.185   0.000  0.00  0.00    -0.242 N 
ATOM     16  N   UNL     1       0.303  -3.670   0.000  0.00  0.00    -0.167 NA
ATOM     17  C   UNL     1       0.558  -4.454   0.000  0.00  0.00    +0.122 A 
ATOM     18  C   UNL     1       1.383  -4.454   0.000  0.00  0.00    +0.043 A 
ATOM     19  C   UNL     1       1.638  -3.670   0.000  0.00  0.00    +0.097 A 
ENDBRANCH  14  15
ENDBRANCH   1  14
TORSDOF 4
