REMARK  Name = 
REMARK  6 active torsions:
REMARK  status: ('A' for Active; 'I' for Inactive)
REMARK    1  A    between atoms: C_2  and  O_3
REMARK    2  A    between atoms: O_3  and  C_4
REMARK    3  A    between atoms: C_4  and  C_5
REMARK    4  A    between atoms: C_5  and  C_7
REMARK    5  A    between atoms: C_7  and  N_8
REMARK    6  A    between atoms: C_11  and  C_15
REMARK                            x       y       z     vdW  Elec       q    Type
REMARK                         _______ _______ _______ _____ _____    ______ ____
ROOT
ATOM      1  N   UNL     1       5.716  -4.125   0.000  0.00  0.00    -0.275 N 
ATOM      2  C   UNL     1       5.716  -4.950   0.000  0.00  0.00    +0.263 A 
ATOM      3  O   UNL     1       5.001  -5.362   0.000  0.00  0.00    -0.267 OA
ATOM      4  C   UNL     1       6.430  -5.362   0.000  0.00  0.00    +0.075 A 
ATOM      5  C   UNL     1       7.145  -4.950   0.000  0.00  0.00    +0.065 A 
ATOM      6  N   UNL     1       7.145  -4.125   0.000  0.00  0.00    -0.230 NA
ATOM      7  C   UNL     1       6.430  -3.712   0.000  0.00  0.00    +0.181 A 
ENDROOT
BRANCH   5   8
ATOM      8  C   UNL     1       7.859  -5.362   0.000  0.00  0.00    +0.040 C 
ATOM      9  C   UNL     1       8.073  -6.159   0.000  0.00  0.00    +0.006 C 
ATOM     10  C   UNL     1       8.870  -5.946   0.000  0.00  0.00    +0.001 C 
ATOM     11  C   UNL     1       8.656  -5.149   0.000  0.00  0.00    +0.006 C 
ENDBRANCH   5   8
BRANCH   1  12
ATOM     12  C   UNL     1       5.001  -3.712   0.000  0.00  0.00    +0.146 C 
BRANCH  12  13
ATOM     13  C   UNL     1       4.287  -4.125   0.000  0.00  0.00    +0.204 C 
ATOM     14  O   UNL     1       4.287  -4.950   0.000  0.00  0.00    -0.218 OA
BRANCH  13  15
ATOM     15  C   UNL     1       3.572  -3.712   0.000  0.00  0.00    +0.177 C 
BRANCH  15  16
ATOM     16  O   UNL     1       2.858  -4.125   0.000  0.00  0.00    -0.351 OA
BRANCH  16  18
ATOM     17  C   UNL     1       1.429  -4.125   0.000  0.00  0.00    +0.035 C 
ATOM     18  C   UNL     1       2.143  -3.712   0.000  0.00  0.00    +0.142 C 
ENDBRANCH  16  18
ENDBRANCH  15  16
ENDBRANCH  13  15
ENDBRANCH  12  13
ENDBRANCH   1  12
TORSDOF 6
