REMARK  Name = 
REMARK  1 active torsions:
REMARK  status: ('A' for Active; 'I' for Inactive)
REMARK    1  A    between atoms: C_6  and  C_8
REMARK                            x       y       z     vdW  Elec       q    Type
REMARK                         _______ _______ _______ _____ _____    ______ ____
ROOT
ATOM      1  C   UNL     1       0.000  -4.125   0.000  0.00  0.00    +0.275 C 
ATOM      2  N   UNL     1       0.000  -4.950   0.000  0.00  0.00    -0.158 NA
ATOM      3  C   UNL     1      -0.715  -5.362   0.000  0.00  0.00    +0.154 A 
ATOM      4  N   UNL     1      -1.429  -4.950   0.000  0.00  0.00    -0.233 NA
ATOM      5  C   UNL     1      -2.143  -5.362   0.000  0.00  0.00    +0.061 A 
ATOM      6  C   UNL     1      -2.858  -4.950   0.000  0.00  0.00    +0.052 C 
ATOM      7  C   UNL     1      -2.143  -6.188   0.000  0.00  0.00    +0.011 A 
ATOM      8  C   UNL     1      -1.429  -6.600   0.000  0.00  0.00    -0.018 A 
ATOM      9  C   UNL     1      -1.429  -7.425   0.000  0.00  0.00    +0.031 C 
ATOM     10  C   UNL     1      -0.715  -6.188   0.000  0.00  0.00    +0.032 A 
ATOM     11  O   UNL     1      -0.715  -3.712   0.000  0.00  0.00    -0.270 OA
ENDROOT
BRANCH   1  15
ATOM     12  C   UNL     1       1.429  -1.650   0.000  0.00  0.00    +0.090 C 
ATOM     13  N   UNL     1       1.429  -2.475   0.000  0.00  0.00    -0.267 NA
ATOM     14  C   UNL     1       0.715  -2.888   0.000  0.00  0.00    +0.112 C 
ATOM     15  C   UNL     1       0.715  -3.712   0.000  0.00  0.00    +0.209 C 
ATOM     16  O   UNL     1       1.429  -4.125   0.000  0.00  0.00    -0.344 OA
ATOM     17  C   UNL     1       2.143  -3.712   0.000  0.00  0.00    +0.160 C 
ATOM     18  C   UNL     1       2.143  -2.888   0.000  0.00  0.00    +0.105 C 
ENDBRANCH   1  15
TORSDOF 1
