REMARK  Name = 
REMARK  7 active torsions:
REMARK  status: ('A' for Active; 'I' for Inactive)
REMARK    1  A    between atoms: C_2  and  C_3
REMARK    2  A    between atoms: C_3  and  N_4
REMARK    3  A    between atoms: N_7  and  C_8
REMARK    4  A    between atoms: C_8  and  C_9
REMARK    5  A    between atoms: N_13  and  C_14
REMARK    6  A    between atoms: C_14  and  C_15
REMARK    7  A    between atoms: N_17  and  C_18
REMARK                            x       y       z     vdW  Elec       q    Type
REMARK                         _______ _______ _______ _____ _____    ______ ____
ROOT
ATOM      1  N   UNL     1       1.841   3.538   0.000  0.00  0.00    -0.230 N 
ATOM      2  C   UNL     1       2.556   3.126   0.000  0.00  0.00    +0.339 A 
ATOM      3  O   UNL     1       2.556   2.301   0.000  0.00  0.00    -0.246 OA
ATOM      4  N   UNL     1       3.270   3.538   0.000  0.00  0.00    -0.225 N 
ATOM      5  C   UNL     1       3.270   4.363   0.000  0.00  0.00    +0.339 A 
ATOM      6  O   UNL     1       3.985   4.776   0.000  0.00  0.00    -0.246 OA
ATOM      7  N   UNL     1       2.556   4.776   0.000  0.00  0.00    -0.230 N 
ATOM      8  C   UNL     1       1.841   4.363   0.000  0.00  0.00    +0.339 A 
ATOM      9  O   UNL     1       1.127   4.776   0.000  0.00  0.00    -0.246 OA
ENDROOT
BRANCH   4  10
ATOM     10  C   UNL     1       3.985   3.126   0.000  0.00  0.00    +0.202 C 
BRANCH  10  11
ATOM     11  C   UNL     1       3.985   2.301   0.000  0.00  0.00    +0.265 C 
ATOM     12  N   UNL     1       4.699   1.888   0.000  0.00  0.00    -0.206 NA
ATOM     13  O   UNL     1       3.270   1.888   0.000  0.00  0.00    -0.271 OA
BRANCH  12  14
ATOM     14  C   UNL     1       4.699   1.063   0.000  0.00  0.00    +0.095 C 
ATOM     15  C   UNL     1       4.287   0.349   0.000  0.00  0.00    +0.023 C 
ATOM     16  C   UNL     1       5.112   0.349   0.000  0.00  0.00    +0.023 C 
ENDBRANCH  12  14
ENDBRANCH  10  11
ENDBRANCH   4  10
BRANCH   1  17
ATOM     17  C   UNL     1       1.127   3.126   0.000  0.00  0.00    +0.142 C 
BRANCH  17  19
ATOM     18  C   UNL     1      -0.302   3.126   0.000  0.00  0.00    -0.003 C 
ATOM     19  C   UNL     1       0.412   3.538   0.000  0.00  0.00    -0.001 C 
ENDBRANCH  17  19
ENDBRANCH   1  17
BRANCH   7  20
ATOM     20  C   UNL     1       2.556   5.601   0.000  0.00  0.00    +0.142 C 
BRANCH  20  21
ATOM     21  C   UNL     1       1.841   6.013   0.000  0.00  0.00    -0.001 C 
ATOM     22  C   UNL     1       1.841   6.838   0.000  0.00  0.00    -0.003 C 
ENDBRANCH  20  21
ENDBRANCH   7  20
TORSDOF 7
