REMARK  Name = 
REMARK  5 active torsions:
REMARK  status: ('A' for Active; 'I' for Inactive)
REMARK    1  A    between atoms: C_2  and  C_3
REMARK    2  A    between atoms: C_3  and  N_4
REMARK    3  A    between atoms: N_4  and  C_5
REMARK    4  A    between atoms: C_5  and  C_6
REMARK    5  A    between atoms: C_6  and  N_7
REMARK                            x       y       z     vdW  Elec       q    Type
REMARK                         _______ _______ _______ _____ _____    ______ ____
ROOT
ATOM      1  O   UNL     1       2.858   0.825   0.000  0.00  0.00    -0.273 OA
ATOM      2  C   UNL     1       2.858   0.000   0.000  0.00  0.00    +0.243 C 
ATOM      3  N   UNL     1       2.143  -0.412   0.000  0.00  0.00    -0.275 N 
ATOM      4  C   UNL     1       1.429   0.000   0.000  0.00  0.00    +0.102 C 
ATOM      5  C   UNL     1       0.715  -0.412   0.000  0.00  0.00    +0.133 C 
ATOM      6  C   UNL     1       0.000   0.000   0.000  0.00  0.00    +0.031 C 
ATOM      7  C   UNL     1       0.000   0.825   0.000  0.00  0.00    +0.003 C 
ATOM      8  C   UNL     1       0.715   1.238   0.000  0.00  0.00    +0.002 C 
ATOM      9  O   UNL     1       0.715  -1.238   0.000  0.00  0.00    -0.353 OA
ATOM     10  C   UNL     1       1.429  -1.650   0.000  0.00  0.00    +0.164 C 
ATOM     11  C   UNL     1       1.429   0.825   0.000  0.00  0.00    +0.022 C 
ATOM     12  C   UNL     1       2.143  -1.238   0.000  0.00  0.00    +0.125 C 
ENDROOT
BRANCH   2  13
ATOM     13  C   UNL     1       3.572  -0.412   0.000  0.00  0.00    +0.174 C 
BRANCH  13  14
ATOM     14  N   UNL     1       4.287   0.000   0.000  0.00  0.00    -0.206 NA
BRANCH  14  15
ATOM     15  C   UNL     1       5.001  -0.412   0.000  0.00  0.00    +0.116 C 
BRANCH  15  16
ATOM     16  C   UNL     1       5.716   0.000   0.000  0.00  0.00    +0.146 C 
BRANCH  16  17
ATOM     17  N   UNL     1       6.430  -0.412   0.000  0.00  0.00    -0.248 N 
ATOM     18  N   UNL     1       6.516  -1.233   0.000  0.00  0.00    -0.168 NA
ATOM     19  C   UNL     1       7.323  -1.405   0.000  0.00  0.00    +0.122 A 
ATOM     20  C   UNL     1       7.736  -0.690   0.000  0.00  0.00    +0.043 A 
ATOM     21  C   UNL     1       7.184  -0.077   0.000  0.00  0.00    +0.097 A 
ENDBRANCH  16  17
ENDBRANCH  15  16
ENDBRANCH  14  15
ENDBRANCH  13  14
ENDBRANCH   2  13
TORSDOF 5
