REMARK  Name = 
REMARK  3 active torsions:
REMARK  status: ('A' for Active; 'I' for Inactive)
REMARK    1  A    between atoms: C_5  and  N_6
REMARK    2  A    between atoms: C_7  and  C_9
REMARK    3  A    between atoms: C_9  and  C_10
REMARK                            x       y       z     vdW  Elec       q    Type
REMARK                         _______ _______ _______ _____ _____    ______ ____
ROOT
ATOM      1  N   UNL     1       3.649  -4.474   0.000  0.00  0.00    -0.204 NA
ATOM      2  C   UNL     1       3.313  -5.227   0.000  0.00  0.00    +0.246 C 
ATOM      3  O   UNL     1       2.493  -5.314   0.000  0.00  0.00    -0.273 OA
ENDROOT
BRANCH   1  10
ATOM      4  C   UNL     1       3.303  -1.923   0.000  0.00  0.00    +0.030 C 
ATOM      5  C   UNL     1       2.751  -2.537   0.000  0.00  0.00    +0.095 C 
ATOM      6  O   UNL     1       2.084  -3.022   0.000  0.00  0.00    -0.362 OA
ATOM      7  C   UNL     1       2.339  -3.806   0.000  0.00  0.00    +0.111 C 
ATOM      8  C   UNL     1       1.532  -3.978   0.000  0.00  0.00    +0.031 C 
ATOM      9  C   UNL     1       2.425  -4.627   0.000  0.00  0.00    +0.031 C 
ATOM     10  C   UNL     1       3.164  -3.806   0.000  0.00  0.00    +0.122 C 
ATOM     11  C   UNL     1       3.419  -3.022   0.000  0.00  0.00    +0.051 C 
ATOM     12  C   UNL     1       2.199  -1.923   0.000  0.00  0.00    +0.030 C 
ENDBRANCH   1  10
BRANCH   2  13
ATOM     13  C   UNL     1       3.798  -5.895   0.000  0.00  0.00    +0.115 C 
BRANCH  13  14
ATOM     14  C   UNL     1       3.462  -6.648   0.000  0.00  0.00    +0.006 A 
ATOM     15  C   UNL     1       2.642  -6.735   0.000  0.00  0.00    +0.095 A 
ATOM     16  N   UNL     1       2.306  -7.488   0.000  0.00  0.00    -0.243 NA
ATOM     17  C   UNL     1       2.791  -8.156   0.000  0.00  0.00    +0.099 A 
ATOM     18  C   UNL     1       3.612  -8.069   0.000  0.00  0.00    +0.020 A 
ATOM     19  C   UNL     1       3.947  -7.316   0.000  0.00  0.00    -0.001 A 
ENDBRANCH  13  14
ENDBRANCH   2  13
TORSDOF 3
