REMARK  Name = 
REMARK  4 active torsions:
REMARK  status: ('A' for Active; 'I' for Inactive)
REMARK    1  A    between atoms: N_3  and  C_4
REMARK    2  A    between atoms: C_4  and  C_5
REMARK    3  A    between atoms: C_5  and  C_6
REMARK    4  A    between atoms: N_12  and  C_13
REMARK                            x       y       z     vdW  Elec       q    Type
REMARK                         _______ _______ _______ _____ _____    ______ ____
ROOT
ATOM      1  O   UNL     1       2.858   0.000   0.000  0.00  0.00    -0.249 OA
ATOM      2  C   UNL     1       2.858  -0.825   0.000  0.00  0.00    +0.339 C 
ATOM      3  N   UNL     1       3.572  -1.238   0.000  0.00  0.00    -0.187 NA
ATOM      4  N   UNL     1       2.143  -1.238   0.000  0.00  0.00    -0.187 NA
ENDROOT
BRANCH   3   5
ATOM      5  C   UNL     1       4.287  -0.825   0.000  0.00  0.00    +0.122 C 
ATOM      6  C   UNL     1       5.040  -1.161   0.000  0.00  0.00    +0.172 C 
ATOM      7  S   UNL     1       5.593  -0.547   0.000  0.00  0.00    -0.008 S 
ATOM      8  O   UNL     1       6.145  -1.161   0.000  0.00  0.00    -0.173 OA
ATOM      9  O   UNL     1       6.260  -0.062   0.000  0.00  0.00    -0.173 OA
ATOM     10  C   UNL     1       5.180   0.167   0.000  0.00  0.00    +0.153 C 
ATOM     11  C   UNL     1       4.373  -0.004   0.000  0.00  0.00    +0.049 C 
ENDBRANCH   3   5
BRANCH   4  12
ATOM     12  C   UNL     1       1.429  -0.825   0.000  0.00  0.00    +0.123 C 
BRANCH  12  13
ATOM     13  C   UNL     1       0.715  -1.238   0.000  0.00  0.00    +0.069 C 
BRANCH  13  14
ATOM     14  C   UNL     1       0.000  -0.825   0.000  0.00  0.00    +0.061 A 
ATOM     15  N   UNL     1       0.000   0.000   0.000  0.00  0.00    -0.248 NA
ATOM     16  C   UNL     1      -0.715   0.412   0.000  0.00  0.00    +0.098 A 
ATOM     17  C   UNL     1      -1.429   0.000   0.000  0.00  0.00    +0.021 A 
ATOM     18  C   UNL     1      -1.429  -0.825   0.000  0.00  0.00    +0.003 A 
ATOM     19  C   UNL     1      -0.715  -1.238   0.000  0.00  0.00    +0.015 A 
ENDBRANCH  13  14
ENDBRANCH  12  13
ENDBRANCH   4  12
TORSDOF 4
