REMARK  Name = 
REMARK  6 active torsions:
REMARK  status: ('A' for Active; 'I' for Inactive)
REMARK    1  A    between atoms: C_5  and  C_6
REMARK    2  A    between atoms: C_6  and  C_7
REMARK    3  A    between atoms: C_7  and  N_8
REMARK    4  A    between atoms: C_9  and  C_11
REMARK    5  A    between atoms: C_11  and  C_12
REMARK    6  A    between atoms: C_12  and  N_17
REMARK                            x       y       z     vdW  Elec       q    Type
REMARK                         _______ _______ _______ _____ _____    ______ ____
ROOT
ATOM      1  N   UNL     1      -1.288  -2.314   0.000  0.00  0.00    -0.205 NA
ATOM      2  C   UNL     1      -0.573  -2.726   0.000  0.00  0.00    +0.243 C 
ATOM      3  O   UNL     1      -0.573  -3.551   0.000  0.00  0.00    -0.273 OA
ENDROOT
BRANCH   1   4
ATOM      4  C   UNL     1      -2.002  -2.726   0.000  0.00  0.00    +0.120 C 
BRANCH   4   5
ATOM      5  C   UNL     1      -2.717  -2.314   0.000  0.00  0.00    +0.051 C 
BRANCH   5  10
ATOM      6  C   UNL     1      -5.575  -3.964   0.000  0.00  0.00    +0.052 C 
ATOM      7  C   UNL     1      -4.860  -3.551   0.000  0.00  0.00    +0.059 A 
ATOM      8  N   UNL     1      -4.146  -3.964   0.000  0.00  0.00    -0.248 NA
ATOM      9  C   UNL     1      -3.431  -3.551   0.000  0.00  0.00    +0.094 A 
ATOM     10  C   UNL     1      -3.431  -2.726   0.000  0.00  0.00    -0.001 A 
ATOM     11  C   UNL     1      -4.146  -2.314   0.000  0.00  0.00    -0.001 A 
ATOM     12  C   UNL     1      -4.860  -2.726   0.000  0.00  0.00    +0.014 A 
ENDBRANCH   5  10
ENDBRANCH   4   5
ENDBRANCH   1   4
BRANCH   2  13
ATOM     13  C   UNL     1       0.141  -2.314   0.000  0.00  0.00    +0.101 C 
BRANCH  13  14
ATOM     14  C   UNL     1       0.856  -2.726   0.000  0.00  0.00    +0.054 C 
ATOM     15  C   UNL     1       0.371  -3.394   0.000  0.00  0.00    +0.015 C 
ATOM     16  C   UNL     1       0.856  -4.061   0.000  0.00  0.00    +0.001 C 
ATOM     17  C   UNL     1       1.640  -3.806   0.000  0.00  0.00    +0.001 C 
ATOM     18  C   UNL     1       1.640  -2.981   0.000  0.00  0.00    +0.015 C 
BRANCH  14  19
ATOM     19  N   UNL     1       1.191  -1.972   0.000  0.00  0.00    -0.271 NA
ATOM     20  C   UNL     1       2.012  -1.886   0.000  0.00  0.00    +0.105 C 
ATOM     21  C   UNL     1       2.347  -1.133   0.000  0.00  0.00    +0.159 C 
ATOM     22  O   UNL     1       1.862  -0.465   0.000  0.00  0.00    -0.351 OA
ATOM     23  C   UNL     1       1.042  -0.551   0.000  0.00  0.00    +0.159 C 
ATOM     24  C   UNL     1       0.706  -1.305   0.000  0.00  0.00    +0.105 C 
ENDBRANCH  14  19
ENDBRANCH  13  14
ENDBRANCH   2  13
TORSDOF 6
