REMARK  Name = 
REMARK  3 active torsions:
REMARK  status: ('A' for Active; 'I' for Inactive)
REMARK    1  A    between atoms: C_2  and  N_3
REMARK    2  A    between atoms: C_2  and  C_16
REMARK    3  A    between atoms: N_6  and  C_7
REMARK                            x       y       z     vdW  Elec       q    Type
REMARK                         _______ _______ _______ _____ _____    ______ ____
ROOT
ATOM      1  N   UNL     1       1.429  -2.475   0.000  0.00  0.00    -0.189 NA
ATOM      2  C   UNL     1       2.143  -2.888   0.000  0.00  0.00    +0.344 C 
ATOM      3  N   UNL     1       2.858  -2.475   0.000  0.00  0.00    -0.158 NA
ATOM      4  O   UNL     1       2.143  -3.712   0.000  0.00  0.00    -0.249 OA
ENDROOT
BRANCH   3   5
ATOM      5  C   UNL     1       3.572  -2.888   0.000  0.00  0.00    +0.113 A 
ATOM      6  C   UNL     1       3.572  -3.712   0.000  0.00  0.00    +0.120 A 
ATOM      7  N   UNL     1       4.287  -4.125   0.000  0.00  0.00    -0.211 NA
ATOM      8  C   UNL     1       5.001  -3.712   0.000  0.00  0.00    +0.220 A 
ATOM      9  N   UNL     1       5.716  -4.125   0.000  0.00  0.00    -0.275 N 
ATOM     10  C   UNL     1       6.430  -3.712   0.000  0.00  0.00    +0.115 C 
ATOM     11  C   UNL     1       5.716  -4.950   0.000  0.00  0.00    +0.115 C 
ATOM     12  N   UNL     1       5.001  -2.888   0.000  0.00  0.00    -0.211 NA
ATOM     13  C   UNL     1       4.287  -2.475   0.000  0.00  0.00    +0.120 A 
ENDBRANCH   3   5
BRANCH   1  15
ATOM     14  C   UNL     1       0.715  -3.712   0.000  0.00  0.00    +0.023 C 
ATOM     15  C   UNL     1       0.715  -2.888   0.000  0.00  0.00    +0.097 C 
BRANCH  15  16
ATOM     16  C   UNL     1       0.000  -2.475   0.000  0.00  0.00    +0.020 C 
ATOM     17  C   UNL     1      -0.213  -1.678   0.000  0.00  0.00    +0.002 C 
ATOM     18  C   UNL     1      -1.010  -1.892   0.000  0.00  0.00    +0.000 C 
ATOM     19  C   UNL     1      -0.797  -2.688   0.000  0.00  0.00    +0.002 C 
ENDBRANCH  15  16
ENDBRANCH   1  15
TORSDOF 3
