REMARK  Name = 
REMARK  3 active torsions:
REMARK  status: ('A' for Active; 'I' for Inactive)
REMARK    1  A    between atoms: C_2  and  C_4
REMARK    2  A    between atoms: C_2  and  N_14
REMARK    3  A    between atoms: C_4  and  N_5
REMARK                            x       y       z     vdW  Elec       q    Type
REMARK                         _______ _______ _______ _____ _____    ______ ____
ROOT
ATOM      1  C   UNL     1       0.715  -2.062   0.000  0.00  0.00    +0.131 C 
ENDROOT
BRANCH   1   2
ATOM      2  N   UNL     1       1.429  -2.475   0.000  0.00  0.00    -0.185 NA
ATOM      3  C   UNL     1       1.429  -3.300   0.000  0.00  0.00    +0.345 C 
ATOM      4  N   UNL     1       2.143  -3.712   0.000  0.00  0.00    -0.136 NA
ATOM      5  C   UNL     1       2.143  -4.537   0.000  0.00  0.00    +0.187 A 
ATOM      6  S   UNL     1       1.476  -5.022   0.000  0.00  0.00    -0.049 S 
ATOM      7  C   UNL     1       1.731  -5.807   0.000  0.00  0.00    +0.059 A 
ATOM      8  C   UNL     1       2.556  -5.807   0.000  0.00  0.00    +0.108 A 
ATOM      9  N   UNL     1       2.811  -5.022   0.000  0.00  0.00    -0.221 NA
ATOM     10  O   UNL     1       0.715  -3.712   0.000  0.00  0.00    -0.249 OA
ENDBRANCH   1   2
BRANCH   1  12
ATOM     11  C   UNL     1       1.540  -1.238   0.000  0.00  0.00    +0.018 C 
ATOM     12  C   UNL     1       0.715  -1.238   0.000  0.00  0.00    +0.066 C 
ATOM     13  C   UNL     1      -0.111  -1.238   0.000  0.00  0.00    +0.018 C 
BRANCH  12  14
ATOM     14  N   UNL     1       0.715  -0.412   0.000  0.00  0.00    -0.269 NA
ATOM     15  C   UNL     1       1.429   0.000   0.000  0.00  0.00    +0.105 C 
ATOM     16  C   UNL     1       1.429   0.825   0.000  0.00  0.00    +0.159 C 
ATOM     17  O   UNL     1       0.715   1.238   0.000  0.00  0.00    -0.351 OA
ATOM     18  C   UNL     1       0.000   0.825   0.000  0.00  0.00    +0.159 C 
ATOM     19  C   UNL     1       0.000   0.000   0.000  0.00  0.00    +0.105 C 
ENDBRANCH  12  14
ENDBRANCH   1  12
TORSDOF 3
