REMARK  Name = 
REMARK  4 active torsions:
REMARK  status: ('A' for Active; 'I' for Inactive)
REMARK    1  A    between atoms: C_2  and  C_4
REMARK    2  A    between atoms: C_6  and  C_7
REMARK    3  A    between atoms: C_7  and  C_8
REMARK    4  A    between atoms: N_10  and  C_11
REMARK                            x       y       z     vdW  Elec       q    Type
REMARK                         _______ _______ _______ _____ _____    ______ ____
ROOT
ATOM      1  C   UNL     1       4.492  -3.548   0.000  0.00  0.00    +0.133 C 
ENDROOT
BRANCH   1   5
ATOM      2  C   UNL     1       3.595  -1.611   0.000  0.00  0.00    +0.087 A 
ATOM      3  S   UNL     1       2.928  -2.096   0.000  0.00  0.00    -0.071 S 
ATOM      4  C   UNL     1       3.182  -2.881   0.000  0.00  0.00    +0.052 A 
ATOM      5  C   UNL     1       4.007  -2.881   0.000  0.00  0.00    +0.075 A 
ATOM      6  N   UNL     1       4.262  -2.096   0.000  0.00  0.00    -0.247 NA
BRANCH   2   8
ATOM      7  C   UNL     1       2.880  -0.374   0.000  0.00  0.00    +0.007 C 
ATOM      8  C   UNL     1       3.595  -0.786   0.000  0.00  0.00    +0.047 C 
ATOM      9  C   UNL     1       4.309  -0.374   0.000  0.00  0.00    +0.007 C 
ENDBRANCH   2   8
ENDBRANCH   1   5
BRANCH   1  10
ATOM     10  C   UNL     1       4.157  -4.302   0.000  0.00  0.00    +0.247 C 
ATOM     11  N   UNL     1       4.642  -4.970   0.000  0.00  0.00    -0.207 NA
ATOM     12  O   UNL     1       3.336  -4.388   0.000  0.00  0.00    -0.273 OA
BRANCH  11  13
ATOM     13  C   UNL     1       4.306  -5.723   0.000  0.00  0.00    +0.095 C 
ATOM     14  C   UNL     1       3.499  -5.895   0.000  0.00  0.00    +0.022 C 
ATOM     15  C   UNL     1       3.413  -6.715   0.000  0.00  0.00    +0.002 C 
ATOM     16  C   UNL     1       4.167  -7.051   0.000  0.00  0.00    +0.002 C 
ATOM     17  C   UNL     1       4.719  -6.438   0.000  0.00  0.00    +0.022 C 
ENDBRANCH  11  13
ENDBRANCH   1  10
TORSDOF 4
