REMARK  Name = 
REMARK  4 active torsions:
REMARK  status: ('A' for Active; 'I' for Inactive)
REMARK    1  A    between atoms: S_2  and  N_5
REMARK    2  A    between atoms: C_8  and  N_11
REMARK    3  A    between atoms: C_12  and  C_14
REMARK    4  A    between atoms: C_14  and  N_15
REMARK                            x       y       z     vdW  Elec       q    Type
REMARK                         _______ _______ _______ _____ _____    ______ ____
ROOT
ATOM      1  N   UNL     1      -0.107   8.065   0.000  0.00  0.00    -0.159 NA
ATOM      2  C   UNL     1      -0.107   7.240   0.000  0.00  0.00    +0.097 C 
ATOM      3  C   UNL     1       0.608   6.828   0.000  0.00  0.00    +0.041 C 
ATOM      4  C   UNL     1       1.322   7.240   0.000  0.00  0.00    +0.098 C 
ATOM      5  C   UNL     1       1.322   8.065   0.000  0.00  0.00    +0.041 C 
ATOM      6  C   UNL     1       0.608   8.478   0.000  0.00  0.00    +0.097 C 
ENDROOT
BRANCH   1   8
ATOM      7  C   UNL     1      -1.536   8.890   0.000  0.00  0.00    +0.196 C 
ATOM      8  S   UNL     1      -0.821   8.478   0.000  0.00  0.00    +0.046 S 
ATOM      9  O   UNL     1      -0.409   9.192   0.000  0.00  0.00    -0.157 OA
ATOM     10  O   UNL     1      -1.234   7.763   0.000  0.00  0.00    -0.157 OA
ENDBRANCH   1   8
BRANCH   4  11
ATOM     11  N   UNL     1       2.037   6.828   0.000  0.00  0.00    -0.205 NA
ATOM     12  C   UNL     1       2.037   6.003   0.000  0.00  0.00    +0.266 C 
ATOM     13  O   UNL     1       1.322   5.590   0.000  0.00  0.00    -0.271 OA
BRANCH  12  14
ATOM     14  C   UNL     1       2.751   5.590   0.000  0.00  0.00    +0.214 C 
BRANCH  14  15
ATOM     15  N   UNL     1       2.751   4.765   0.000  0.00  0.00    -0.240 N 
ATOM     16  N   UNL     1       2.084   4.280   0.000  0.00  0.00    -0.167 NA
ATOM     17  C   UNL     1       2.339   3.496   0.000  0.00  0.00    +0.122 A 
ATOM     18  C   UNL     1       3.164   3.496   0.000  0.00  0.00    +0.043 A 
ATOM     19  C   UNL     1       3.419   4.280   0.000  0.00  0.00    +0.097 A 
ENDBRANCH  14  15
ENDBRANCH  12  14
ENDBRANCH   4  11
TORSDOF 4
