REMARK  Name = 
REMARK  4 active torsions:
REMARK  status: ('A' for Active; 'I' for Inactive)
REMARK    1  A    between atoms: C_2  and  C_4
REMARK    2  A    between atoms: C_4  and  C_5
REMARK    3  A    between atoms: C_5  and  N_6
REMARK    4  A    between atoms: N_13  and  C_14
REMARK                            x       y       z     vdW  Elec       q    Type
REMARK                         _______ _______ _______ _____ _____    ______ ____
ROOT
ATOM      1  N   UNL     1       1.801  -2.696   0.000  0.00  0.00    -0.248 N 
ATOM      2  N   UNL     1       1.134  -3.181   0.000  0.00  0.00    -0.152 NA
ATOM      3  C   UNL     1       1.389  -3.966   0.000  0.00  0.00    +0.177 A 
ATOM      4  N   UNL     1       0.904  -4.633   0.000  0.00  0.00    -0.140 NA
ATOM      5  C   UNL     1       1.239  -5.387   0.000  0.00  0.00    +0.345 C 
ATOM      6  N   UNL     1       0.754  -6.054   0.000  0.00  0.00    -0.190 NA
ATOM      7  O   UNL     1       2.060  -5.473   0.000  0.00  0.00    -0.249 OA
ATOM      8  C   UNL     1       2.213  -3.966   0.000  0.00  0.00    +0.058 A 
ATOM      9  C   UNL     1       2.468  -3.181   0.000  0.00  0.00    +0.098 A 
ENDROOT
BRANCH   6  10
ATOM     10  C   UNL     1      -0.066  -5.968   0.000  0.00  0.00    +0.085 C 
ATOM     11  C   UNL     1      -0.808  -5.606   0.000  0.00  0.00    +0.052 C 
ATOM     12  C   UNL     1      -1.492  -6.067   0.000  0.00  0.00    +0.144 C 
ATOM     13  O   UNL     1      -1.434  -6.890   0.000  0.00  0.00    -0.354 OA
ATOM     14  C   UNL     1      -0.693  -7.252   0.000  0.00  0.00    +0.144 C 
ATOM     15  C   UNL     1      -0.009  -6.791   0.000  0.00  0.00    +0.052 C 
ATOM     16  C   UNL     1       0.161  -5.175   0.000  0.00  0.00    +0.022 C 
ENDBRANCH   6  10
BRANCH   1  17
ATOM     17  C   UNL     1       1.801  -1.871   0.000  0.00  0.00    +0.128 C 
BRANCH  17  18
ATOM     18  C   UNL     1       2.515  -1.458   0.000  0.00  0.00    +0.026 C 
BRANCH  18  20
ATOM     19  C   UNL     1       3.230  -0.221   0.000  0.00  0.00    +0.000 C 
ATOM     20  C   UNL     1       2.515  -0.633   0.000  0.00  0.00    +0.002 C 
ATOM     21  C   UNL     1       1.801  -0.221   0.000  0.00  0.00    +0.000 C 
ENDBRANCH  18  20
ENDBRANCH  17  18
ENDBRANCH   1  17
TORSDOF 4
