REMARK  Name = 
REMARK  6 active torsions:
REMARK  status: ('A' for Active; 'I' for Inactive)
REMARK    1  A    between atoms: C_2  and  C_4
REMARK    2  A    between atoms: C_7  and  C_8
REMARK    3  A    between atoms: C_8  and  C_9
REMARK    4  A    between atoms: C_9  and  N_10
REMARK    5  A    between atoms: N_10  and  C_11
REMARK    6  A    between atoms: C_11  and  C_12
REMARK                            x       y       z     vdW  Elec       q    Type
REMARK                         _______ _______ _______ _____ _____    ______ ____
ROOT
ATOM      1  C   UNL     1       0.715  -2.888   0.000  0.00  0.00    +0.107 C 
ENDROOT
BRANCH   1   4
ATOM      2  C   UNL     1      -1.306  -2.197   0.000  0.00  0.00    +0.180 A 
ATOM      3  N   UNL     1      -0.754  -2.811   0.000  0.00  0.00    -0.195 NA
ATOM      4  C   UNL     1       0.000  -2.475   0.000  0.00  0.00    +0.238 A 
ATOM      5  O   UNL     1      -0.086  -1.655   0.000  0.00  0.00    -0.337 OA
ATOM      6  N   UNL     1      -0.893  -1.483   0.000  0.00  0.00    -0.061 NA
BRANCH   2   8
ATOM      7  C   UNL     1      -2.611  -1.616   0.000  0.00  0.00    +0.008 C 
ATOM      8  C   UNL     1      -2.126  -2.284   0.000  0.00  0.00    +0.062 C 
ATOM      9  C   UNL     1      -2.462  -3.037   0.000  0.00  0.00    +0.008 C 
ENDBRANCH   2   8
ENDBRANCH   1   4
BRANCH   1  10
ATOM     10  C   UNL     1       1.429  -2.475   0.000  0.00  0.00    +0.099 C 
BRANCH  10  11
ATOM     11  N   UNL     1       2.143  -2.888   0.000  0.00  0.00    -0.218 NA
BRANCH  11  12
ATOM     12  C   UNL     1       2.858  -2.475   0.000  0.00  0.00    +0.089 C 
BRANCH  12  13
ATOM     13  C   UNL     1       3.572  -2.888   0.000  0.00  0.00    +0.017 C 
ATOM     14  C   UNL     1       3.572  -3.712   0.000  0.00  0.00    +0.001 C 
ATOM     15  C   UNL     1       4.287  -4.125   0.000  0.00  0.00    +0.000 C 
ATOM     16  C   UNL     1       5.001  -3.712   0.000  0.00  0.00    +0.000 C 
ATOM     17  C   UNL     1       5.001  -2.888   0.000  0.00  0.00    +0.000 C 
ATOM     18  C   UNL     1       4.287  -2.475   0.000  0.00  0.00    +0.001 C 
ENDBRANCH  12  13
ENDBRANCH  11  12
ENDBRANCH  10  11
ENDBRANCH   1  10
TORSDOF 6
