REMARK  Name = 
REMARK  4 active torsions:
REMARK  status: ('A' for Active; 'I' for Inactive)
REMARK    1  A    between atoms: C_2  and  N_3
REMARK    2  A    between atoms: C_2  and  C_9
REMARK    3  A    between atoms: N_3  and  C_4
REMARK    4  A    between atoms: C_9  and  N_11
REMARK                            x       y       z     vdW  Elec       q    Type
REMARK                         _______ _______ _______ _____ _____    ______ ____
ROOT
ATOM      1  C   UNL     1       5.024  -0.786   0.000  0.00  0.00    +0.021 C 
ATOM      2  C   UNL     1       4.309  -0.374   0.000  0.00  0.00    +0.095 C 
ENDROOT
BRANCH   2   3
ATOM      3  C   UNL     1       4.309   0.451   0.000  0.00  0.00    +0.121 C 
ATOM      4  C   UNL     1       3.595   0.864   0.000  0.00  0.00    +0.028 C 
BRANCH   3   5
ATOM      5  N   UNL     1       5.024   0.864   0.000  0.00  0.00    -0.250 N 
ATOM      6  N   UNL     1       5.777   0.528   0.000  0.00  0.00    -0.168 NA
ATOM      7  C   UNL     1       6.330   1.141   0.000  0.00  0.00    +0.117 A 
ATOM      8  C   UNL     1       5.917   1.856   0.000  0.00  0.00    +0.018 A 
ATOM      9  C   UNL     1       6.253   2.609   0.000  0.00  0.00    +0.034 C 
ATOM     10  C   UNL     1       5.110   1.684   0.000  0.00  0.00    +0.092 A 
ENDBRANCH   3   5
ENDBRANCH   2   3
BRANCH   2  11
ATOM     11  N   UNL     1       3.595  -0.786   0.000  0.00  0.00    -0.219 NA
BRANCH  11  12
ATOM     12  C   UNL     1       3.595  -1.611   0.000  0.00  0.00    +0.073 C 
ATOM     13  C   UNL     1       2.928  -2.096   0.000  0.00  0.00    +0.017 C 
ATOM     14  C   UNL     1       3.182  -2.881   0.000  0.00  0.00    +0.001 C 
ATOM     15  C   UNL     1       4.007  -2.881   0.000  0.00  0.00    +0.001 C 
ATOM     16  C   UNL     1       4.262  -2.096   0.000  0.00  0.00    +0.017 C 
ENDBRANCH  11  12
ENDBRANCH   2  11
TORSDOF 4
