REMARK  Name = 
REMARK  2 active torsions:
REMARK  status: ('A' for Active; 'I' for Inactive)
REMARK    1  A    between atoms: C_7  and  N_8
REMARK    2  A    between atoms: N_11  and  C_12
REMARK                            x       y       z     vdW  Elec       q    Type
REMARK                         _______ _______ _______ _____ _____    ______ ____
ROOT
ATOM      1  N   UNL     1       5.941  -2.305   0.000  0.00  0.00    -0.142 NA
ATOM      2  C   UNL     1       5.457  -1.638   0.000  0.00  0.00    +0.345 C 
ATOM      3  N   UNL     1       5.792  -0.884   0.000  0.00  0.00    -0.187 NA
ATOM      4  O   UNL     1       4.636  -1.724   0.000  0.00  0.00    -0.249 OA
ENDROOT
BRANCH   1   7
ATOM      5  C   UNL     1       6.911  -3.640   0.000  0.00  0.00    +0.034 C 
ATOM      6  C   UNL     1       6.091  -3.727   0.000  0.00  0.00    +0.012 A 
ATOM      7  C   UNL     1       5.606  -3.059   0.000  0.00  0.00    +0.152 A 
ATOM      8  N   UNL     1       4.785  -3.145   0.000  0.00  0.00    -0.228 NA
ATOM      9  C   UNL     1       4.450  -3.899   0.000  0.00  0.00    +0.100 A 
ATOM     10  C   UNL     1       4.935  -4.566   0.000  0.00  0.00    +0.020 A 
ATOM     11  C   UNL     1       5.755  -4.480   0.000  0.00  0.00    +0.000 A 
ENDBRANCH   1   7
BRANCH   3  12
ATOM     12  C   UNL     1       5.307  -0.217   0.000  0.00  0.00    +0.122 C 
ATOM     13  C   UNL     1       5.562   0.568   0.000  0.00  0.00    +0.172 C 
ATOM     14  S   UNL     1       4.895   1.053   0.000  0.00  0.00    -0.008 S 
ATOM     15  O   UNL     1       5.447   1.666   0.000  0.00  0.00    -0.173 OA
ATOM     16  O   UNL     1       4.343   1.666   0.000  0.00  0.00    -0.173 OA
ATOM     17  C   UNL     1       4.227   0.568   0.000  0.00  0.00    +0.153 C 
ATOM     18  C   UNL     1       4.482  -0.217   0.000  0.00  0.00    +0.049 C 
ENDBRANCH   3  12
TORSDOF 2
