REMARK  Name = 
REMARK  5 active torsions:
REMARK  status: ('A' for Active; 'I' for Inactive)
REMARK    1  A    between atoms: C_3  and  C_4
REMARK    2  A    between atoms: C_5  and  C_6
REMARK    3  A    between atoms: N_8  and  C_9
REMARK    4  A    between atoms: C_9  and  C_10
REMARK    5  A    between atoms: C_10  and  C_11
REMARK                            x       y       z     vdW  Elec       q    Type
REMARK                         _______ _______ _______ _____ _____    ______ ____
ROOT
ATOM      1  C   UNL     1       0.715  -2.888   0.000  0.00  0.00    +0.241 C 
ATOM      2  N   UNL     1       1.429  -2.475   0.000  0.00  0.00    -0.205 NA
ATOM      3  O   UNL     1       0.715  -3.712   0.000  0.00  0.00    -0.273 OA
ENDROOT
BRANCH   1   8
ATOM      4  C   UNL     1      -0.412  -1.760   0.000  0.00  0.00    +0.030 C 
ATOM      5  C   UNL     1      -0.825  -2.475   0.000  0.00  0.00    +0.013 C 
ATOM      6  C   UNL     1      -1.647  -2.403   0.000  0.00  0.00    +0.001 C 
ATOM      7  C   UNL     1      -1.174  -3.223   0.000  0.00  0.00    +0.001 C 
ATOM      8  C   UNL     1       0.000  -2.475   0.000  0.00  0.00    +0.082 C 
BRANCH   4  12
ATOM      9  C   UNL     1      -1.127   0.302   0.000  0.00  0.00    +0.026 C 
ATOM     10  C   UNL     1      -1.127  -0.523   0.000  0.00  0.00    -0.048 C 
ATOM     11  C   UNL     1      -1.841  -0.935   0.000  0.00  0.00    +0.026 C 
ATOM     12  C   UNL     1      -0.412  -0.935   0.000  0.00  0.00    -0.034 C 
ENDBRANCH   4  12
ENDBRANCH   1   8
BRANCH   2  13
ATOM     13  C   UNL     1       2.143  -2.888   0.000  0.00  0.00    +0.121 C 
BRANCH  13  14
ATOM     14  C   UNL     1       2.858  -2.475   0.000  0.00  0.00    +0.069 C 
BRANCH  14  15
ATOM     15  C   UNL     1       3.572  -2.888   0.000  0.00  0.00    +0.061 A 
ATOM     16  N   UNL     1       3.572  -3.712   0.000  0.00  0.00    -0.248 NA
ATOM     17  C   UNL     1       4.287  -4.125   0.000  0.00  0.00    +0.098 A 
ATOM     18  C   UNL     1       5.001  -3.712   0.000  0.00  0.00    +0.021 A 
ATOM     19  C   UNL     1       5.001  -2.888   0.000  0.00  0.00    +0.003 A 
ATOM     20  C   UNL     1       4.287  -2.475   0.000  0.00  0.00    +0.015 A 
ENDBRANCH  14  15
ENDBRANCH  13  14
ENDBRANCH   2  13
TORSDOF 5
