REMARK  Name = 
REMARK  5 active torsions:
REMARK  status: ('A' for Active; 'I' for Inactive)
REMARK    1  A    between atoms: N_9  and  C_10
REMARK    2  A    between atoms: C_10  and  C_11
REMARK    3  A    between atoms: N_13  and  C_14
REMARK    4  A    between atoms: C_14  and  C_15
REMARK    5  A    between atoms: C_14  and  C_20
REMARK                            x       y       z     vdW  Elec       q    Type
REMARK                         _______ _______ _______ _____ _____    ______ ____
ROOT
ATOM      1  C   UNL     1       2.968  -0.412   0.000  0.00  0.00    +0.265 C 
ATOM      2  N   UNL     1       3.381  -1.127   0.000  0.00  0.00    -0.197 NA
ATOM      3  O   UNL     1       3.381   0.302   0.000  0.00  0.00    -0.271 OA
ENDROOT
BRANCH   1   4
ATOM      4  C   UNL     1       2.143  -0.412   0.000  0.00  0.00    +0.196 C 
BRANCH   4   7
ATOM      5  C   UNL     1       0.493  -0.412   0.000  0.00  0.00    +0.050 C 
ATOM      6  C   UNL     1       0.906   0.302   0.000  0.00  0.00    +0.044 A 
ATOM      7  N   UNL     1       1.731   0.302   0.000  0.00  0.00    -0.290 N 
ATOM      8  C   UNL     1       2.143   1.016   0.000  0.00  0.00    +0.264 A 
ATOM      9  O   UNL     1       2.968   1.016   0.000  0.00  0.00    -0.267 OA
ATOM     10  C   UNL     1       1.731   1.731   0.000  0.00  0.00    +0.103 A 
ATOM     11  C   UNL     1       0.906   1.731   0.000  0.00  0.00    +0.202 A 
ATOM     12  O   UNL     1       0.493   2.445   0.000  0.00  0.00    -0.286 OA
ATOM     13  C   UNL     1       0.493   1.016   0.000  0.00  0.00    +0.055 A 
ENDBRANCH   4   7
ENDBRANCH   1   4
BRANCH   2  14
ATOM     14  C   UNL     1       4.206  -1.127   0.000  0.00  0.00    +0.190 C 
BRANCH  14  15
ATOM     15  C   UNL     1       4.618  -1.841   0.000  0.00  0.00    +0.028 C 
ATOM     16  C   UNL     1       4.283  -2.595   0.000  0.00  0.00    +0.002 C 
ATOM     17  C   UNL     1       4.896  -3.147   0.000  0.00  0.00    +0.000 C 
ATOM     18  C   UNL     1       5.610  -2.735   0.000  0.00  0.00    +0.000 C 
ATOM     19  C   UNL     1       5.439  -1.928   0.000  0.00  0.00    +0.002 C 
ENDBRANCH  14  15
BRANCH  14  20
ATOM     20  C   UNL     1       4.618  -0.412   0.000  0.00  0.00    +0.415 C 
ATOM     21  F   UNL     1       5.031   0.302   0.000  0.00  0.00    -0.168 F 
ATOM     22  F   UNL     1       3.904   0.000   0.000  0.00  0.00    -0.168 F 
ATOM     23  F   UNL     1       5.333  -0.825   0.000  0.00  0.00    -0.168 F 
ENDBRANCH  14  20
ENDBRANCH   2  14
TORSDOF 5
