REMARK  Name = 
REMARK  6 active torsions:
REMARK  status: ('A' for Active; 'I' for Inactive)
REMARK    1  A    between atoms: C_7  and  O_8
REMARK    2  A    between atoms: O_8  and  C_9
REMARK    3  A    between atoms: C_9  and  C_10
REMARK    4  A    between atoms: C_10  and  C_12
REMARK    5  A    between atoms: C_12  and  N_13
REMARK    6  A    between atoms: C_19  and  C_20
REMARK                            x       y       z     vdW  Elec       q    Type
REMARK                         _______ _______ _______ _____ _____    ______ ____
ROOT
ATOM      1  C   UNL     1       2.143  -2.888   0.000  0.00  0.00    +0.220 C 
ATOM      2  O   UNL     1       2.143  -3.712   0.000  0.00  0.00    -0.217 OA
ENDROOT
BRANCH   1   3
ATOM      3  C   UNL     1       1.429  -2.475   0.000  0.00  0.00    +0.240 C 
BRANCH   3   4
ATOM      4  O   UNL     1       0.715  -2.888   0.000  0.00  0.00    -0.473 OA
BRANCH   4   9
ATOM      5  C   UNL     1      -2.143  -2.888   0.000  0.00  0.00    +0.031 C 
ATOM      6  C   UNL     1      -1.429  -2.475   0.000  0.00  0.00    -0.023 A 
ATOM      7  C   UNL     1      -0.715  -2.888   0.000  0.00  0.00    +0.008 A 
ATOM      8  C   UNL     1      -0.715  -3.712   0.000  0.00  0.00    +0.034 C 
ATOM      9  C   UNL     1       0.000  -2.475   0.000  0.00  0.00    +0.130 A 
ATOM     10  C   UNL     1       0.000  -1.650   0.000  0.00  0.00    +0.012 A 
ATOM     11  C   UNL     1       0.715  -1.238   0.000  0.00  0.00    +0.034 C 
ATOM     12  C   UNL     1      -0.715  -1.238   0.000  0.00  0.00    -0.002 A 
ATOM     13  C   UNL     1      -1.429  -1.650   0.000  0.00  0.00    -0.005 A 
ENDBRANCH   4   9
ENDBRANCH   3   4
ENDBRANCH   1   3
BRANCH   1  14
ATOM     14  C   UNL     1       2.858  -2.475   0.000  0.00  0.00    +0.167 C 
BRANCH  14  15
ATOM     15  N   UNL     1       3.572  -2.888   0.000  0.00  0.00    -0.214 N 
ATOM     16  C   UNL     1       3.572  -3.712   0.000  0.00  0.00    +0.286 A 
ATOM     17  O   UNL     1       2.858  -4.125   0.000  0.00  0.00    -0.265 OA
ATOM     18  C   UNL     1       4.287  -4.125   0.000  0.00  0.00    +0.123 A 
ATOM     19  C   UNL     1       5.001  -3.712   0.000  0.00  0.00    +0.008 A 
ATOM     20  C   UNL     1       5.716  -4.125   0.000  0.00  0.00    +0.033 C 
ATOM     21  C   UNL     1       5.001  -2.888   0.000  0.00  0.00    +0.076 A 
ATOM     22  C   UNL     1       5.716  -2.475   0.000  0.00  0.00    +0.054 C 
ATOM     23  N   UNL     1       4.287  -2.475   0.000  0.00  0.00    -0.171 NA
BRANCH  18  24
ATOM     24  C   UNL     1       4.287  -4.950   0.000  0.00  0.00    +0.105 C 
ATOM     25  N   UNL     1       4.287  -5.775   0.000  0.00  0.00    -0.191 NA
ENDBRANCH  18  24
ENDBRANCH  14  15
ENDBRANCH   1  14
TORSDOF 6
