REMARK  Name = 
REMARK  0 active torsions:
REMARK  status: ('A' for Active; 'I' for Inactive)
REMARK                            x       y       z     vdW  Elec       q    Type
REMARK                         _______ _______ _______ _____ _____    ______ ____
ROOT
ATOM      1  C   UNL     1       0.715  -0.412   0.000  0.00  0.00    +0.034 C 
ATOM      2  C   UNL     1       0.715  -1.238   0.000  0.00  0.00    +0.135 C 
ATOM      3  O   UNL     1       0.000  -1.650   0.000  0.00  0.00    -0.355 OA
ATOM      4  C   UNL     1       0.000  -2.475   0.000  0.00  0.00    +0.135 C 
ATOM      5  C   UNL     1      -0.715  -2.888   0.000  0.00  0.00    +0.034 C 
ATOM      6  C   UNL     1       0.715  -2.888   0.000  0.00  0.00    +0.122 C 
ATOM      7  N   UNL     1       1.429  -2.475   0.000  0.00  0.00    -0.288 N 
ATOM      8  C   UNL     1       2.143  -2.888   0.000  0.00  0.00    +0.132 A 
ATOM      9  N   UNL     1       2.143  -3.712   0.000  0.00  0.00    -0.228 NA
ATOM     10  C   UNL     1       2.858  -4.125   0.000  0.00  0.00    +0.118 A 
ATOM     11  C   UNL     1       3.572  -3.712   0.000  0.00  0.00    +0.108 A 
ATOM     12  N   UNL     1       4.287  -4.125   0.000  0.00  0.00    -0.126 NA
ATOM     13  C   UNL     1       3.572  -2.888   0.000  0.00  0.00    +0.023 A 
ATOM     14  C   UNL     1       2.858  -2.475   0.000  0.00  0.00    +0.036 A 
ATOM     15  C   UNL     1       1.429  -1.650   0.000  0.00  0.00    +0.122 C 
ENDROOT
TORSDOF 0
