REMARK  Name = 
REMARK  5 active torsions:
REMARK  status: ('A' for Active; 'I' for Inactive)
REMARK    1  A    between atoms: C_2  and  C_4
REMARK    2  A    between atoms: C_4  and  N_10
REMARK    3  A    between atoms: N_10  and  C_11
REMARK    4  A    between atoms: C_11  and  C_12
REMARK    5  A    between atoms: C_12  and  N_13
REMARK                            x       y       z     vdW  Elec       q    Type
REMARK                         _______ _______ _______ _____ _____    ______ ____
ROOT
ATOM      1  C   UNL     1      -4.091   1.909   0.000  0.00  0.00    +0.131 C 
ATOM      2  C   UNL     1      -4.621   2.541   0.000  0.00  0.00    +0.025 C 
ATOM      3  C   UNL     1      -5.434   2.397   0.000  0.00  0.00    +0.002 C 
ATOM      4  C   UNL     1      -5.716   1.622   0.000  0.00  0.00    +0.000 C 
ATOM      5  C   UNL     1      -5.186   0.990   0.000  0.00  0.00    +0.002 C 
ATOM      6  C   UNL     1      -4.373   1.133   0.000  0.00  0.00    +0.025 C 
ENDROOT
BRANCH   1   8
ATOM      7  N   UNL     1      -3.843   3.316   0.000  0.00  0.00    -0.087 NA
ATOM      8  C   UNL     1      -3.561   2.541   0.000  0.00  0.00    +0.275 C 
ATOM      9  O   UNL     1      -2.748   2.397   0.000  0.00  0.00    -0.270 OA
ENDBRANCH   1   8
BRANCH   1  10
ATOM     10  N   UNL     1      -3.377   1.496   0.000  0.00  0.00    -0.210 NA
BRANCH  10  11
ATOM     11  C   UNL     1      -3.377   0.671   0.000  0.00  0.00    +0.115 C 
BRANCH  11  12
ATOM     12  C   UNL     1      -2.662   0.259   0.000  0.00  0.00    +0.146 C 
BRANCH  12  13
ATOM     13  N   UNL     1      -2.662  -0.566   0.000  0.00  0.00    -0.248 N 
ATOM     14  N   UNL     1      -3.330  -1.051   0.000  0.00  0.00    -0.168 NA
ATOM     15  C   UNL     1      -3.075  -1.836   0.000  0.00  0.00    +0.122 A 
ATOM     16  C   UNL     1      -2.250  -1.836   0.000  0.00  0.00    +0.043 A 
ATOM     17  C   UNL     1      -1.995  -1.051   0.000  0.00  0.00    +0.097 A 
ENDBRANCH  12  13
ENDBRANCH  11  12
ENDBRANCH  10  11
ENDBRANCH   1  10
TORSDOF 5
