REMARK  Name = 
REMARK  4 active torsions:
REMARK  status: ('A' for Active; 'I' for Inactive)
REMARK    1  A    between atoms: C_7  and  C_8
REMARK    2  A    between atoms: C_8  and  C_9
REMARK    3  A    between atoms: C_9  and  N_10
REMARK    4  A    between atoms: N_10  and  C_11
REMARK                            x       y       z     vdW  Elec       q    Type
REMARK                         _______ _______ _______ _____ _____    ______ ____
ROOT
ATOM      1  C   UNL     1       1.429  -2.475   0.000  0.00  0.00    +0.045 C 
ENDROOT
BRANCH   1   4
ATOM      2  C   UNL     1       2.858  -1.650   0.000  0.00  0.00    +0.032 C 
ATOM      3  C   UNL     1       2.858  -2.475   0.000  0.00  0.00    -0.007 A 
ATOM      4  C   UNL     1       2.143  -2.888   0.000  0.00  0.00    -0.022 A 
ATOM      5  C   UNL     1       2.143  -3.712   0.000  0.00  0.00    +0.016 A 
ATOM      6  C   UNL     1       2.858  -4.125   0.000  0.00  0.00    +0.099 A 
ATOM      7  N   UNL     1       3.572  -3.712   0.000  0.00  0.00    -0.243 NA
ATOM      8  C   UNL     1       3.572  -2.888   0.000  0.00  0.00    +0.094 A 
ENDBRANCH   1   4
BRANCH   1   9
ATOM      9  C   UNL     1       1.429  -1.650   0.000  0.00  0.00    +0.093 C 
BRANCH   9  10
ATOM     10  N   UNL     1       0.715  -1.238   0.000  0.00  0.00    -0.218 NA
BRANCH  10  11
ATOM     11  C   UNL     1       0.715  -0.412   0.000  0.00  0.00    +0.084 C 
ATOM     12  C   UNL     1       1.429   0.000   0.000  0.00  0.00    +0.075 C 
ATOM     13  S   UNL     1       1.429   0.825   0.000  0.00  0.00    -0.139 S 
ATOM     14  C   UNL     1       0.715   1.238   0.000  0.00  0.00    +0.058 C 
ATOM     15  C   UNL     1       0.000   0.825   0.000  0.00  0.00    +0.013 C 
ATOM     16  C   UNL     1       0.000   0.000   0.000  0.00  0.00    +0.019 C 
ENDBRANCH  10  11
ENDBRANCH   9  10
ENDBRANCH   1   9
TORSDOF 4
