REMARK  Name = 
REMARK  3 active torsions:
REMARK  status: ('A' for Active; 'I' for Inactive)
REMARK    1  A    between atoms: N_3  and  C_11
REMARK    2  A    between atoms: C_11  and  C_12
REMARK    3  A    between atoms: C_12  and  C_19
REMARK                            x       y       z     vdW  Elec       q    Type
REMARK                         _______ _______ _______ _____ _____    ______ ____
ROOT
ATOM      1  C   UNL     1       0.487  -1.650   0.000  0.00  0.00    +0.149 A 
ATOM      2  N   UNL     1      -0.338  -1.650   0.000  0.00  0.00    -0.219 NA
ATOM      3  C   UNL     1      -0.596  -2.433   0.000  0.00  0.00    +0.180 A 
ATOM      4  N   UNL     1       0.075  -2.921   0.000  0.00  0.00    -0.294 N 
ATOM      5  C   UNL     1       0.742  -2.433   0.000  0.00  0.00    +0.167 A 
ATOM      6  N   UNL     1       1.546  -2.608   0.000  0.00  0.00    -0.205 NA
ATOM      7  C   UNL     1       2.100  -1.992   0.000  0.00  0.00    +0.201 A 
ATOM      8  N   UNL     1       1.846  -1.208   0.000  0.00  0.00    -0.207 NA
ATOM      9  C   UNL     1       1.038  -1.038   0.000  0.00  0.00    +0.154 A 
ATOM     10  N   UNL     1       0.783  -0.254   0.000  0.00  0.00    -0.293 N 
ATOM     11  C   UNL     1       0.000   0.000   0.000  0.00  0.00    +0.092 C 
ATOM     12  C   UNL     1       0.000   0.825   0.000  0.00  0.00    +0.023 C 
ATOM     13  C   UNL     1       0.783   1.083   0.000  0.00  0.00    +0.023 C 
ATOM     14  C   UNL     1       1.267   0.412   0.000  0.00  0.00    +0.089 C 
ATOM     15  C   UNL     1       1.754  -0.254   0.000  0.00  0.00    +0.160 C 
ATOM     16  O   UNL     1       2.538   0.000   0.000  0.00  0.00    -0.352 OA
ATOM     17  C   UNL     1       2.538   0.825   0.000  0.00  0.00    +0.144 C 
ATOM     18  C   UNL     1       1.754   1.083   0.000  0.00  0.00    +0.053 C 
ENDROOT
BRANCH   4  19
ATOM     19  C   UNL     1       0.075  -3.746   0.000  0.00  0.00    +0.112 C 
BRANCH  19  20
ATOM     20  C   UNL     1       0.787  -4.158   0.000  0.00  0.00    +0.056 C 
ATOM     21  C   UNL     1       0.258  -4.792   0.000  0.00  0.00    +0.037 C 
ATOM     22  C   UNL     1       0.537  -5.567   0.000  0.00  0.00    +0.142 C 
ATOM     23  O   UNL     1       1.350  -5.708   0.000  0.00  0.00    -0.354 OA
ATOM     24  C   UNL     1       1.883  -5.075   0.000  0.00  0.00    +0.142 C 
ATOM     25  C   UNL     1       1.600  -4.300   0.000  0.00  0.00    +0.037 C 
BRANCH  20  26
ATOM     26  C   UNL     1       1.071  -3.383   0.000  0.00  0.00    +0.184 C 
ATOM     27  O   UNL     1       1.883  -3.237   0.000  0.00  0.00    -0.220 OA
ENDBRANCH  20  26
ENDBRANCH  19  20
ENDBRANCH   4  19
TORSDOF 3
