REMARK  Name = 
REMARK  4 active torsions:
REMARK  status: ('A' for Active; 'I' for Inactive)
REMARK    1  A    between atoms: C_7  and  C_8
REMARK    2  A    between atoms: C_8  and  C_9
REMARK    3  A    between atoms: C_9  and  N_10
REMARK    4  A    between atoms: C_20  and  C_22
REMARK                            x       y       z     vdW  Elec       q    Type
REMARK                         _______ _______ _______ _____ _____    ______ ____
ROOT
ATOM      1  N   UNL     1       0.204  -1.954   0.000  0.00  0.00    -0.188 NA
ATOM      2  C   UNL     1       0.918  -2.366   0.000  0.00  0.00    +0.323 C 
ATOM      3  N   UNL     1       1.633  -1.954   0.000  0.00  0.00    -0.261 N 
ATOM      4  C   UNL     1       2.315  -2.418   0.000  0.00  0.00    +0.116 C 
ATOM      5  C   UNL     1       3.103  -2.175   0.000  0.00  0.00    +0.115 C 
ATOM      6  N   UNL     1       3.404  -1.407   0.000  0.00  0.00    -0.278 N 
ATOM      7  C   UNL     1       4.227  -1.346   0.000  0.00  0.00    +0.225 C 
ATOM      8  O   UNL     1       4.585  -0.602   0.000  0.00  0.00    -0.275 OA
ATOM      9  C   UNL     1       2.992  -0.693   0.000  0.00  0.00    +0.095 C 
ATOM     10  C   UNL     1       2.176  -0.570   0.000  0.00  0.00    +0.043 C 
ATOM     11  C   UNL     1       1.571  -1.131   0.000  0.00  0.00    +0.097 C 
ATOM     12  O   UNL     1       0.918  -3.191   0.000  0.00  0.00    -0.251 OA
ENDROOT
BRANCH   7  13
ATOM     13  C   UNL     1       4.692  -2.027   0.000  0.00  0.00    +0.077 C 
ATOM     14  C   UNL     1       4.753  -2.850   0.000  0.00  0.00    +0.010 C 
ATOM     15  C   UNL     1       5.435  -2.385   0.000  0.00  0.00    +0.010 C 
ENDBRANCH   7  13
BRANCH   1  16
ATOM     16  C   UNL     1      -0.510  -2.366   0.000  0.00  0.00    +0.121 C 
BRANCH  16  17
ATOM     17  C   UNL     1      -1.225  -1.954   0.000  0.00  0.00    +0.050 C 
BRANCH  17  20
ATOM     18  C   UNL     1      -1.225  -3.604   0.000  0.00  0.00    +0.032 C 
ATOM     19  C   UNL     1      -1.939  -3.191   0.000  0.00  0.00    -0.007 A 
ATOM     20  C   UNL     1      -1.939  -2.366   0.000  0.00  0.00    -0.021 A 
ATOM     21  C   UNL     1      -2.654  -1.954   0.000  0.00  0.00    +0.016 A 
ATOM     22  C   UNL     1      -3.368  -2.366   0.000  0.00  0.00    +0.099 A 
ATOM     23  N   UNL     1      -3.368  -3.191   0.000  0.00  0.00    -0.243 NA
ATOM     24  C   UNL     1      -2.654  -3.604   0.000  0.00  0.00    +0.094 A 
ENDBRANCH  17  20
ENDBRANCH  16  17
ENDBRANCH   1  16
TORSDOF 4
