REMARK  Name = 
REMARK  1 active torsions:
REMARK  status: ('A' for Active; 'I' for Inactive)
REMARK    1  A    between atoms: N_11  and  C_12
REMARK                            x       y       z     vdW  Elec       q    Type
REMARK                         _______ _______ _______ _____ _____    ______ ____
ROOT
ATOM      1  C   UNL     1       2.858  -1.650   0.000  0.00  0.00    +0.031 C 
ATOM      2  C   UNL     1       2.858  -2.475   0.000  0.00  0.00    -0.018 A 
ATOM      3  C   UNL     1       2.143  -2.888   0.000  0.00  0.00    +0.032 A 
ATOM      4  C   UNL     1       2.143  -3.712   0.000  0.00  0.00    +0.155 A 
ATOM      5  N   UNL     1       1.429  -4.125   0.000  0.00  0.00    -0.142 NA
ATOM      6  C   UNL     1       0.715  -3.712   0.000  0.00  0.00    +0.345 C 
ATOM      7  N   UNL     1       0.000  -4.125   0.000  0.00  0.00    -0.188 NA
ATOM      8  O   UNL     1       0.715  -2.888   0.000  0.00  0.00    -0.249 OA
ATOM      9  N   UNL     1       2.858  -4.125   0.000  0.00  0.00    -0.233 NA
ATOM     10  C   UNL     1       3.572  -3.712   0.000  0.00  0.00    +0.061 A 
ATOM     11  C   UNL     1       4.287  -4.125   0.000  0.00  0.00    +0.052 C 
ATOM     12  C   UNL     1       3.572  -2.888   0.000  0.00  0.00    +0.011 A 
ENDROOT
BRANCH   7  13
ATOM     13  C   UNL     1      -0.715  -3.712   0.000  0.00  0.00    +0.102 C 
ATOM     14  C   UNL     1      -0.715  -2.888   0.000  0.00  0.00    +0.049 C 
ATOM     15  C   UNL     1      -1.429  -2.475   0.000  0.00  0.00    +0.095 C 
ATOM     16  C   UNL     1      -0.899  -1.843   0.000  0.00  0.00    +0.030 C 
ATOM     17  C   UNL     1      -1.959  -1.843   0.000  0.00  0.00    +0.030 C 
ATOM     18  O   UNL     1      -2.143  -2.888   0.000  0.00  0.00    -0.358 OA
ATOM     19  C   UNL     1      -2.143  -3.712   0.000  0.00  0.00    +0.144 C 
ATOM     20  C   UNL     1      -1.429  -4.125   0.000  0.00  0.00    +0.054 C 
ENDBRANCH   7  13
TORSDOF 1
