REMARK  Name = 
REMARK  4 active torsions:
REMARK  status: ('A' for Active; 'I' for Inactive)
REMARK    1  A    between atoms: C_2  and  C_4
REMARK    2  A    between atoms: C_6  and  C_7
REMARK    3  A    between atoms: C_7  and  C_8
REMARK    4  A    between atoms: N_10  and  C_11
REMARK                            x       y       z     vdW  Elec       q    Type
REMARK                         _______ _______ _______ _____ _____    ______ ____
ROOT
ATOM      1  C   UNL     1       3.649  -4.474   0.000  0.00  0.00    +0.156 C 
ENDROOT
BRANCH   1   5
ATOM      2  C   UNL     1       2.751  -2.537   0.000  0.00  0.00    +0.236 A 
ATOM      3  O   UNL     1       2.084  -3.022   0.000  0.00  0.00    -0.337 OA
ATOM      4  N   UNL     1       2.339  -3.806   0.000  0.00  0.00    -0.060 NA
ATOM      5  C   UNL     1       3.164  -3.806   0.000  0.00  0.00    +0.190 A 
ATOM      6  N   UNL     1       3.419  -3.022   0.000  0.00  0.00    -0.194 NA
BRANCH   2   8
ATOM      7  C   UNL     1       2.037  -1.299   0.000  0.00  0.00    +0.010 C 
ATOM      8  C   UNL     1       2.751  -1.712   0.000  0.00  0.00    +0.079 C 
ATOM      9  C   UNL     1       3.466  -1.299   0.000  0.00  0.00    +0.010 C 
ENDBRANCH   2   8
ENDBRANCH   1   5
BRANCH   1  10
ATOM     10  C   UNL     1       3.313  -5.227   0.000  0.00  0.00    +0.249 C 
ATOM     11  N   UNL     1       3.798  -5.895   0.000  0.00  0.00    -0.207 NA
ATOM     12  O   UNL     1       2.493  -5.314   0.000  0.00  0.00    -0.273 OA
BRANCH  11  13
ATOM     13  C   UNL     1       3.462  -6.648   0.000  0.00  0.00    +0.095 C 
ATOM     14  C   UNL     1       2.642  -6.735   0.000  0.00  0.00    +0.022 C 
ATOM     15  C   UNL     1       2.306  -7.488   0.000  0.00  0.00    +0.002 C 
ATOM     16  C   UNL     1       2.791  -8.156   0.000  0.00  0.00    +0.000 C 
ATOM     17  C   UNL     1       3.612  -8.069   0.000  0.00  0.00    +0.002 C 
ATOM     18  C   UNL     1       3.947  -7.316   0.000  0.00  0.00    +0.022 C 
ENDBRANCH  11  13
ENDBRANCH   1  10
TORSDOF 4
