REMARK  Name = 
REMARK  5 active torsions:
REMARK  status: ('A' for Active; 'I' for Inactive)
REMARK    1  A    between atoms: C_2  and  C_4
REMARK    2  A    between atoms: C_7  and  C_8
REMARK    3  A    between atoms: C_8  and  C_9
REMARK    4  A    between atoms: C_9  and  N_10
REMARK    5  A    between atoms: C_11  and  C_13
REMARK                            x       y       z     vdW  Elec       q    Type
REMARK                         _______ _______ _______ _____ _____    ______ ____
ROOT
ATOM      1  C   UNL     1      -1.159  -1.533   0.000  0.00  0.00    +0.125 C 
ENDROOT
BRANCH   1   2
ATOM      2  N   UNL     1      -0.444  -1.121   0.000  0.00  0.00    -0.203 NA
ATOM      3  C   UNL     1       0.270  -1.533   0.000  0.00  0.00    +0.269 C 
ATOM      4  O   UNL     1       0.270  -2.358   0.000  0.00  0.00    -0.271 OA
BRANCH   3   5
ATOM      5  C   UNL     1       0.985  -1.121   0.000  0.00  0.00    +0.196 C 
ATOM      6  C   UNL     1       1.797  -0.978   0.000  0.00  0.00    +0.039 C 
ATOM      7  C   UNL     1       2.079  -0.202   0.000  0.00  0.00    +0.003 C 
ATOM      8  C   UNL     1       1.549   0.430   0.000  0.00  0.00    +0.000 C 
ATOM      9  C   UNL     1       0.737   0.286   0.000  0.00  0.00    +0.003 C 
ATOM     10  C   UNL     1       0.455  -0.489   0.000  0.00  0.00    +0.039 C 
ATOM     11  O   UNL     1       1.267  -1.896   0.000  0.00  0.00    -0.216 OA
ENDBRANCH   3   5
ENDBRANCH   1   2
BRANCH   1  12
ATOM     12  C   UNL     1      -1.873  -1.121   0.000  0.00  0.00    +0.111 C 
BRANCH  12  15
ATOM     13  C   UNL     1      -3.481  -2.525   0.000  0.00  0.00    +0.180 A 
ATOM     14  N   UNL     1      -2.674  -2.354   0.000  0.00  0.00    -0.195 NA
ATOM     15  C   UNL     1      -2.587  -1.533   0.000  0.00  0.00    +0.238 A 
ATOM     16  O   UNL     1      -3.341  -1.198   0.000  0.00  0.00    -0.337 OA
ATOM     17  N   UNL     1      -3.893  -1.811   0.000  0.00  0.00    -0.061 NA
BRANCH  13  19
ATOM     18  C   UNL     1      -4.637  -3.365   0.000  0.00  0.00    +0.008 C 
ATOM     19  C   UNL     1      -3.816  -3.279   0.000  0.00  0.00    +0.062 C 
ATOM     20  C   UNL     1      -3.331  -3.946   0.000  0.00  0.00    +0.008 C 
ENDBRANCH  13  19
ENDBRANCH  12  15
ENDBRANCH   1  12
TORSDOF 5
