REMARK  Name = 
REMARK  4 active torsions:
REMARK  status: ('A' for Active; 'I' for Inactive)
REMARK    1  A    between atoms: C_3  and  C_5
REMARK    2  A    between atoms: C_5  and  C_6
REMARK    3  A    between atoms: C_9  and  C_10
REMARK    4  A    between atoms: C_10  and  C_11
REMARK                            x       y       z     vdW  Elec       q    Type
REMARK                         _______ _______ _______ _____ _____    ______ ____
ROOT
ATOM      1  C   UNL     1      -0.964   3.049   0.000  0.00  0.00    +0.190 A 
ATOM      2  N   UNL     1      -1.218   2.264   0.000  0.00  0.00    -0.194 NA
ATOM      3  C   UNL     1      -0.551   1.779   0.000  0.00  0.00    +0.236 A 
ATOM      4  O   UNL     1       0.117   2.264   0.000  0.00  0.00    -0.337 OA
ATOM      5  N   UNL     1      -0.139   3.049   0.000  0.00  0.00    -0.060 NA
ENDROOT
BRANCH   1   6
ATOM      6  C   UNL     1      -1.448   3.716   0.000  0.00  0.00    +0.156 C 
BRANCH   6   9
ATOM      7  C   UNL     1      -1.262   5.891   0.000  0.00  0.00    +0.139 C 
ATOM      8  N   UNL     1      -1.598   5.137   0.000  0.00  0.00    -0.203 NA
ATOM      9  C   UNL     1      -1.113   4.470   0.000  0.00  0.00    +0.249 C 
ATOM     10  O   UNL     1      -0.292   4.556   0.000  0.00  0.00    -0.273 OA
ENDBRANCH   6   9
ENDBRANCH   1   6
BRANCH   3  11
ATOM     11  C   UNL     1      -0.551   0.954   0.000  0.00  0.00    +0.088 C 
BRANCH  11  12
ATOM     12  C   UNL     1       0.164   0.542   0.000  0.00  0.00    +0.009 C 
ATOM     13  C   UNL     1       0.878   0.954   0.000  0.00  0.00    +0.000 C 
ATOM     14  C   UNL     1       0.672   0.129   0.000  0.00  0.00    +0.000 C 
ATOM     15  C   UNL     1       0.878  -0.696   0.000  0.00  0.00    +0.000 C 
ATOM     16  C   UNL     1       1.593  -0.283   0.000  0.00  0.00    +0.000 C 
ATOM     17  C   UNL     1       1.593   0.542   0.000  0.00  0.00    +0.000 C 
ATOM     18  C   UNL     1       0.164  -0.283   0.000  0.00  0.00    +0.000 C 
ENDBRANCH  11  12
ENDBRANCH   3  11
TORSDOF 4
