REMARK  Name = 
REMARK  6 active torsions:
REMARK  status: ('A' for Active; 'I' for Inactive)
REMARK    1  A    between atoms: S_2  and  C_5
REMARK    2  A    between atoms: C_5  and  C_6
REMARK    3  A    between atoms: C_6  and  C_7
REMARK    4  A    between atoms: C_7  and  N_8
REMARK    5  A    between atoms: C_12  and  C_13
REMARK    6  A    between atoms: C_13  and  N_14
REMARK                            x       y       z     vdW  Elec       q    Type
REMARK                         _______ _______ _______ _____ _____    ______ ____
ROOT
ATOM      1  N   UNL     1       1.429  -2.475   0.000  0.00  0.00    -0.268 NA
ATOM      2  C   UNL     1       0.715  -2.888   0.000  0.00  0.00    +0.104 C 
ATOM      3  C   UNL     1       0.715  -3.712   0.000  0.00  0.00    +0.153 C 
ATOM      4  O   UNL     1       1.429  -4.125   0.000  0.00  0.00    -0.352 OA
ATOM      5  C   UNL     1       2.143  -3.712   0.000  0.00  0.00    +0.159 C 
ATOM      6  C   UNL     1       2.143  -2.888   0.000  0.00  0.00    +0.105 C 
ENDROOT
BRANCH   3   7
ATOM      7  C   UNL     1       0.000  -4.125   0.000  0.00  0.00    +0.145 C 
BRANCH   7   8
ATOM      8  N   UNL     1       0.000  -4.950   0.000  0.00  0.00    -0.216 NA
ATOM      9  C   UNL     1      -0.715  -5.362   0.000  0.00  0.00    +0.169 A 
ATOM     10  N   UNL     1      -1.429  -4.950   0.000  0.00  0.00    -0.131 NA
ATOM     11  N   UNL     1      -2.143  -5.362   0.000  0.00  0.00    -0.145 NA
ATOM     12  C   UNL     1      -2.143  -6.188   0.000  0.00  0.00    +0.122 A 
ATOM     13  C   UNL     1      -1.429  -6.600   0.000  0.00  0.00    +0.025 A 
ATOM     14  C   UNL     1      -0.715  -6.188   0.000  0.00  0.00    +0.039 A 
ENDBRANCH   7   8
ENDBRANCH   3   7
BRANCH   1  15
ATOM     15  C   UNL     1       1.429  -1.650   0.000  0.00  0.00    +0.074 C 
BRANCH  15  16
ATOM     16  C   UNL     1       2.143  -1.238   0.000  0.00  0.00    +0.043 C 
BRANCH  16  17
ATOM     17  C   UNL     1       2.143  -0.412   0.000  0.00  0.00    +0.152 C 
BRANCH  17  19
ATOM     18  C   UNL     1       3.572   0.412   0.000  0.00  0.00    +0.176 C 
ATOM     19  S   UNL     1       2.858   0.000   0.000  0.00  0.00    -0.008 S 
ATOM     20  O   UNL     1       3.270  -0.715   0.000  0.00  0.00    -0.173 OA
ATOM     21  O   UNL     1       2.445   0.715   0.000  0.00  0.00    -0.173 OA
ENDBRANCH  17  19
ENDBRANCH  16  17
ENDBRANCH  15  16
ENDBRANCH   1  15
TORSDOF 6
