REMARK  Name = 
REMARK  4 active torsions:
REMARK  status: ('A' for Active; 'I' for Inactive)
REMARK    1  A    between atoms: C_2  and  C_3
REMARK    2  A    between atoms: C_5  and  N_6
REMARK    3  A    between atoms: N_9  and  C_10
REMARK    4  A    between atoms: C_10  and  C_11
REMARK                            x       y       z     vdW  Elec       q    Type
REMARK                         _______ _______ _______ _____ _____    ______ ____
ROOT
ATOM      1  N   UNL     1      -1.421  -1.436   0.000  0.00  0.00    -0.142 NA
ATOM      2  C   UNL     1      -0.707  -1.849   0.000  0.00  0.00    +0.345 C 
ATOM      3  N   UNL     1       0.007  -1.436   0.000  0.00  0.00    -0.186 NA
ATOM      4  O   UNL     1      -0.707  -2.674   0.000  0.00  0.00    -0.249 OA
ENDROOT
BRANCH   1   9
ATOM      5  C   UNL     1      -3.442  -2.126   0.000  0.00  0.00    +0.081 A 
ATOM      6  N   UNL     1      -3.029  -2.841   0.000  0.00  0.00    -0.172 NA
ATOM      7  N   UNL     1      -2.222  -2.669   0.000  0.00  0.00    -0.234 N 
ATOM      8  C   UNL     1      -1.609  -3.221   0.000  0.00  0.00    +0.155 C 
ATOM      9  C   UNL     1      -2.136  -1.849   0.000  0.00  0.00    +0.154 A 
ATOM     10  C   UNL     1      -2.890  -1.513   0.000  0.00  0.00    +0.052 A 
BRANCH   5  12
ATOM     11  C   UNL     1      -4.747  -2.707   0.000  0.00  0.00    +0.007 C 
ATOM     12  C   UNL     1      -4.262  -2.040   0.000  0.00  0.00    +0.048 C 
ENDBRANCH   5  12
ENDBRANCH   1   9
BRANCH   3  13
ATOM     13  C   UNL     1       0.722  -1.849   0.000  0.00  0.00    +0.127 C 
BRANCH  13  14
ATOM     14  C   UNL     1       1.436  -1.436   0.000  0.00  0.00    +0.059 C 
ATOM     15  S   UNL     1       2.221  -1.181   0.000  0.00  0.00    -0.140 S 
ATOM     16  C   UNL     1       2.221  -0.356   0.000  0.00  0.00    +0.058 C 
ATOM     17  C   UNL     1       1.436  -0.101   0.000  0.00  0.00    +0.013 C 
ATOM     18  C   UNL     1       0.952  -0.769   0.000  0.00  0.00    +0.013 C 
ATOM     19  C   UNL     1       1.772  -2.190   0.000  0.00  0.00    +0.013 C 
ENDBRANCH  13  14
ENDBRANCH   3  13
TORSDOF 4
