REMARK  Name = 
REMARK  1 active torsions:
REMARK  status: ('A' for Active; 'I' for Inactive)
REMARK    1  A    between atoms: C_2  and  C_4
REMARK                            x       y       z     vdW  Elec       q    Type
REMARK                         _______ _______ _______ _____ _____    ______ ____
ROOT
ATOM      1  N   UNL     1       3.679   0.384   0.000  0.00  0.00    -0.283 N 
ATOM      2  C   UNL     1       3.425   1.172   0.000  0.00  0.00    +0.125 C 
ATOM      3  C   UNL     1       4.092   1.656   0.000  0.00  0.00    +0.174 C 
ATOM      4  C   UNL     1       4.760   1.172   0.000  0.00  0.00    +0.066 C 
ATOM      5  O   UNL     1       4.092   2.482   0.000  0.00  0.00    -0.221 OA
ATOM      6  C   UNL     1       3.191  -0.284   0.000  0.00  0.00    +0.135 A 
ATOM      7  C   UNL     1       3.529  -1.039   0.000  0.00  0.00    +0.055 A 
ATOM      8  C   UNL     1       3.045  -1.706   0.000  0.00  0.00    +0.104 A 
ATOM      9  N   UNL     1       2.223  -1.619   0.000  0.00  0.00    -0.222 NA
ATOM     10  C   UNL     1       1.885  -0.864   0.000  0.00  0.00    +0.200 A 
ATOM     11  N   UNL     1       2.369  -0.196   0.000  0.00  0.00    -0.209 NA
ATOM     12  C   UNL     1       4.505   0.384   0.000  0.00  0.00    +0.181 C 
ENDROOT
BRANCH  12  13
ATOM     13  C   UNL     1       4.989  -0.284   0.000  0.00  0.00    +0.383 C 
ATOM     14  O   UNL     1       5.811  -0.196   0.000  0.00  0.00    -0.244 OA
ATOM     15  O   UNL     1       4.655  -1.039   0.000  0.00  0.00    -0.244 OA
ENDBRANCH  12  13
TORSDOF 1
REMARK  Name = 
REMARK  1 active torsions:
REMARK  status: ('A' for Active; 'I' for Inactive)
REMARK    1  A    between atoms: C_2  and  C_4
REMARK                            x       y       z     vdW  Elec       q    Type
REMARK                         _______ _______ _______ _____ _____    ______ ____
ROOT
ATOM      1 CL   UNL     1       0.000   0.000   0.000  0.00  0.00    +0.000 Cl
ENDROOT
TORSDOF 0
