REMARK  Name = 
REMARK  4 active torsions:
REMARK  status: ('A' for Active; 'I' for Inactive)
REMARK    1  A    between atoms: S_2  and  C_3
REMARK    2  A    between atoms: C_6  and  C_7
REMARK    3  A    between atoms: N_10  and  C_11
REMARK    4  A    between atoms: C_11  and  C_12
REMARK                            x       y       z     vdW  Elec       q    Type
REMARK                         _______ _______ _______ _____ _____    ______ ____
ROOT
ATOM      1  C   UNL     1       0.774   4.888   0.000  0.00  0.00    +0.193 A 
ATOM      2  N   UNL     1       0.519   4.104   0.000  0.00  0.00    -0.285 N 
ATOM      3  C   UNL     1       1.187   3.619   0.000  0.00  0.00    +0.144 A 
ATOM      4  N   UNL     1       1.854   4.104   0.000  0.00  0.00    -0.133 NA
ATOM      5  N   UNL     1       1.599   4.888   0.000  0.00  0.00    -0.122 NA
ENDROOT
BRANCH   3   6
ATOM      6  C   UNL     1       1.187   2.794   0.000  0.00  0.00    +0.059 C 
ATOM      7  C   UNL     1       0.774   2.079   0.000  0.00  0.00    +0.008 C 
ATOM      8  C   UNL     1       1.599   2.079   0.000  0.00  0.00    +0.008 C 
ENDBRANCH   3   6
BRANCH   1  10
ATOM      9  C   UNL     1       0.625   6.309   0.000  0.00  0.00    +0.077 C 
ATOM     10  S   UNL     1       0.289   5.556   0.000  0.00  0.00    -0.075 S 
ENDBRANCH   1  10
BRANCH   2  11
ATOM     11  C   UNL     1      -0.265   3.849   0.000  0.00  0.00    +0.198 C 
BRANCH  11  12
ATOM     12  C   UNL     1      -0.437   3.042   0.000  0.00  0.00    +0.284 C 
ATOM     13  N   UNL     1      -1.222   2.787   0.000  0.00  0.00    -0.086 NA
ATOM     14  O   UNL     1       0.176   2.490   0.000  0.00  0.00    -0.270 OA
ENDBRANCH  11  12
ENDBRANCH   2  11
TORSDOF 4
