REMARK  Name = 
REMARK  4 active torsions:
REMARK  status: ('A' for Active; 'I' for Inactive)
REMARK    1  A    between atoms: C_2  and  CA_4
REMARK    2  A    between atoms: C_6  and  O_7
REMARK    3  A    between atoms: O_7  and  C_8
REMARK    4  A    between atoms: C_8  and  C_9
REMARK                            x       y       z     vdW  Elec       q    Type
REMARK                         _______ _______ _______ _____ _____    ______ ____
ROOT
ATOM      1  CA  UNL     1      -2.751   5.590   0.000  0.00  0.00    +0.174 A 
ATOM      2  C   UNL     1      -3.466   6.003   0.000  0.00  0.00    +0.082 A 
ATOM      3 CL   UNL     1      -3.466   6.828   0.000  0.00  0.00    -0.080 Cl
ATOM      4  C   UNL     1      -4.180   5.590   0.000  0.00  0.00    +0.018 A 
ATOM      5  C   UNL     1      -4.180   4.765   0.000  0.00  0.00    +0.059 A 
ATOM      6  C   UNL     1      -3.466   4.353   0.000  0.00  0.00    +0.225 A 
ATOM      7  N   UNL     1      -2.751   4.765   0.000  0.00  0.00    -0.204 NA
ENDROOT
BRANCH   1   9
ATOM      8  O   UNL     1      -2.037   6.828   0.000  0.00  0.00    -0.239 OA
ATOM      9  C   UNL     1      -2.037   6.003   0.000  0.00  0.00    +0.406 C 
ATOM     10  OXT UNL     1      -1.322   5.590   0.000  0.00  0.00    -0.239 OA
ENDBRANCH   1   9
BRANCH   6  11
ATOM     11  O   UNL     1      -3.466   3.528   0.000  0.00  0.00    -0.458 OA
BRANCH  11  12
ATOM     12  C   UNL     1      -2.751   3.115   0.000  0.00  0.00    +0.236 C 
BRANCH  12  13
ATOM     13  C   UNL     1      -2.751   2.290   0.000  0.00  0.00    +0.159 C 
ATOM     14  O   UNL     1      -3.419   1.805   0.000  0.00  0.00    -0.352 OA
ATOM     15  C   UNL     1      -3.164   1.021   0.000  0.00  0.00    +0.142 C 
ATOM     16  C   UNL     1      -2.339   1.021   0.000  0.00  0.00    +0.035 C 
ATOM     17  C   UNL     1      -2.084   1.805   0.000  0.00  0.00    +0.036 C 
ENDBRANCH  12  13
ENDBRANCH  11  12
ENDBRANCH   6  11
TORSDOF 4
