REMARK  Name = 
REMARK  5 active torsions:
REMARK  status: ('A' for Active; 'I' for Inactive)
REMARK    1  A    between atoms: C_2  and  C_5
REMARK    2  A    between atoms: C_10  and  C_13
REMARK    3  A    between atoms: N_15  and  C_16
REMARK    4  A    between atoms: C_16  and  C_17
REMARK    5  A    between atoms: C_17  and  C_18
REMARK                            x       y       z     vdW  Elec       q    Type
REMARK                         _______ _______ _______ _____ _____    ______ ____
ROOT
ATOM      1  C   UNL     1      -2.143  -1.238   0.000  0.00  0.00    +0.225 C 
ATOM      2  N   UNL     1      -1.429  -1.650   0.000  0.00  0.00    -0.280 N 
ATOM      3  C   UNL     1      -1.429  -2.475   0.000  0.00  0.00    +0.094 C 
ATOM      4  C   UNL     1      -0.715  -2.888   0.000  0.00  0.00    +0.031 C 
ATOM      5  C   UNL     1       0.000  -2.475   0.000  0.00  0.00    +0.082 C 
ATOM      6  C   UNL     1       0.000  -1.650   0.000  0.00  0.00    +0.031 C 
ATOM      7  C   UNL     1      -0.715  -1.238   0.000  0.00  0.00    +0.094 C 
ATOM      8  O   UNL     1      -2.143  -0.412   0.000  0.00  0.00    -0.275 OA
ENDROOT
BRANCH   1  10
ATOM      9  C   UNL     1      -3.572  -2.062   0.000  0.00  0.00    +0.009 C 
ATOM     10  C   UNL     1      -2.858  -1.650   0.000  0.00  0.00    +0.069 C 
ATOM     11  C   UNL     1      -3.270  -0.935   0.000  0.00  0.00    +0.009 C 
ATOM     12  C   UNL     1      -2.445  -2.365   0.000  0.00  0.00    +0.009 C 
ENDBRANCH   1  10
BRANCH   5  13
ATOM     13  C   UNL     1       0.715  -2.888   0.000  0.00  0.00    +0.241 C 
ATOM     14  N   UNL     1       1.429  -2.475   0.000  0.00  0.00    -0.205 NA
ATOM     15  O   UNL     1       0.715  -3.712   0.000  0.00  0.00    -0.273 OA
BRANCH  14  16
ATOM     16  C   UNL     1       2.143  -2.888   0.000  0.00  0.00    +0.121 C 
BRANCH  16  17
ATOM     17  C   UNL     1       2.858  -2.475   0.000  0.00  0.00    +0.069 C 
BRANCH  17  18
ATOM     18  C   UNL     1       3.572  -2.888   0.000  0.00  0.00    +0.061 A 
ATOM     19  N   UNL     1       3.572  -3.712   0.000  0.00  0.00    -0.248 NA
ATOM     20  C   UNL     1       4.287  -4.125   0.000  0.00  0.00    +0.098 A 
ATOM     21  C   UNL     1       5.001  -3.712   0.000  0.00  0.00    +0.021 A 
ATOM     22  C   UNL     1       5.001  -2.888   0.000  0.00  0.00    +0.003 A 
ATOM     23  C   UNL     1       4.287  -2.475   0.000  0.00  0.00    +0.015 A 
ENDBRANCH  17  18
ENDBRANCH  16  17
ENDBRANCH  14  16
ENDBRANCH   5  13
TORSDOF 5
