REMARK  Name = 
REMARK  4 active torsions:
REMARK  status: ('A' for Active; 'I' for Inactive)
REMARK    1  A    between atoms: C_2  and  C_3
REMARK    2  A    between atoms: C_2  and  N_9
REMARK    3  A    between atoms: C_3  and  N_4
REMARK    4  A    between atoms: C_16  and  C_17
REMARK                            x       y       z     vdW  Elec       q    Type
REMARK                         _______ _______ _______ _____ _____    ______ ____
ROOT
ATOM      1  N   UNL     1       1.457  -2.025   0.000  0.00  0.00    -0.188 NA
ATOM      2  C   UNL     1       2.171  -2.437   0.000  0.00  0.00    +0.323 C 
ATOM      3  N   UNL     1       2.886  -2.025   0.000  0.00  0.00    -0.264 N 
ATOM      4  C   UNL     1       3.640  -2.360   0.000  0.00  0.00    +0.077 C 
ATOM      5  C   UNL     1       4.192  -1.747   0.000  0.00  0.00    +0.022 C 
ATOM      6  C   UNL     1       3.779  -1.033   0.000  0.00  0.00    +0.023 C 
ATOM      7  C   UNL     1       2.972  -1.204   0.000  0.00  0.00    +0.095 C 
ATOM      8  O   UNL     1       2.171  -3.262   0.000  0.00  0.00    -0.251 OA
ENDROOT
BRANCH   4   9
ATOM      9  C   UNL     1       3.811  -3.167   0.000  0.00  0.00    +0.018 C 
ATOM     10  C   UNL     1       3.362  -3.859   0.000  0.00  0.00    +0.002 C 
ATOM     11  C   UNL     1       4.054  -4.309   0.000  0.00  0.00    +0.000 C 
ATOM     12  C   UNL     1       4.503  -3.617   0.000  0.00  0.00    +0.002 C 
ENDBRANCH   4   9
BRANCH   1  14
ATOM     13  C   UNL     1       0.743  -3.262   0.000  0.00  0.00    +0.026 C 
ATOM     14  C   UNL     1       0.743  -2.437   0.000  0.00  0.00    +0.120 C 
BRANCH  14  15
ATOM     15  C   UNL     1       0.028  -2.025   0.000  0.00  0.00    +0.131 C 
BRANCH  15  16
ATOM     16  N   UNL     1      -0.686  -2.437   0.000  0.00  0.00    -0.289 N 
ATOM     17  C   UNL     1      -1.440  -2.102   0.000  0.00  0.00    +0.203 A 
ATOM     18  N   UNL     1      -1.992  -2.715   0.000  0.00  0.00    -0.125 NA
ATOM     19  N   UNL     1      -1.580  -3.429   0.000  0.00  0.00    -0.125 NA
ATOM     20  C   UNL     1      -0.773  -3.258   0.000  0.00  0.00    +0.203 A 
ENDBRANCH  15  16
ENDBRANCH  14  15
ENDBRANCH   1  14
TORSDOF 4
