REMARK  Name = 
REMARK  3 active torsions:
REMARK  status: ('A' for Active; 'I' for Inactive)
REMARK    1  A    between atoms: C_4  and  C_5
REMARK    2  A    between atoms: C_5  and  C_6
REMARK    3  A    between atoms: N_8  and  C_9
REMARK                            x       y       z     vdW  Elec       q    Type
REMARK                         _______ _______ _______ _____ _____    ______ ____
ROOT
ATOM      1  C   UNL     1      -1.827   6.448   0.000  0.00  0.00    +0.133 C 
ENDROOT
BRANCH   1   6
ATOM      2  C   UNL     1      -3.770   8.607   0.000  0.00  0.00    +0.059 C 
ATOM      3  C   UNL     1      -3.435   7.853   0.000  0.00  0.00    +0.088 A 
ATOM      4  S   UNL     1      -3.847   7.138   0.000  0.00  0.00    -0.071 S 
ATOM      5  C   UNL     1      -3.295   6.525   0.000  0.00  0.00    +0.052 A 
ATOM      6  C   UNL     1      -2.542   6.861   0.000  0.00  0.00    +0.075 A 
ATOM      7  N   UNL     1      -2.628   7.681   0.000  0.00  0.00    -0.247 NA
ENDBRANCH   1   6
BRANCH   1   8
ATOM      8  C   UNL     1      -1.827   5.623   0.000  0.00  0.00    +0.247 C 
ATOM      9  N   UNL     1      -1.113   5.211   0.000  0.00  0.00    -0.207 NA
ATOM     10  O   UNL     1      -2.542   5.211   0.000  0.00  0.00    -0.273 OA
BRANCH   9  11
ATOM     11  C   UNL     1      -1.113   4.386   0.000  0.00  0.00    +0.095 C 
ATOM     12  C   UNL     1      -1.525   3.671   0.000  0.00  0.00    +0.023 C 
ATOM     13  C   UNL     1      -0.700   3.671   0.000  0.00  0.00    +0.023 C 
ENDBRANCH   9  11
ENDBRANCH   1   8
TORSDOF 3
