REMARK  Name = 
REMARK  6 active torsions:
REMARK  status: ('A' for Active; 'I' for Inactive)
REMARK    1  A    between atoms: C_2  and  C_3
REMARK    2  A    between atoms: C_3  and  N_5
REMARK    3  A    between atoms: C_6  and  C_8
REMARK    4  A    between atoms: C_8  and  N_9
REMARK    5  A    between atoms: C_13  and  C_14
REMARK    6  A    between atoms: C_16  and  C_17
REMARK                            x       y       z     vdW  Elec       q    Type
REMARK                         _______ _______ _______ _____ _____    ______ ____
ROOT
ATOM      1  N   UNL     1       4.018  -3.422   0.000  0.00  0.00    -0.280 N 
ATOM      2  C   UNL     1       4.771  -3.758   0.000  0.00  0.00    +0.160 A 
ATOM      3  C   UNL     1       5.323  -3.145   0.000  0.00  0.00    +0.178 A 
ATOM      4  N   UNL     1       4.911  -2.430   0.000  0.00  0.00    -0.200 NA
ATOM      5  C   UNL     1       4.104  -2.602   0.000  0.00  0.00    +0.239 A 
ATOM      6  N   UNL     1       3.491  -2.050   0.000  0.00  0.00    -0.088 NA
ENDROOT
BRANCH   3   7
ATOM      7  C   UNL     1       6.144  -3.231   0.000  0.00  0.00    +0.122 C 
ATOM      8  N   UNL     1       6.964  -3.317   0.000  0.00  0.00    -0.189 NA
ENDBRANCH   3   7
BRANCH   2   9
ATOM      9  C   UNL     1       4.943  -4.565   0.000  0.00  0.00    +0.120 C 
ATOM     10  N   UNL     1       5.114  -5.372   0.000  0.00  0.00    -0.189 NA
ENDBRANCH   2   9
BRANCH   1  11
ATOM     11  C   UNL     1       3.303  -3.835   0.000  0.00  0.00    +0.196 C 
BRANCH  11  13
ATOM     12  N   UNL     1       1.874  -3.835   0.000  0.00  0.00    -0.206 NA
ATOM     13  C   UNL     1       2.589  -3.422   0.000  0.00  0.00    +0.265 C 
ATOM     14  O   UNL     1       2.589  -2.598   0.000  0.00  0.00    -0.271 OA
BRANCH  12  15
ATOM     15  C   UNL     1       1.160  -3.422   0.000  0.00  0.00    +0.095 C 
ATOM     16  C   UNL     1       1.160  -2.598   0.000  0.00  0.00    +0.023 C 
BRANCH  15  18
ATOM     17  C   UNL     1      -0.269  -3.422   0.000  0.00  0.00    +0.002 C 
ATOM     18  C   UNL     1       0.445  -3.835   0.000  0.00  0.00    +0.022 C 
ENDBRANCH  15  18
ENDBRANCH  12  15
ENDBRANCH  11  13
ENDBRANCH   1  11
TORSDOF 6
