REMARK  Name = 
REMARK  3 active torsions:
REMARK  status: ('A' for Active; 'I' for Inactive)
REMARK    1  A    between atoms: C_2  and  C_3
REMARK    2  A    between atoms: C_2  and  N_9
REMARK    3  A    between atoms: C_3  and  N_4
REMARK                            x       y       z     vdW  Elec       q    Type
REMARK                         _______ _______ _______ _____ _____    ______ ____
ROOT
ATOM      1  N   UNL     1       0.204  -1.954   0.000  0.00  0.00    -0.188 NA
ATOM      2  C   UNL     1       0.918  -2.366   0.000  0.00  0.00    +0.323 C 
ATOM      3  N   UNL     1       1.633  -1.954   0.000  0.00  0.00    -0.261 N 
ATOM      4  C   UNL     1       2.315  -2.418   0.000  0.00  0.00    +0.112 C 
ATOM      5  C   UNL     1       3.103  -2.175   0.000  0.00  0.00    +0.094 C 
ATOM      6  N   UNL     1       3.404  -1.407   0.000  0.00  0.00    -0.270 NA
ATOM      7  C   UNL     1       4.227  -1.346   0.000  0.00  0.00    +0.090 C 
ATOM      8  C   UNL     1       2.992  -0.693   0.000  0.00  0.00    +0.074 C 
ATOM      9  C   UNL     1       2.176  -0.570   0.000  0.00  0.00    +0.039 C 
ATOM     10  C   UNL     1       1.571  -1.131   0.000  0.00  0.00    +0.096 C 
ATOM     11  O   UNL     1       0.918  -3.191   0.000  0.00  0.00    -0.251 OA
ENDROOT
BRANCH   1  13
ATOM     12  C   UNL     1      -0.510  -3.191   0.000  0.00  0.00    +0.026 C 
ATOM     13  C   UNL     1      -0.510  -2.366   0.000  0.00  0.00    +0.121 C 
BRANCH  13  14
ATOM     14  C   UNL     1      -1.225  -1.954   0.000  0.00  0.00    +0.149 C 
BRANCH  14  15
ATOM     15  N   UNL     1      -1.939  -2.366   0.000  0.00  0.00    -0.248 N 
ATOM     16  N   UNL     1      -2.693  -2.031   0.000  0.00  0.00    -0.168 NA
ATOM     17  C   UNL     1      -3.245  -2.644   0.000  0.00  0.00    +0.122 A 
ATOM     18  C   UNL     1      -2.833  -3.358   0.000  0.00  0.00    +0.043 A 
ATOM     19  C   UNL     1      -2.026  -3.187   0.000  0.00  0.00    +0.097 A 
ENDBRANCH  14  15
ENDBRANCH  13  14
ENDBRANCH   1  13
TORSDOF 3
