REMARK  Name = 
REMARK  5 active torsions:
REMARK  status: ('A' for Active; 'I' for Inactive)
REMARK    1  A    between atoms: C_2  and  C_11
REMARK    2  A    between atoms: N_3  and  C_4
REMARK    3  A    between atoms: C_4  and  C_5
REMARK    4  A    between atoms: C_5  and  N_6
REMARK    5  A    between atoms: N_13  and  C_14
REMARK                            x       y       z     vdW  Elec       q    Type
REMARK                         _______ _______ _______ _____ _____    ______ ____
ROOT
ATOM      1  O   UNL     1       1.132  -2.449   0.000  0.00  0.00    -0.273 OA
ATOM      2  C   UNL     1       1.132  -1.624   0.000  0.00  0.00    +0.243 C 
ATOM      3  N   UNL     1       1.847  -1.211   0.000  0.00  0.00    -0.203 NA
ENDROOT
BRANCH   2   4
ATOM      4  C   UNL     1       0.418  -1.211   0.000  0.00  0.00    +0.107 C 
ATOM      5  C   UNL     1       0.331  -0.391   0.000  0.00  0.00    +0.096 C 
ATOM      6  C   UNL     1      -0.476  -0.219   0.000  0.00  0.00    +0.226 C 
ATOM      7  O   UNL     1      -0.811   0.535   0.000  0.00  0.00    -0.275 OA
ATOM      8  N   UNL     1      -0.888  -0.934   0.000  0.00  0.00    -0.281 N 
ATOM      9  C   UNL     1      -0.336  -1.547   0.000  0.00  0.00    +0.103 C 
BRANCH   8  10
ATOM     10  C   UNL     1      -1.709  -1.020   0.000  0.00  0.00    +0.075 C 
ATOM     11  C   UNL     1      -2.462  -0.684   0.000  0.00  0.00    +0.022 C 
ATOM     12  C   UNL     1      -2.376  -1.505   0.000  0.00  0.00    +0.022 C 
ENDBRANCH   8  10
ENDBRANCH   2   4
BRANCH   3  13
ATOM     13  C   UNL     1       2.561  -1.624   0.000  0.00  0.00    +0.140 C 
BRANCH  13  14
ATOM     14  C   UNL     1       3.276  -1.211   0.000  0.00  0.00    +0.131 C 
BRANCH  14  15
ATOM     15  N   UNL     1       3.990  -1.624   0.000  0.00  0.00    -0.306 N 
ATOM     16  C   UNL     1       4.076  -2.444   0.000  0.00  0.00    +0.179 A 
ATOM     17  N   UNL     1       4.883  -2.616   0.000  0.00  0.00    -0.222 NA
ATOM     18  C   UNL     1       5.296  -1.901   0.000  0.00  0.00    +0.119 A 
ATOM     19  C   UNL     1       4.744  -1.288   0.000  0.00  0.00    +0.098 A 
ENDBRANCH  14  15
ENDBRANCH  13  14
ENDBRANCH   3  13
TORSDOF 5
