REMARK  Name = 
REMARK  4 active torsions:
REMARK  status: ('A' for Active; 'I' for Inactive)
REMARK    1  A    between atoms: C_6  and  N_7
REMARK    2  A    between atoms: C_8  and  C_10
REMARK    3  A    between atoms: C_10  and  O_11
REMARK    4  A    between atoms: O_11  and  C_12
REMARK                            x       y       z     vdW  Elec       q    Type
REMARK                         _______ _______ _______ _____ _____    ______ ____
ROOT
ATOM      1  N   UNL     1       1.429   1.650   0.000  0.00  0.00    -0.172 NA
ATOM      2  C   UNL     1       2.143   2.062   0.000  0.00  0.00    +0.276 C 
ATOM      3  O   UNL     1       2.143   2.888   0.000  0.00  0.00    -0.270 OA
ENDROOT
BRANCH   1   8
ATOM      4  C   UNL     1      -1.429   1.650   0.000  0.00  0.00    +0.134 C 
ATOM      5  N   UNL     1      -0.715   2.062   0.000  0.00  0.00    -0.291 N 
ATOM      6  C   UNL     1       0.000   1.650   0.000  0.00  0.00    +0.276 A 
ATOM      7  O   UNL     1       0.000   0.825   0.000  0.00  0.00    -0.266 OA
ATOM      8  C   UNL     1       0.715   2.062   0.000  0.00  0.00    +0.129 A 
ATOM      9  C   UNL     1       0.715   2.888   0.000  0.00  0.00    +0.023 A 
ATOM     10  C   UNL     1       0.000   3.300   0.000  0.00  0.00    +0.020 A 
ATOM     11  C   UNL     1      -0.715   2.888   0.000  0.00  0.00    +0.078 A 
ENDBRANCH   1   8
BRANCH   2  12
ATOM     12  C   UNL     1       2.858   1.650   0.000  0.00  0.00    +0.229 C 
BRANCH  12  13
ATOM     13  O   UNL     1       3.572   2.062   0.000  0.00  0.00    -0.347 OA
BRANCH  13  14
ATOM     14  C   UNL     1       4.287   1.650   0.000  0.00  0.00    +0.116 C 
ATOM     15  C   UNL     1       4.373   0.830   0.000  0.00  0.00    +0.030 C 
ATOM     16  C   UNL     1       5.180   0.658   0.000  0.00  0.00    +0.003 C 
ATOM     17  C   UNL     1       5.593   1.373   0.000  0.00  0.00    +0.003 C 
ATOM     18  C   UNL     1       5.040   1.986   0.000  0.00  0.00    +0.030 C 
ENDBRANCH  13  14
ENDBRANCH  12  13
ENDBRANCH   2  12
TORSDOF 4
