REMARK  Name = 
REMARK  5 active torsions:
REMARK  status: ('A' for Active; 'I' for Inactive)
REMARK    1  A    between atoms: O_2  and  C_3
REMARK    2  A    between atoms: C_3  and  C_4
REMARK    3  A    between atoms: C_4  and  N_5
REMARK    4  A    between atoms: C_7  and  N_8
REMARK    5  A    between atoms: N_11  and  C_12
REMARK                            x       y       z     vdW  Elec       q    Type
REMARK                         _______ _______ _______ _____ _____    ______ ____
ROOT
ATOM      1  N   UNL     1      -1.348  -1.127   0.000  0.00  0.00    -0.158 NA
ATOM      2  C   UNL     1      -0.523  -1.127   0.000  0.00  0.00    +0.344 C 
ATOM      3  N   UNL     1      -0.111  -0.412   0.000  0.00  0.00    -0.189 NA
ATOM      4  O   UNL     1      -0.111  -1.841   0.000  0.00  0.00    -0.249 OA
ENDROOT
BRANCH   3   5
ATOM      5  C   UNL     1       0.715  -0.412   0.000  0.00  0.00    +0.097 C 
ATOM      6  C   UNL     1       1.429  -0.825   0.000  0.00  0.00    +0.022 C 
ATOM      7  C   UNL     1       2.143  -1.238   0.000  0.00  0.00    +0.002 C 
ATOM      8  C   UNL     1       2.858  -0.825   0.000  0.00  0.00    +0.000 C 
ATOM      9  C   UNL     1       2.858   0.000   0.000  0.00  0.00    +0.000 C 
ATOM     10  C   UNL     1       2.143   0.412   0.000  0.00  0.00    +0.002 C 
ATOM     11  C   UNL     1       1.429   0.000   0.000  0.00  0.00    +0.022 C 
ENDBRANCH   3   5
BRANCH   1  15
ATOM     12  N   UNL     1      -2.752  -2.735   0.000  0.00  0.00    -0.245 N 
ATOM     13  N   UNL     1      -2.038  -3.147   0.000  0.00  0.00    -0.166 NA
ATOM     14  C   UNL     1      -1.425  -2.595   0.000  0.00  0.00    +0.138 A 
ATOM     15  C   UNL     1      -1.760  -1.841   0.000  0.00  0.00    +0.114 A 
ATOM     16  C   UNL     1      -2.581  -1.928   0.000  0.00  0.00    +0.113 A 
BRANCH  12  17
ATOM     17  C   UNL     1      -3.506  -3.070   0.000  0.00  0.00    +0.159 C 
BRANCH  17  18
ATOM     18  C   UNL     1      -3.592  -3.891   0.000  0.00  0.00    +0.169 C 
BRANCH  18  20
ATOM     19  C   UNL     1      -4.432  -5.047   0.000  0.00  0.00    +0.174 C 
ATOM     20  O   UNL     1      -4.346  -4.226   0.000  0.00  0.00    -0.349 OA
ENDBRANCH  18  20
ENDBRANCH  17  18
ENDBRANCH  12  17
ENDBRANCH   1  15
TORSDOF 5
