REMARK  Name = 
REMARK  5 active torsions:
REMARK  status: ('A' for Active; 'I' for Inactive)
REMARK    1  A    between atoms: C_4  and  C_5
REMARK    2  A    between atoms: C_5  and  C_6
REMARK    3  A    between atoms: C_6  and  N_7
REMARK    4  A    between atoms: C_8  and  C_10
REMARK    5  A    between atoms: C_10  and  C_13
REMARK                            x       y       z     vdW  Elec       q    Type
REMARK                         _______ _______ _______ _____ _____    ______ ____
ROOT
ATOM      1  N   UNL     1      -1.110   5.851   0.000  0.00  0.00    -0.200 NA
ATOM      2  C   UNL     1      -1.907   6.064   0.000  0.00  0.00    +0.305 C 
ATOM      3  O   UNL     1      -2.120   6.861   0.000  0.00  0.00    -0.267 OA
ENDROOT
BRANCH   2   4
ATOM      4  C   UNL     1      -2.490   5.481   0.000  0.00  0.00    +0.357 C 
ATOM      5  F   UNL     1      -1.907   4.898   0.000  0.00  0.00    -0.192 F 
ATOM      6  F   UNL     1      -3.074   6.064   0.000  0.00  0.00    -0.192 F 
BRANCH   4   7
ATOM      7  C   UNL     1      -3.074   4.898   0.000  0.00  0.00    +0.191 C 
ATOM      8  C   UNL     1      -3.657   4.314   0.000  0.00  0.00    +0.037 C 
ATOM      9  C   UNL     1      -3.074   3.731   0.000  0.00  0.00    +0.005 C 
ATOM     10  C   UNL     1      -2.490   4.314   0.000  0.00  0.00    +0.037 C 
ATOM     11  O   UNL     1      -3.657   5.481   0.000  0.00  0.00    -0.220 OA
ENDBRANCH   4   7
ENDBRANCH   2   4
BRANCH   1  12
ATOM     12  C   UNL     1      -0.526   6.434   0.000  0.00  0.00    +0.122 C 
BRANCH  12  13
ATOM     13  C   UNL     1       0.270   6.221   0.000  0.00  0.00    +0.070 C 
BRANCH  13  18
ATOM     14  C   UNL     1       2.858   7.539   0.000  0.00  0.00    +0.059 C 
ATOM     15  C   UNL     1       2.043   7.410   0.000  0.00  0.00    +0.088 A 
ATOM     16  S   UNL     1       1.460   7.994   0.000  0.00  0.00    -0.071 S 
ATOM     17  C   UNL     1       0.725   7.619   0.000  0.00  0.00    +0.051 A 
ATOM     18  C   UNL     1       0.854   6.804   0.000  0.00  0.00    +0.067 A 
ATOM     19  N   UNL     1       1.669   6.675   0.000  0.00  0.00    -0.247 NA
ENDBRANCH  13  18
ENDBRANCH  12  13
ENDBRANCH   1  12
TORSDOF 5
