REMARK  Name = 
REMARK  4 active torsions:
REMARK  status: ('A' for Active; 'I' for Inactive)
REMARK    1  A    between atoms: O_2  and  C_3
REMARK    2  A    between atoms: C_6  and  N_7
REMARK    3  A    between atoms: N_10  and  C_11
REMARK    4  A    between atoms: C_13  and  C_18
REMARK                            x       y       z     vdW  Elec       q    Type
REMARK                         _______ _______ _______ _____ _____    ______ ____
ROOT
ATOM      1  N   UNL     1       2.649  -4.588   0.000  0.00  0.00    -0.189 NA
ATOM      2  C   UNL     1       1.934  -5.000   0.000  0.00  0.00    +0.344 C 
ATOM      3  N   UNL     1       1.934  -5.825   0.000  0.00  0.00    -0.156 NA
ATOM      4  O   UNL     1       1.220  -4.588   0.000  0.00  0.00    -0.249 OA
ENDROOT
BRANCH   1   9
ATOM      5  C   UNL     1       2.649  -2.596   0.000  0.00  0.00    +0.096 C 
ATOM      6  C   UNL     1       2.065  -3.179   0.000  0.00  0.00    +0.041 C 
ATOM      7  C   UNL     1       1.362  -2.748   0.000  0.00  0.00    +0.004 C 
ATOM      8  C   UNL     1       1.362  -3.610   0.000  0.00  0.00    +0.004 C 
ATOM      9  C   UNL     1       2.649  -3.763   0.000  0.00  0.00    +0.101 C 
ATOM     10  C   UNL     1       3.232  -3.179   0.000  0.00  0.00    +0.049 C 
ATOM     11  C   UNL     1       2.065  -2.013   0.000  0.00  0.00    +0.030 C 
BRANCH   5  13
ATOM     12  C   UNL     1       4.029  -2.226   0.000  0.00  0.00    +0.174 C 
ATOM     13  O   UNL     1       3.232  -2.013   0.000  0.00  0.00    -0.356 OA
ENDBRANCH   5  13
ENDBRANCH   1   9
BRANCH   3  14
ATOM     14  C   UNL     1       1.220  -6.237   0.000  0.00  0.00    +0.133 A 
ATOM     15  C   UNL     1       0.505  -5.825   0.000  0.00  0.00    +0.295 A 
ATOM     16  O   UNL     1       0.505  -5.000   0.000  0.00  0.00    -0.264 OA
ATOM     17  N   UNL     1      -0.209  -6.237   0.000  0.00  0.00    -0.205 NA
ATOM     18  C   UNL     1      -0.209  -7.062   0.000  0.00  0.00    +0.106 A 
ATOM     19  C   UNL     1       0.505  -7.475   0.000  0.00  0.00    +0.092 A 
ATOM     20  C   UNL     1       1.220  -7.062   0.000  0.00  0.00    +0.027 A 
BRANCH  19  21
ATOM     21  C   UNL     1       0.505  -8.300   0.000  0.00  0.00    +0.420 C 
ATOM     22  F   UNL     1       1.330  -8.300   0.000  0.00  0.00    -0.166 F 
ATOM     23  F   UNL     1      -0.320  -8.300   0.000  0.00  0.00    -0.166 F 
ATOM     24  F   UNL     1       0.505  -9.125   0.000  0.00  0.00    -0.166 F 
ENDBRANCH  19  21
ENDBRANCH   3  14
TORSDOF 4
