REMARK  Name = 
REMARK  4 active torsions:
REMARK  status: ('A' for Active; 'I' for Inactive)
REMARK    1  A    between atoms: C_2  and  C_4
REMARK    2  A    between atoms: C_4  and  C_5
REMARK    3  A    between atoms: C_10  and  N_13
REMARK    4  A    between atoms: N_16  and  C_17
REMARK                            x       y       z     vdW  Elec       q    Type
REMARK                         _______ _______ _______ _____ _____    ______ ____
ROOT
ATOM      1  N   UNL     1       2.858  -4.950   0.000  0.00  0.00    -0.189 NA
ATOM      2  C   UNL     1       2.143  -5.362   0.000  0.00  0.00    +0.343 C 
ATOM      3  N   UNL     1       2.143  -6.188   0.000  0.00  0.00    -0.159 NA
ATOM      4  O   UNL     1       1.429  -4.950   0.000  0.00  0.00    -0.249 OA
ENDROOT
BRANCH   3   5
ATOM      5  C   UNL     1       1.429  -6.600   0.000  0.00  0.00    +0.094 A 
ATOM      6  C   UNL     1       0.715  -6.188   0.000  0.00  0.00    +0.117 A 
ATOM      7  N   UNL     1       0.000  -6.600   0.000  0.00  0.00    -0.228 NA
ATOM      8  C   UNL     1       0.000  -7.425   0.000  0.00  0.00    +0.132 A 
ATOM      9  N   UNL     1      -0.715  -7.838   0.000  0.00  0.00    -0.290 N 
ATOM     10  C   UNL     1      -1.429  -7.425   0.000  0.00  0.00    +0.114 C 
ATOM     11  C   UNL     1      -0.715  -8.662   0.000  0.00  0.00    +0.114 C 
ATOM     12  C   UNL     1       0.715  -7.838   0.000  0.00  0.00    +0.036 A 
ATOM     13  C   UNL     1       1.429  -7.425   0.000  0.00  0.00    +0.021 A 
ENDBRANCH   3   5
BRANCH   1  18
ATOM     14  C   UNL     1       2.858  -1.650   0.000  0.00  0.00    +0.226 C 
ATOM     15  N   UNL     1       2.858  -2.475   0.000  0.00  0.00    -0.279 N 
ATOM     16  C   UNL     1       2.143  -2.888   0.000  0.00  0.00    +0.095 C 
ATOM     17  C   UNL     1       2.143  -3.712   0.000  0.00  0.00    +0.043 C 
ATOM     18  C   UNL     1       2.858  -4.125   0.000  0.00  0.00    +0.100 C 
ATOM     19  C   UNL     1       3.572  -3.712   0.000  0.00  0.00    +0.043 C 
ATOM     20  C   UNL     1       3.572  -2.888   0.000  0.00  0.00    +0.095 C 
ATOM     21  O   UNL     1       2.143  -1.238   0.000  0.00  0.00    -0.275 OA
BRANCH  14  22
ATOM     22  C   UNL     1       3.572  -1.238   0.000  0.00  0.00    +0.085 C 
BRANCH  22  24
ATOM     23  C   UNL     1       5.001  -1.238   0.000  0.00  0.00    +0.001 C 
ATOM     24  C   UNL     1       4.287  -1.650   0.000  0.00  0.00    +0.009 C 
ATOM     25  C   UNL     1       4.287  -2.475   0.000  0.00  0.00    +0.001 C 
ENDBRANCH  22  24
ENDBRANCH  14  22
ENDBRANCH   1  18
TORSDOF 4
