REMARK  Name = 
REMARK  5 active torsions:
REMARK  status: ('A' for Active; 'I' for Inactive)
REMARK    1  A    between atoms: O_2  and  C_3
REMARK    2  A    between atoms: C_3  and  C_4
REMARK    3  A    between atoms: C_4  and  O_5
REMARK    4  A    between atoms: O_5  and  C_6
REMARK    5  A    between atoms: C_9  and  N_10
REMARK                            x       y       z     vdW  Elec       q    Type
REMARK                         _______ _______ _______ _____ _____    ______ ____
ROOT
ATOM      1  N   UNL     1       3.647  -7.795   0.000  0.00  0.00    -0.161 NA
ATOM      2  C   UNL     1       3.647  -8.620   0.000  0.00  0.00    +0.328 C 
ATOM      3  N   UNL     1       4.361  -9.032   0.000  0.00  0.00    -0.261 N 
ATOM      4  C   UNL     1       4.300  -9.855   0.000  0.00  0.00    +0.116 C 
ATOM      5  C   UNL     1       4.904 -10.416   0.000  0.00  0.00    +0.115 C 
ATOM      6  N   UNL     1       5.720 -10.293   0.000  0.00  0.00    -0.278 N 
ATOM      7  C   UNL     1       6.185 -10.975   0.000  0.00  0.00    +0.226 C 
ATOM      8  C   UNL     1       5.827 -11.718   0.000  0.00  0.00    +0.095 C 
ATOM      9  O   UNL     1       7.008 -10.913   0.000  0.00  0.00    -0.275 OA
ATOM     10  C   UNL     1       6.133  -9.579   0.000  0.00  0.00    +0.095 C 
ATOM     11  C   UNL     1       5.831  -8.810   0.000  0.00  0.00    +0.043 C 
ATOM     12  C   UNL     1       5.043  -8.567   0.000  0.00  0.00    +0.097 C 
ATOM     13  O   UNL     1       2.932  -9.032   0.000  0.00  0.00    -0.250 OA
ENDROOT
BRANCH   1  17
ATOM     14  C   UNL     1       1.503  -6.557   0.000  0.00  0.00    +0.225 A 
ATOM     15  N   UNL     1       1.503  -7.382   0.000  0.00  0.00    -0.209 NA
ATOM     16  C   UNL     1       2.218  -7.795   0.000  0.00  0.00    +0.119 A 
ATOM     17  C   UNL     1       2.932  -7.382   0.000  0.00  0.00    +0.094 A 
ATOM     18  C   UNL     1       2.932  -6.557   0.000  0.00  0.00    +0.023 A 
ATOM     19  C   UNL     1       2.218  -6.145   0.000  0.00  0.00    +0.059 A 
BRANCH  14  20
ATOM     20  O   UNL     1       0.789  -6.145   0.000  0.00  0.00    -0.457 OA
BRANCH  20  21
ATOM     21  C   UNL     1       0.074  -6.557   0.000  0.00  0.00    +0.239 C 
BRANCH  21  22
ATOM     22  C   UNL     1      -0.640  -6.145   0.000  0.00  0.00    +0.189 C 
BRANCH  22  24
ATOM     23  C   UNL     1      -2.069  -6.145   0.000  0.00  0.00    +0.174 C 
ATOM     24  O   UNL     1      -1.355  -6.557   0.000  0.00  0.00    -0.347 OA
ENDBRANCH  22  24
ENDBRANCH  21  22
ENDBRANCH  20  21
ENDBRANCH  14  20
ENDBRANCH   1  17
TORSDOF 5
