REMARK  Name = 
REMARK  4 active torsions:
REMARK  status: ('A' for Active; 'I' for Inactive)
REMARK    1  A    between atoms: C_2  and  C_3
REMARK    2  A    between atoms: C_2  and  N_9
REMARK    3  A    between atoms: C_3  and  N_4
REMARK    4  A    between atoms: C_10  and  C_12
REMARK                            x       y       z     vdW  Elec       q    Type
REMARK                         _______ _______ _______ _____ _____    ______ ____
ROOT
ATOM      1  N   UNL     1       1.457  -2.025   0.000  0.00  0.00    -0.205 NA
ATOM      2  C   UNL     1       2.171  -2.437   0.000  0.00  0.00    +0.243 C 
ATOM      3  O   UNL     1       2.171  -3.262   0.000  0.00  0.00    -0.273 OA
ENDROOT
BRANCH   2   4
ATOM      4  C   UNL     1       2.886  -2.025   0.000  0.00  0.00    +0.103 C 
ATOM      5  C   UNL     1       3.640  -2.360   0.000  0.00  0.00    +0.160 C 
ATOM      6  S   UNL     1       4.192  -1.747   0.000  0.00  0.00    -0.010 S 
ATOM      7  O   UNL     1       4.744  -2.360   0.000  0.00  0.00    -0.173 OA
ATOM      8  O   UNL     1       4.859  -1.262   0.000  0.00  0.00    -0.173 OA
ATOM      9  C   UNL     1       3.779  -1.033   0.000  0.00  0.00    +0.151 C 
ATOM     10  C   UNL     1       2.972  -1.204   0.000  0.00  0.00    +0.036 C 
ENDBRANCH   2   4
BRANCH   1  12
ATOM     11  C   UNL     1       0.743  -3.262   0.000  0.00  0.00    +0.026 C 
ATOM     12  C   UNL     1       0.743  -2.437   0.000  0.00  0.00    +0.120 C 
BRANCH  12  13
ATOM     13  C   UNL     1       0.028  -2.025   0.000  0.00  0.00    +0.149 C 
BRANCH  13  14
ATOM     14  N   UNL     1      -0.686  -2.437   0.000  0.00  0.00    -0.248 N 
ATOM     15  N   UNL     1      -1.440  -2.102   0.000  0.00  0.00    -0.168 NA
ATOM     16  C   UNL     1      -1.992  -2.715   0.000  0.00  0.00    +0.122 A 
ATOM     17  C   UNL     1      -1.580  -3.429   0.000  0.00  0.00    +0.043 A 
ATOM     18  C   UNL     1      -0.773  -3.258   0.000  0.00  0.00    +0.097 A 
ENDBRANCH  13  14
ENDBRANCH  12  13
ENDBRANCH   1  12
TORSDOF 4
