REMARK  Name = 
REMARK  4 active torsions:
REMARK  status: ('A' for Active; 'I' for Inactive)
REMARK    1  A    between atoms: C_3  and  C_5
REMARK    2  A    between atoms: C_8  and  N_11
REMARK    3  A    between atoms: N_14  and  C_15
REMARK    4  A    between atoms: C_18  and  C_21
REMARK                            x       y       z     vdW  Elec       q    Type
REMARK                         _______ _______ _______ _____ _____    ______ ____
ROOT
ATOM      1  N   UNL     1      -2.143  -3.712   0.000  0.00  0.00    -0.189 NA
ATOM      2  C   UNL     1      -2.858  -4.125   0.000  0.00  0.00    +0.344 C 
ATOM      3  N   UNL     1      -2.858  -4.950   0.000  0.00  0.00    -0.158 NA
ATOM      4  O   UNL     1      -3.572  -3.712   0.000  0.00  0.00    -0.249 OA
ENDROOT
BRANCH   1   8
ATOM      5  C   UNL     1      -2.143  -1.238   0.000  0.00  0.00    +0.078 C 
ATOM      6  C   UNL     1      -2.858  -1.650   0.000  0.00  0.00    +0.011 C 
ATOM      7  C   UNL     1      -2.858  -2.475   0.000  0.00  0.00    +0.022 C 
ATOM      8  C   UNL     1      -2.143  -2.888   0.000  0.00  0.00    +0.097 C 
ATOM      9  C   UNL     1      -1.429  -2.475   0.000  0.00  0.00    +0.022 C 
ATOM     10  C   UNL     1      -1.429  -1.650   0.000  0.00  0.00    +0.011 C 
BRANCH   5  13
ATOM     11  C   UNL     1      -2.858   0.825   0.000  0.00  0.00    +0.138 C 
ATOM     12  N   UNL     1      -2.858   0.000   0.000  0.00  0.00    -0.204 NA
ATOM     13  C   UNL     1      -2.143  -0.412   0.000  0.00  0.00    +0.241 C 
ATOM     14  O   UNL     1      -1.429   0.000   0.000  0.00  0.00    -0.273 OA
ENDBRANCH   5  13
ENDBRANCH   1   8
BRANCH   3  15
ATOM     15  C   UNL     1      -2.143  -5.362   0.000  0.00  0.00    +0.113 A 
ATOM     16  C   UNL     1      -2.143  -6.188   0.000  0.00  0.00    +0.118 A 
ATOM     17  N   UNL     1      -1.429  -6.600   0.000  0.00  0.00    -0.228 NA
ATOM     18  C   UNL     1      -0.715  -6.188   0.000  0.00  0.00    +0.138 A 
ATOM     19  N   UNL     1      -0.715  -5.362   0.000  0.00  0.00    -0.228 NA
ATOM     20  C   UNL     1      -1.429  -4.950   0.000  0.00  0.00    +0.118 A 
BRANCH  18  21
ATOM     21  C   UNL     1       0.000  -6.600   0.000  0.00  0.00    +0.052 C 
ATOM     22  C   UNL     1       0.412  -5.886   0.000  0.00  0.00    +0.008 C 
ATOM     23  C   UNL     1      -0.412  -7.314   0.000  0.00  0.00    +0.008 C 
ATOM     24  C   UNL     1       0.715  -7.013   0.000  0.00  0.00    +0.008 C 
ENDBRANCH  18  21
ENDBRANCH   3  15
TORSDOF 4
