REMARK  Name = 
REMARK  6 active torsions:
REMARK  status: ('A' for Active; 'I' for Inactive)
REMARK    1  A    between atoms: C_2  and  C_3
REMARK    2  A    between atoms: C_2  and  N_11
REMARK    3  A    between atoms: C_3  and  C_4
REMARK    4  A    between atoms: C_4  and  N_5
REMARK    5  A    between atoms: C_12  and  C_14
REMARK    6  A    between atoms: C_14  and  C_15
REMARK                            x       y       z     vdW  Elec       q    Type
REMARK                         _______ _______ _______ _____ _____    ______ ____
ROOT
ATOM      1  C   UNL     1       2.858  -4.950   0.000  0.00  0.00    +0.023 C 
ATOM      2  C   UNL     1       2.858  -4.125   0.000  0.00  0.00    +0.097 C 
ENDROOT
BRANCH   2   3
ATOM      3  N   UNL     1       3.572  -3.712   0.000  0.00  0.00    -0.207 NA
ATOM      4  C   UNL     1       4.287  -4.125   0.000  0.00  0.00    +0.246 C 
ATOM      5  O   UNL     1       4.287  -4.950   0.000  0.00  0.00    -0.273 OA
BRANCH   4   6
ATOM      6  C   UNL     1       5.001  -3.712   0.000  0.00  0.00    +0.115 C 
BRANCH   6   7
ATOM      7  C   UNL     1       5.716  -4.125   0.000  0.00  0.00    +0.006 A 
ATOM      8  C   UNL     1       5.716  -4.950   0.000  0.00  0.00    +0.095 A 
ATOM      9  N   UNL     1       6.430  -5.362   0.000  0.00  0.00    -0.243 NA
ATOM     10  C   UNL     1       7.145  -4.950   0.000  0.00  0.00    +0.099 A 
ATOM     11  C   UNL     1       7.145  -4.125   0.000  0.00  0.00    +0.020 A 
ATOM     12  C   UNL     1       6.430  -3.712   0.000  0.00  0.00    -0.001 A 
ENDBRANCH   6   7
ENDBRANCH   4   6
ENDBRANCH   2   3
BRANCH   2  13
ATOM     13  C   UNL     1       2.143  -3.712   0.000  0.00  0.00    +0.039 C 
BRANCH  13  14
ATOM     14  C   UNL     1       1.429  -4.125   0.000  0.00  0.00    +0.074 C 
BRANCH  14  15
ATOM     15  N   UNL     1       0.715  -3.712   0.000  0.00  0.00    -0.268 NA
ATOM     16  C   UNL     1       0.715  -2.888   0.000  0.00  0.00    +0.105 C 
ATOM     17  C   UNL     1       0.000  -2.475   0.000  0.00  0.00    +0.159 C 
ATOM     18  O   UNL     1      -0.715  -2.888   0.000  0.00  0.00    -0.351 OA
ATOM     19  C   UNL     1      -0.715  -3.712   0.000  0.00  0.00    +0.159 C 
ATOM     20  C   UNL     1       0.000  -4.125   0.000  0.00  0.00    +0.105 C 
ENDBRANCH  14  15
ENDBRANCH  13  14
ENDBRANCH   2  13
TORSDOF 6
