REMARK  Name = 
REMARK  3 active torsions:
REMARK  status: ('A' for Active; 'I' for Inactive)
REMARK    1  A    between atoms: C_2  and  C_3
REMARK    2  A    between atoms: C_2  and  C_13
REMARK    3  A    between atoms: C_3  and  N_4
REMARK                            x       y       z     vdW  Elec       q    Type
REMARK                         _______ _______ _______ _____ _____    ______ ____
ROOT
ATOM      1  O   UNL     1       0.000  -1.650   0.000  0.00  0.00    -0.216 OA
ATOM      2  C   UNL     1       0.715  -1.238   0.000  0.00  0.00    +0.199 C 
ENDROOT
BRANCH   2   3
ATOM      3  C   UNL     1       0.715  -0.412   0.000  0.00  0.00    +0.037 A 
ATOM      4  C   UNL     1       1.429   0.000   0.000  0.00  0.00    +0.141 A 
ATOM      5  F   UNL     1       2.143  -0.412   0.000  0.00  0.00    -0.204 F 
ATOM      6  C   UNL     1       1.429   0.825   0.000  0.00  0.00    +0.059 A 
ATOM      7  C   UNL     1       0.715   1.238   0.000  0.00  0.00    +0.142 A 
ATOM      8  F   UNL     1       0.715   2.062   0.000  0.00  0.00    -0.204 F 
ATOM      9  C   UNL     1       0.000   0.825   0.000  0.00  0.00    +0.030 A 
ATOM     10  C   UNL     1       0.000   0.000   0.000  0.00  0.00    +0.003 A 
ENDBRANCH   2   3
BRANCH   2  11
ATOM     11  C   UNL     1       1.429  -1.650   0.000  0.00  0.00    +0.148 C 
BRANCH  11  12
ATOM     12  N   UNL     1       1.429  -2.475   0.000  0.00  0.00    -0.275 N 
ATOM     13  C   UNL     1       0.715  -2.888   0.000  0.00  0.00    +0.353 A 
ATOM     14  O   UNL     1       0.000  -2.475   0.000  0.00  0.00    -0.244 OA
ATOM     15  N   UNL     1       0.715  -3.712   0.000  0.00  0.00    -0.152 NA
ATOM     16  C   UNL     1       1.429  -4.125   0.000  0.00  0.00    +0.295 A 
ATOM     17  O   UNL     1       1.429  -4.950   0.000  0.00  0.00    -0.264 OA
ATOM     18  C   UNL     1       2.143  -3.712   0.000  0.00  0.00    +0.133 A 
ATOM     19 CL   UNL     1       2.858  -4.125   0.000  0.00  0.00    -0.076 Cl
ATOM     20  C   UNL     1       2.143  -2.888   0.000  0.00  0.00    +0.096 A 
ENDBRANCH  11  12
ENDBRANCH   2  11
TORSDOF 3
