REMARK  Name = 
REMARK  3 active torsions:
REMARK  status: ('A' for Active; 'I' for Inactive)
REMARK    1  A    between atoms: C_2  and  C_5
REMARK    2  A    between atoms: C_5  and  N_6
REMARK    3  A    between atoms: N_9  and  C_10
REMARK                            x       y       z     vdW  Elec       q    Type
REMARK                         _______ _______ _______ _____ _____    ______ ____
ROOT
ATOM      1  C   UNL     1       0.715   5.941   0.000  0.00  0.00    +0.094 A 
ATOM      2  C   UNL     1       0.000   5.529   0.000  0.00  0.00    +0.117 A 
ATOM      3  N   UNL     1       0.000   4.704   0.000  0.00  0.00    -0.228 NA
ATOM      4  C   UNL     1       0.715   4.291   0.000  0.00  0.00    +0.132 A 
ATOM      5  N   UNL     1       0.715   3.466   0.000  0.00  0.00    -0.293 N 
ATOM      6  C   UNL     1       0.047   2.981   0.000  0.00  0.00    +0.092 C 
ATOM      7  C   UNL     1       0.302   2.196   0.000  0.00  0.00    +0.023 C 
ATOM      8  C   UNL     1       1.127   2.196   0.000  0.00  0.00    +0.023 C 
ATOM      9  C   UNL     1       1.382   2.981   0.000  0.00  0.00    +0.092 C 
ATOM     10  C   UNL     1       1.429   4.704   0.000  0.00  0.00    +0.036 A 
ATOM     11  C   UNL     1       1.429   5.529   0.000  0.00  0.00    +0.021 A 
ENDROOT
BRANCH   1  14
ATOM     12  N   UNL     1       0.000   8.004   0.000  0.00  0.00    -0.178 NA
ATOM     13  C   UNL     1       0.000   7.179   0.000  0.00  0.00    +0.344 C 
ATOM     14  N   UNL     1       0.715   6.766   0.000  0.00  0.00    -0.159 NA
ATOM     15  O   UNL     1      -0.715   6.766   0.000  0.00  0.00    -0.249 OA
BRANCH  12  16
ATOM     16  C   UNL     1      -0.715   8.416   0.000  0.00  0.00    +0.220 C 
BRANCH  16  18
ATOM     17  F   UNL     1      -0.715  10.066   0.000  0.00  0.00    -0.168 F 
ATOM     18  C   UNL     1      -0.715   9.241   0.000  0.00  0.00    +0.417 C 
ATOM     19  F   UNL     1       0.111   9.241   0.000  0.00  0.00    -0.168 F 
ATOM     20  F   UNL     1      -1.540   9.241   0.000  0.00  0.00    -0.168 F 
ENDBRANCH  16  18
ENDBRANCH  12  16
ENDBRANCH   1  14
TORSDOF 3
