REMARK  Name = 
REMARK  2 active torsions:
REMARK  status: ('A' for Active; 'I' for Inactive)
REMARK    1  A    between atoms: O_2  and  C_3
REMARK    2  A    between atoms: N_9  and  C_10
REMARK                            x       y       z     vdW  Elec       q    Type
REMARK                         _______ _______ _______ _____ _____    ______ ____
ROOT
ATOM      1  C   UNL     1      -1.265   3.017   0.000  0.00  0.00    +0.229 A 
ATOM      2  N   UNL     1      -1.265   2.192   0.000  0.00  0.00    -0.178 NA
ATOM      3  C   UNL     1      -0.551   1.779   0.000  0.00  0.00    +0.239 A 
ATOM      4  N   UNL     1      -0.551   0.954   0.000  0.00  0.00    -0.203 NA
ATOM      5  N   UNL     1       0.164   2.192   0.000  0.00  0.00    -0.217 NA
ATOM      6  C   UNL     1       0.164   3.017   0.000  0.00  0.00    +0.067 A 
ATOM      7  C   UNL     1       0.878   3.429   0.000  0.00  0.00    +0.052 C 
ATOM      8  C   UNL     1      -0.551   3.429   0.000  0.00  0.00    +0.073 A 
ENDROOT
BRANCH   4   9
ATOM      9  C   UNL     1       0.164   0.542   0.000  0.00  0.00    +0.125 C 
ATOM     10  C   UNL     1       0.878   0.954   0.000  0.00  0.00    +0.135 C 
ATOM     11  O   UNL     1       0.672   0.129   0.000  0.00  0.00    -0.357 OA
ATOM     12  C   UNL     1       0.878  -0.696   0.000  0.00  0.00    +0.117 C 
ATOM     13  C   UNL     1       1.593  -0.283   0.000  0.00  0.00    +0.032 C 
ATOM     14  C   UNL     1       1.593   0.542   0.000  0.00  0.00    +0.034 C 
ATOM     15  C   UNL     1       0.164  -0.283   0.000  0.00  0.00    +0.054 C 
ENDBRANCH   4   9
BRANCH   1  17
ATOM     16  C   UNL     1      -1.980   4.254   0.000  0.00  0.00    +0.254 C 
ATOM     17  O   UNL     1      -1.980   3.429   0.000  0.00  0.00    -0.456 OA
ENDBRANCH   1  17
TORSDOF 2
