REMARK  Name = 
REMARK  2 active torsions:
REMARK  status: ('A' for Active; 'I' for Inactive)
REMARK    1  A    between atoms: C_3  and  C_4
REMARK    2  A    between atoms: C_4  and  C_5
REMARK                            x       y       z     vdW  Elec       q    Type
REMARK                         _______ _______ _______ _____ _____    ______ ____
ROOT
ATOM      1 CL   UNL     1       0.000   0.000   0.000  0.00  0.00    +0.000 Cl
ENDROOT
TORSDOF 0
REMARK  Name = 
REMARK  2 active torsions:
REMARK  status: ('A' for Active; 'I' for Inactive)
REMARK    1  A    between atoms: C_3  and  C_4
REMARK    2  A    between atoms: C_4  and  C_5
REMARK                            x       y       z     vdW  Elec       q    Type
REMARK                         _______ _______ _______ _____ _____    ______ ____
ROOT
ATOM      1  C   UNL     1       3.255   0.147   0.000  0.00  0.00    +0.069 A 
ATOM      2  N   UNL     1       2.587  -0.338   0.000  0.00  0.00    -0.226 NA
ATOM      3  C   UNL     1       2.842  -1.123   0.000  0.00  0.00    +0.200 A 
ATOM      4  N   UNL     1       2.357  -1.790   0.000  0.00  0.00    -0.100 NA
ATOM      5  S   UNL     1       3.667  -1.123   0.000  0.00  0.00    -0.048 S 
ATOM      6  C   UNL     1       3.922  -0.338   0.000  0.00  0.00    +0.053 A 
ENDROOT
BRANCH   1   7
ATOM      7  C   UNL     1       3.255   0.972   0.000  0.00  0.00    +0.067 C 
BRANCH   7   9
ATOM      8  N   UNL     1       3.969   2.209   0.000  0.00  0.00    -0.131 NA
ATOM      9  C   UNL     1       3.969   1.384   0.000  0.00  0.00    +0.116 C 
ENDBRANCH   7   9
ENDBRANCH   1   7
TORSDOF 2
