REMARK  Name = 
REMARK  2 active torsions:
REMARK  status: ('A' for Active; 'I' for Inactive)
REMARK    1  A    between atoms: C_2  and  C_10
REMARK    2  A    between atoms: N_3  and  C_4
REMARK                            x       y       z     vdW  Elec       q    Type
REMARK                         _______ _______ _______ _____ _____    ______ ____
ROOT
ATOM      1  O   UNL     1       0.000  -1.650   0.000  0.00  0.00    -0.265 OA
ATOM      2  C   UNL     1       0.715  -1.238   0.000  0.00  0.00    +0.306 C 
ATOM      3  N   UNL     1       1.429  -1.650   0.000  0.00  0.00    -0.173 NA
ENDROOT
BRANCH   2   4
ATOM      4  C   UNL     1       0.715  -0.412   0.000  0.00  0.00    +0.231 C 
ATOM      5  O   UNL     1       1.429   0.000   0.000  0.00  0.00    -0.464 OA
ATOM      6  C   UNL     1       1.429   0.825   0.000  0.00  0.00    +0.253 C 
ATOM      7  C   UNL     1       0.715   1.238   0.000  0.00  0.00    +0.253 C 
ATOM      8  O   UNL     1       0.000   0.825   0.000  0.00  0.00    -0.465 OA
ATOM      9  C   UNL     1       0.000   0.000   0.000  0.00  0.00    +0.214 C 
ENDBRANCH   2   4
BRANCH   3  10
ATOM     10  C   UNL     1       1.429  -2.475   0.000  0.00  0.00    +0.077 A 
ATOM     11  C   UNL     1       0.715  -2.888   0.000  0.00  0.00    +0.037 A 
ATOM     12  C   UNL     1       0.715  -3.712   0.000  0.00  0.00    +0.100 A 
ATOM     13  N   UNL     1       1.429  -4.125   0.000  0.00  0.00    -0.242 NA
ATOM     14  C   UNL     1       2.143  -3.712   0.000  0.00  0.00    +0.100 A 
ATOM     15  C   UNL     1       2.143  -2.888   0.000  0.00  0.00    +0.037 A 
ENDBRANCH   3  10
TORSDOF 2
