REMARK  Name = 
REMARK  3 active torsions:
REMARK  status: ('A' for Active; 'I' for Inactive)
REMARK    1  A    between atoms: C_2  and  C_3
REMARK    2  A    between atoms: N_10  and  C_11
REMARK    3  A    between atoms: C_15  and  C_17
REMARK                            x       y       z     vdW  Elec       q    Type
REMARK                         _______ _______ _______ _____ _____    ______ ____
ROOT
ATOM      1  C   UNL     1       0.000   7.759   0.000  0.00  0.00    +0.067 A 
ATOM      2  N   UNL     1      -0.255   6.974   0.000  0.00  0.00    -0.227 NA
ATOM      3  C   UNL     1       0.412   6.489   0.000  0.00  0.00    +0.187 A 
ATOM      4  N   UNL     1       0.412   5.665   0.000  0.00  0.00    -0.136 NA
ATOM      5  C   UNL     1       1.127   5.252   0.000  0.00  0.00    +0.345 C 
ATOM      6  N   UNL     1       1.127   4.427   0.000  0.00  0.00    -0.188 NA
ATOM      7  O   UNL     1       1.841   5.665   0.000  0.00  0.00    -0.249 OA
ATOM      8  S   UNL     1       1.080   6.974   0.000  0.00  0.00    -0.049 S 
ATOM      9  C   UNL     1       0.825   7.759   0.000  0.00  0.00    +0.053 A 
ENDROOT
BRANCH   6  10
ATOM     10  C   UNL     1       1.841   4.014   0.000  0.00  0.00    +0.102 C 
ATOM     11  C   UNL     1       1.841   3.189   0.000  0.00  0.00    +0.051 C 
ATOM     12  C   UNL     1       2.556   2.777   0.000  0.00  0.00    +0.117 C 
ATOM     13  O   UNL     1       3.270   3.189   0.000  0.00  0.00    -0.356 OA
ATOM     14  C   UNL     1       3.270   4.014   0.000  0.00  0.00    +0.144 C 
ATOM     15  C   UNL     1       2.556   4.427   0.000  0.00  0.00    +0.054 C 
BRANCH  12  16
ATOM     16  C   UNL     1       2.556   1.952   0.000  0.00  0.00    +0.027 C 
ATOM     17  C   UNL     1       2.143   1.238   0.000  0.00  0.00    +0.002 C 
ATOM     18  C   UNL     1       2.968   1.238   0.000  0.00  0.00    +0.002 C 
ENDBRANCH  12  16
ENDBRANCH   6  10
BRANCH   1  20
ATOM     19  C   UNL     1      -0.149   9.180   0.000  0.00  0.00    +0.007 C 
ATOM     20  C   UNL     1      -0.485   8.427   0.000  0.00  0.00    +0.046 C 
ENDBRANCH   1  20
TORSDOF 3
