REMARK  Name = 
REMARK  1 active torsions:
REMARK  status: ('A' for Active; 'I' for Inactive)
REMARK    1  A    between atoms: N_8  and  C_9
REMARK                            x       y       z     vdW  Elec       q    Type
REMARK                         _______ _______ _______ _____ _____    ______ ____
ROOT
ATOM      1  C   UNL     1      -0.279  -2.045   0.000  0.00  0.00    +0.075 C 
ATOM      2  C   UNL     1      -0.279  -2.870   0.000  0.00  0.00    +0.156 A 
ATOM      3  O   UNL     1      -0.947  -3.355   0.000  0.00  0.00    -0.356 OA
ATOM      4  N   UNL     1      -0.692  -4.140   0.000  0.00  0.00    -0.060 NA
ATOM      5  C   UNL     1       0.133  -4.140   0.000  0.00  0.00    +0.197 A 
ATOM      6  N   UNL     1       0.618  -4.807   0.000  0.00  0.00    -0.139 NA
ATOM      7  C   UNL     1       1.439  -4.721   0.000  0.00  0.00    +0.345 C 
ATOM      8  N   UNL     1       1.924  -5.388   0.000  0.00  0.00    -0.187 NA
ATOM      9  O   UNL     1       1.774  -3.967   0.000  0.00  0.00    -0.249 OA
ATOM     10  C   UNL     1       0.388  -3.355   0.000  0.00  0.00    +0.075 A 
ENDROOT
BRANCH   8  11
ATOM     11  C   UNL     1       2.744  -5.302   0.000  0.00  0.00    +0.122 C 
ATOM     12  C   UNL     1       3.296  -5.915   0.000  0.00  0.00    +0.172 C 
ATOM     13  S   UNL     1       4.050  -5.580   0.000  0.00  0.00    -0.008 S 
ATOM     14  O   UNL     1       4.305  -6.364   0.000  0.00  0.00    -0.173 OA
ATOM     15  O   UNL     1       4.857  -5.408   0.000  0.00  0.00    -0.173 OA
ATOM     16  C   UNL     1       3.964  -4.759   0.000  0.00  0.00    +0.153 C 
ATOM     17  C   UNL     1       3.157  -4.588   0.000  0.00  0.00    +0.049 C 
ENDBRANCH   8  11
TORSDOF 1
