REMARK  Name = 
REMARK  4 active torsions:
REMARK  status: ('A' for Active; 'I' for Inactive)
REMARK    1  A    between atoms: C_9  and  C_11
REMARK    2  A    between atoms: C_11  and  C_12
REMARK    3  A    between atoms: C_12  and  N_13
REMARK    4  A    between atoms: N_16  and  C_17
REMARK                            x       y       z     vdW  Elec       q    Type
REMARK                         _______ _______ _______ _____ _____    ______ ____
ROOT
ATOM      1  C   UNL     1       2.143  -3.712   0.000  0.00  0.00    +0.109 C 
ENDROOT
BRANCH   1   9
ATOM      2  C   UNL     1       0.000  -1.650   0.000  0.00  0.00    +0.034 C 
ATOM      3  C   UNL     1       0.000  -2.475   0.000  0.00  0.00    +0.135 C 
ATOM      4  O   UNL     1      -0.715  -2.888   0.000  0.00  0.00    -0.355 OA
ATOM      5  C   UNL     1      -0.715  -3.712   0.000  0.00  0.00    +0.135 C 
ATOM      6  C   UNL     1      -1.429  -4.125   0.000  0.00  0.00    +0.034 C 
ATOM      7  C   UNL     1       0.000  -4.125   0.000  0.00  0.00    +0.123 C 
ATOM      8  N   UNL     1       0.715  -3.712   0.000  0.00  0.00    -0.275 N 
ATOM      9  C   UNL     1       1.429  -4.125   0.000  0.00  0.00    +0.228 C 
ATOM     10  O   UNL     1       1.429  -4.950   0.000  0.00  0.00    -0.275 OA
ATOM     11  C   UNL     1       0.715  -2.888   0.000  0.00  0.00    +0.123 C 
ENDBRANCH   1   9
BRANCH   1  12
ATOM     12  C   UNL     1       2.858  -4.125   0.000  0.00  0.00    +0.126 C 
BRANCH  12  13
ATOM     13  N   UNL     1       3.572  -3.712   0.000  0.00  0.00    -0.186 NA
ATOM     14  C   UNL     1       4.287  -4.125   0.000  0.00  0.00    +0.344 C 
ATOM     15  N   UNL     1       5.001  -3.712   0.000  0.00  0.00    -0.159 NA
ATOM     16  O   UNL     1       4.287  -4.950   0.000  0.00  0.00    -0.249 OA
BRANCH  15  17
ATOM     17  C   UNL     1       5.716  -4.125   0.000  0.00  0.00    +0.094 A 
ATOM     18  C   UNL     1       5.716  -4.950   0.000  0.00  0.00    +0.115 A 
ATOM     19  N   UNL     1       6.430  -5.362   0.000  0.00  0.00    -0.241 NA
ATOM     20  C   UNL     1       7.145  -4.950   0.000  0.00  0.00    +0.099 A 
ATOM     21  C   UNL     1       7.145  -4.125   0.000  0.00  0.00    +0.022 A 
ATOM     22  C   UNL     1       6.430  -3.712   0.000  0.00  0.00    +0.020 A 
ENDBRANCH  15  17
ENDBRANCH  12  13
ENDBRANCH   1  12
TORSDOF 4
