REMARK  Name = 
REMARK  5 active torsions:
REMARK  status: ('A' for Active; 'I' for Inactive)
REMARK    1  A    between atoms: O_2  and  C_3
REMARK    2  A    between atoms: C_3  and  C_4
REMARK    3  A    between atoms: C_4  and  N_5
REMARK    4  A    between atoms: C_7  and  C_12
REMARK    5  A    between atoms: N_14  and  C_15
REMARK                            x       y       z     vdW  Elec       q    Type
REMARK                         _______ _______ _______ _____ _____    ______ ____
ROOT
ATOM      1  N   UNL     1       0.699  -2.663   0.000  0.00  0.00    -0.214 N 
ATOM      2  C   UNL     1      -0.015  -3.076   0.000  0.00  0.00    +0.277 A 
ATOM      3  O   UNL     1      -0.730  -2.663   0.000  0.00  0.00    -0.266 OA
ATOM      4  C   UNL     1      -0.015  -3.901   0.000  0.00  0.00    +0.064 A 
ATOM      5  C   UNL     1       0.699  -4.314   0.000  0.00  0.00    +0.030 A 
ATOM      6  C   UNL     1       1.413  -3.901   0.000  0.00  0.00    +0.156 A 
ATOM      7  N   UNL     1       1.413  -3.076   0.000  0.00  0.00    -0.162 NA
ENDROOT
BRANCH   6   8
ATOM      8  C   UNL     1       2.128  -4.314   0.000  0.00  0.00    +0.285 C 
ATOM      9  N   UNL     1       2.842  -3.901   0.000  0.00  0.00    -0.193 NA
ATOM     10  O   UNL     1       2.128  -5.138   0.000  0.00  0.00    -0.267 OA
BRANCH   9  11
ATOM     11  C   UNL     1       3.557  -4.314   0.000  0.00  0.00    +0.173 C 
ATOM     12  C   UNL     1       3.495  -5.136   0.000  0.00  0.00    +0.261 C 
ATOM     13  O   UNL     1       2.727  -5.438   0.000  0.00  0.00    -0.271 OA
ATOM     14  N   UNL     1       4.100  -5.697   0.000  0.00  0.00    -0.204 NA
ATOM     15  C   UNL     1       4.916  -5.574   0.000  0.00  0.00    +0.115 C 
ATOM     16  C   UNL     1       5.328  -4.860   0.000  0.00  0.00    +0.024 C 
ATOM     17  C   UNL     1       5.027  -4.092   0.000  0.00  0.00    +0.004 C 
ATOM     18  C   UNL     1       4.239  -3.849   0.000  0.00  0.00    +0.031 C 
ENDBRANCH   9  11
ENDBRANCH   6   8
BRANCH   1  19
ATOM     19  C   UNL     1       0.699  -1.839   0.000  0.00  0.00    +0.163 C 
BRANCH  19  20
ATOM     20  C   UNL     1      -0.015  -1.426   0.000  0.00  0.00    +0.169 C 
BRANCH  20  22
ATOM     21  C   UNL     1      -0.730  -0.189   0.000  0.00  0.00    +0.174 C 
ATOM     22  O   UNL     1      -0.015  -0.601   0.000  0.00  0.00    -0.349 OA
ENDBRANCH  20  22
ENDBRANCH  19  20
ENDBRANCH   1  19
TORSDOF 5
