REMARK  Name = 
REMARK  2 active torsions:
REMARK  status: ('A' for Active; 'I' for Inactive)
REMARK    1  A    between atoms: N_3  and  C_4
REMARK    2  A    between atoms: C_7  and  C_10
REMARK                            x       y       z     vdW  Elec       q    Type
REMARK                         _______ _______ _______ _____ _____    ______ ____
ROOT
ATOM      1  C   UNL     1       2.858  -2.475   0.000  0.00  0.00    +0.097 C 
ATOM      2  C   UNL     1       2.143  -2.888   0.000  0.00  0.00    +0.022 C 
ATOM      3  C   UNL     1       2.143  -3.712   0.000  0.00  0.00    +0.011 C 
ATOM      4  C   UNL     1       2.858  -4.125   0.000  0.00  0.00    +0.077 C 
ATOM      5  C   UNL     1       3.572  -3.712   0.000  0.00  0.00    +0.011 C 
ATOM      6  C   UNL     1       3.572  -2.888   0.000  0.00  0.00    +0.022 C 
ENDROOT
BRANCH   1  16
ATOM      7  O   UNL     1       4.287  -1.650   0.000  0.00  0.00    -0.249 OA
ATOM      8  C   UNL     1       3.572  -1.238   0.000  0.00  0.00    +0.345 C 
ATOM      9  N   UNL     1       3.572  -0.412   0.000  0.00  0.00    -0.142 NA
ATOM     10  C   UNL     1       4.287   0.000   0.000  0.00  0.00    +0.156 A 
ATOM     11  N   UNL     1       5.001  -0.412   0.000  0.00  0.00    -0.227 NA
ATOM     12  C   UNL     1       5.716   0.000   0.000  0.00  0.00    +0.100 A 
ATOM     13  C   UNL     1       5.716   0.825   0.000  0.00  0.00    +0.021 A 
ATOM     14  C   UNL     1       5.001   1.238   0.000  0.00  0.00    +0.005 A 
ATOM     15  C   UNL     1       4.287   0.825   0.000  0.00  0.00    +0.036 A 
ATOM     16  N   UNL     1       2.858  -1.650   0.000  0.00  0.00    -0.189 NA
ENDBRANCH   1  16
BRANCH   4  17
ATOM     17  C   UNL     1       2.858  -4.950   0.000  0.00  0.00    +0.225 C 
ATOM     18  N   UNL     1       2.143  -5.362   0.000  0.00  0.00    -0.278 N 
ATOM     19  C   UNL     1       1.429  -4.950   0.000  0.00  0.00    +0.105 C 
ATOM     20  C   UNL     1       0.715  -5.362   0.000  0.00  0.00    +0.079 C 
ATOM     21  S   UNL     1       0.715  -6.188   0.000  0.00  0.00    -0.137 S 
ATOM     22  C   UNL     1       1.429  -6.600   0.000  0.00  0.00    +0.079 C 
ATOM     23  C   UNL     1       2.143  -6.188   0.000  0.00  0.00    +0.105 C 
ATOM     24  O   UNL     1       3.572  -5.362   0.000  0.00  0.00    -0.275 OA
ENDBRANCH   4  17
TORSDOF 2
