REMARK  Name = 
REMARK  4 active torsions:
REMARK  status: ('A' for Active; 'I' for Inactive)
REMARK    1  A    between atoms: C_2  and  C_12
REMARK    2  A    between atoms: N_3  and  C_4
REMARK    3  A    between atoms: C_4  and  C_5
REMARK    4  A    between atoms: C_5  and  C_6
REMARK                            x       y       z     vdW  Elec       q    Type
REMARK                         _______ _______ _______ _____ _____    ______ ____
ROOT
ATOM      1  O   UNL     1      -2.143   1.238   0.000  0.00  0.00    -0.273 OA
ATOM      2  C   UNL     1      -2.143   0.412   0.000  0.00  0.00    +0.241 C 
ATOM      3  N   UNL     1      -1.429   0.000   0.000  0.00  0.00    -0.205 NA
ENDROOT
BRANCH   2   4
ATOM      4  C   UNL     1      -2.858   0.000   0.000  0.00  0.00    +0.078 C 
ATOM      5  C   UNL     1      -2.858  -0.825   0.000  0.00  0.00    +0.009 C 
ATOM      6  C   UNL     1      -3.469  -0.234   0.000  0.00  0.00    +0.000 C 
ATOM      7  C   UNL     1      -4.287   0.000   0.000  0.00  0.00    +0.000 C 
ATOM      8  C   UNL     1      -4.287  -0.825   0.000  0.00  0.00    +0.000 C 
ATOM      9  C   UNL     1      -3.572  -1.238   0.000  0.00  0.00    +0.000 C 
ATOM     10  C   UNL     1      -3.572   0.412   0.000  0.00  0.00    +0.009 C 
ENDBRANCH   2   4
BRANCH   3  11
ATOM     11  C   UNL     1      -0.715   0.412   0.000  0.00  0.00    +0.120 C 
BRANCH  11  12
ATOM     12  C   UNL     1       0.000   0.000   0.000  0.00  0.00    +0.051 C 
BRANCH  12  13
ATOM     13  C   UNL     1       0.715   0.412   0.000  0.00  0.00    -0.001 A 
ATOM     14  C   UNL     1       1.429   0.000   0.000  0.00  0.00    +0.095 A 
ATOM     15  N   UNL     1       2.143   0.412   0.000  0.00  0.00    -0.243 NA
ATOM     16  C   UNL     1       2.143   1.238   0.000  0.00  0.00    +0.099 A 
ATOM     17  C   UNL     1       1.429   1.650   0.000  0.00  0.00    +0.020 A 
ATOM     18  C   UNL     1       0.715   1.238   0.000  0.00  0.00    -0.001 A 
ENDBRANCH  12  13
ENDBRANCH  11  12
ENDBRANCH   3  11
TORSDOF 4
