REMARK  Name = 
REMARK  2 active torsions:
REMARK  status: ('A' for Active; 'I' for Inactive)
REMARK    1  A    between atoms: C_7  and  N_10
REMARK    2  A    between atoms: N_13  and  C_14
REMARK                            x       y       z     vdW  Elec       q    Type
REMARK                         _______ _______ _______ _____ _____    ______ ____
ROOT
ATOM      1  N   UNL     1       0.000   8.004   0.000  0.00  0.00    -0.189 NA
ATOM      2  C   UNL     1       0.000   7.179   0.000  0.00  0.00    +0.343 C 
ATOM      3  N   UNL     1       0.715   6.766   0.000  0.00  0.00    -0.159 NA
ATOM      4  O   UNL     1      -0.715   6.766   0.000  0.00  0.00    -0.249 OA
ENDROOT
BRANCH   3   5
ATOM      5  C   UNL     1       0.715   5.941   0.000  0.00  0.00    +0.094 A 
ATOM      6  C   UNL     1       0.000   5.529   0.000  0.00  0.00    +0.117 A 
ATOM      7  N   UNL     1       0.000   4.704   0.000  0.00  0.00    -0.228 NA
ATOM      8  C   UNL     1       0.715   4.291   0.000  0.00  0.00    +0.132 A 
ATOM      9  N   UNL     1       0.715   3.466   0.000  0.00  0.00    -0.293 N 
ATOM     10  C   UNL     1       0.047   2.981   0.000  0.00  0.00    +0.092 C 
ATOM     11  C   UNL     1       0.302   2.196   0.000  0.00  0.00    +0.023 C 
ATOM     12  C   UNL     1       1.127   2.196   0.000  0.00  0.00    +0.023 C 
ATOM     13  C   UNL     1       1.382   2.981   0.000  0.00  0.00    +0.092 C 
ATOM     14  C   UNL     1       1.429   4.704   0.000  0.00  0.00    +0.036 A 
ATOM     15  C   UNL     1       1.429   5.529   0.000  0.00  0.00    +0.021 A 
ENDBRANCH   3   5
BRANCH   1  21
ATOM     16  C   UNL     1      -3.572   9.241   0.000  0.00  0.00    +0.095 C 
ATOM     17  C   UNL     1      -2.858   9.654   0.000  0.00  0.00    +0.226 C 
ATOM     18  N   UNL     1      -2.143   9.241   0.000  0.00  0.00    -0.279 N 
ATOM     19  C   UNL     1      -2.143   8.416   0.000  0.00  0.00    +0.095 C 
ATOM     20  C   UNL     1      -1.429   8.004   0.000  0.00  0.00    +0.043 C 
ATOM     21  C   UNL     1      -0.715   8.416   0.000  0.00  0.00    +0.100 C 
ATOM     22  C   UNL     1      -0.715   9.241   0.000  0.00  0.00    +0.043 C 
ATOM     23  C   UNL     1      -1.429   9.654   0.000  0.00  0.00    +0.095 C 
ATOM     24  O   UNL     1      -2.858  10.479   0.000  0.00  0.00    -0.275 OA
ENDBRANCH   1  21
TORSDOF 2
