REMARK  Name = 
REMARK  4 active torsions:
REMARK  status: ('A' for Active; 'I' for Inactive)
REMARK    1  A    between atoms: C_2  and  C_3
REMARK    2  A    between atoms: C_2  and  N_9
REMARK    3  A    between atoms: C_3  and  N_4
REMARK    4  A    between atoms: C_10  and  C_12
REMARK                            x       y       z     vdW  Elec       q    Type
REMARK                         _______ _______ _______ _____ _____    ______ ____
ROOT
ATOM      1  N   UNL     1       2.143  -2.888   0.000  0.00  0.00    -0.200 NA
ATOM      2  C   UNL     1       2.858  -2.475   0.000  0.00  0.00    +0.280 C 
ATOM      3  O   UNL     1       2.858  -1.650   0.000  0.00  0.00    -0.267 OA
ENDROOT
BRANCH   2   4
ATOM      4  C   UNL     1       3.572  -2.888   0.000  0.00  0.00    +0.132 C 
ATOM      5  C   UNL     1       3.572  -3.712   0.000  0.00  0.00    +0.062 C 
ATOM      6  C   UNL     1       4.287  -4.125   0.000  0.00  0.00    +0.094 C 
ATOM      7  C   UNL     1       5.001  -3.712   0.000  0.00  0.00    +0.245 C 
ATOM      8  O   UNL     1       5.716  -4.125   0.000  0.00  0.00    -0.273 OA
ATOM      9  N   UNL     1       5.001  -2.888   0.000  0.00  0.00    -0.179 N 
ATOM     10  C   UNL     1       5.716  -2.475   0.000  0.00  0.00    +0.143 C 
ATOM     11  N   UNL     1       4.287  -2.475   0.000  0.00  0.00    -0.175 NA
ENDBRANCH   2   4
BRANCH   1  13
ATOM     12  C   UNL     1       1.429  -1.650   0.000  0.00  0.00    +0.026 C 
ATOM     13  C   UNL     1       1.429  -2.475   0.000  0.00  0.00    +0.118 C 
BRANCH  13  14
ATOM     14  C   UNL     1       0.715  -2.888   0.000  0.00  0.00    +0.129 C 
BRANCH  14  15
ATOM     15  N   UNL     1       0.000  -2.475   0.000  0.00  0.00    -0.306 N 
ATOM     16  C   UNL     1      -0.086  -1.655   0.000  0.00  0.00    +0.179 A 
ATOM     17  N   UNL     1      -0.893  -1.483   0.000  0.00  0.00    -0.222 NA
ATOM     18  C   UNL     1      -1.306  -2.197   0.000  0.00  0.00    +0.119 A 
ATOM     19  C   UNL     1      -0.754  -2.811   0.000  0.00  0.00    +0.098 A 
ENDBRANCH  14  15
ENDBRANCH  13  14
ENDBRANCH   1  13
TORSDOF 4
