REMARK  Name = 
REMARK  3 active torsions:
REMARK  status: ('A' for Active; 'I' for Inactive)
REMARK    1  A    between atoms: N_3  and  C_4
REMARK    2  A    between atoms: N_11  and  C_12
REMARK    3  A    between atoms: C_17  and  N_18
REMARK                            x       y       z     vdW  Elec       q    Type
REMARK                         _______ _______ _______ _____ _____    ______ ____
ROOT
ATOM      1  O   UNL     1       0.731  -3.634   0.000  0.00  0.00    -0.249 OA
ATOM      2  C   UNL     1       0.396  -4.387   0.000  0.00  0.00    +0.344 C 
ATOM      3  N   UNL     1       0.881  -5.055   0.000  0.00  0.00    -0.158 NA
ATOM      4  N   UNL     1      -0.425  -4.474   0.000  0.00  0.00    -0.187 NA
ENDROOT
BRANCH   4   5
ATOM      5  C   UNL     1      -0.910  -3.806   0.000  0.00  0.00    +0.122 C 
ATOM      6  C   UNL     1      -0.655  -3.022   0.000  0.00  0.00    +0.172 C 
ATOM      7  S   UNL     1      -1.322  -2.537   0.000  0.00  0.00    -0.008 S 
ATOM      8  O   UNL     1      -0.770  -1.923   0.000  0.00  0.00    -0.173 OA
ATOM      9  O   UNL     1      -1.874  -1.923   0.000  0.00  0.00    -0.173 OA
ATOM     10  C   UNL     1      -1.990  -3.022   0.000  0.00  0.00    +0.153 C 
ATOM     11  C   UNL     1      -1.735  -3.806   0.000  0.00  0.00    +0.049 C 
ENDBRANCH   4   5
BRANCH   3  12
ATOM     12  C   UNL     1       1.701  -4.969   0.000  0.00  0.00    +0.106 A 
ATOM     13  C   UNL     1       2.186  -5.636   0.000  0.00  0.00    +0.147 A 
ATOM     14  N   UNL     1       3.006  -5.550   0.000  0.00  0.00    -0.228 NA
ATOM     15  C   UNL     1       3.342  -4.796   0.000  0.00  0.00    +0.100 A 
ATOM     16  C   UNL     1       2.857  -4.129   0.000  0.00  0.00    +0.022 A 
ATOM     17  C   UNL     1       2.037  -4.215   0.000  0.00  0.00    +0.021 A 
BRANCH  13  18
ATOM     18  N   UNL     1       1.850  -6.390   0.000  0.00  0.00    -0.292 N 
ATOM     19  C   UNL     1       1.044  -6.561   0.000  0.00  0.00    +0.092 C 
ATOM     20  C   UNL     1       0.957  -7.382   0.000  0.00  0.00    +0.023 C 
ATOM     21  C   UNL     1       1.711  -7.717   0.000  0.00  0.00    +0.023 C 
ATOM     22  C   UNL     1       2.263  -7.104   0.000  0.00  0.00    +0.092 C 
ENDBRANCH  13  18
ENDBRANCH   3  12
TORSDOF 3
