REMARK  Name = 
REMARK  6 active torsions:
REMARK  status: ('A' for Active; 'I' for Inactive)
REMARK    1  A    between atoms: C_2  and  C_3
REMARK    2  A    between atoms: C_3  and  O_4
REMARK    3  A    between atoms: O_4  and  C_5
REMARK    4  A    between atoms: C_5  and  C_6
REMARK    5  A    between atoms: C_6  and  N_7
REMARK    6  A    between atoms: N_7  and  C_8
REMARK                            x       y       z     vdW  Elec       q    Type
REMARK                         _______ _______ _______ _____ _____    ______ ____
ROOT
ATOM      1  C   UNL     1      -0.997   0.363   0.000  0.00  0.00    +0.113 C 
ATOM      2  C   UNL     1      -1.711  -0.050   0.000  0.00  0.00    +0.029 C 
ATOM      3  C   UNL     1      -1.711  -0.875   0.000  0.00  0.00    +0.002 C 
ATOM      4  C   UNL     1      -0.997  -1.287   0.000  0.00  0.00    +0.000 C 
ATOM      5  C   UNL     1      -0.282  -0.875   0.000  0.00  0.00    +0.002 C 
ATOM      6  C   UNL     1      -0.282  -0.050   0.000  0.00  0.00    +0.029 C 
ENDROOT
BRANCH   1   7
ATOM      7  O   UNL     1      -0.466   0.995   0.000  0.00  0.00    -0.357 OA
BRANCH   7   8
ATOM      8  C   UNL     1      -0.749   1.770   0.000  0.00  0.00    +0.142 C 
BRANCH   8  10
ATOM      9  C   UNL     1      -0.500   3.177   0.000  0.00  0.00    +0.003 C 
ATOM     10  C   UNL     1      -0.218   2.402   0.000  0.00  0.00    +0.032 C 
ENDBRANCH   8  10
ENDBRANCH   7   8
ENDBRANCH   1   7
BRANCH   1  11
ATOM     11  C   UNL     1      -1.527   0.995   0.000  0.00  0.00    +0.139 C 
BRANCH  11  12
ATOM     12  N   UNL     1      -2.339   0.852   0.000  0.00  0.00    -0.232 NA
BRANCH  12  13
ATOM     13  C   UNL     1      -2.622   0.076   0.000  0.00  0.00    +0.102 A 
ATOM     14  C   UNL     1      -3.434  -0.067   0.000  0.00  0.00    +0.133 A 
ATOM     15 CL   UNL     1      -3.964   0.565   0.000  0.00  0.00    -0.076 Cl
ATOM     16  C   UNL     1      -3.716  -0.842   0.000  0.00  0.00    +0.309 A 
ATOM     17  O   UNL     1      -4.529  -0.986   0.000  0.00  0.00    -0.263 OA
ATOM     18  N   UNL     1      -3.186  -1.474   0.000  0.00  0.00    -0.105 NA
ATOM     19  N   UNL     1      -2.373  -1.331   0.000  0.00  0.00    -0.142 NA
ATOM     20  C   UNL     1      -2.091  -0.556   0.000  0.00  0.00    +0.139 A 
ENDBRANCH  12  13
ENDBRANCH  11  12
ENDBRANCH   1  11
TORSDOF 6
