REMARK  Name = 
REMARK  4 active torsions:
REMARK  status: ('A' for Active; 'I' for Inactive)
REMARK    1  A    between atoms: N_5  and  C_6
REMARK    2  A    between atoms: C_6  and  C_7
REMARK    3  A    between atoms: N_9  and  C_10
REMARK    4  A    between atoms: C_10  and  C_11
REMARK                            x       y       z     vdW  Elec       q    Type
REMARK                         _______ _______ _______ _____ _____    ______ ____
ROOT
ATOM      1  C   UNL     1       3.878  -3.364   0.000  0.00  0.00    +0.267 C 
ATOM      2  N   UNL     1       4.592  -2.952   0.000  0.00  0.00    -0.194 NA
ATOM      3  O   UNL     1       3.878  -4.189   0.000  0.00  0.00    -0.271 OA
ENDROOT
BRANCH   1   4
ATOM      4  C   UNL     1       3.163  -2.952   0.000  0.00  0.00    +0.214 C 
BRANCH   4   8
ATOM      5 CL   UNL     1       1.220  -5.110   0.000  0.00  0.00    -0.079 Cl
ATOM      6  C   UNL     1       1.556  -4.356   0.000  0.00  0.00    +0.097 A 
ATOM      7  C   UNL     1       2.363  -4.185   0.000  0.00  0.00    +0.109 A 
ATOM      8  N   UNL     1       2.449  -3.364   0.000  0.00  0.00    -0.239 N 
ATOM      9  N   UNL     1       1.695  -3.029   0.000  0.00  0.00    -0.166 NA
ATOM     10  C   UNL     1       1.143  -3.642   0.000  0.00  0.00    +0.133 A 
ENDBRANCH   4   8
ENDBRANCH   1   4
BRANCH   2  11
ATOM     11  C   UNL     1       5.307  -3.364   0.000  0.00  0.00    +0.200 C 
BRANCH  11  12
ATOM     12  C   UNL     1       6.021  -2.952   0.000  0.00  0.00    +0.248 C 
ATOM     13  N   UNL     1       6.736  -3.364   0.000  0.00  0.00    -0.278 N 
ATOM     14  C   UNL     1       6.822  -4.185   0.000  0.00  0.00    +0.094 C 
ATOM     15  C   UNL     1       7.629  -4.356   0.000  0.00  0.00    +0.023 C 
ATOM     16  C   UNL     1       8.041  -3.642   0.000  0.00  0.00    +0.023 C 
ATOM     17  C   UNL     1       7.489  -3.029   0.000  0.00  0.00    +0.094 C 
ATOM     18  O   UNL     1       6.021  -2.127   0.000  0.00  0.00    -0.273 OA
ENDBRANCH  11  12
ENDBRANCH   2  11
TORSDOF 4
