REMARK  Name = 
REMARK  4 active torsions:
REMARK  status: ('A' for Active; 'I' for Inactive)
REMARK    1  A    between atoms: C_2  and  N_3
REMARK    2  A    between atoms: N_3  and  C_4
REMARK    3  A    between atoms: C_9  and  N_10
REMARK    4  A    between atoms: N_13  and  C_14
REMARK                            x       y       z     vdW  Elec       q    Type
REMARK                         _______ _______ _______ _____ _____    ______ ____
ROOT
ATOM      1  N   UNL     1      -1.618  -1.608   0.000  0.00  0.00    -0.293 N 
ATOM      2  C   UNL     1      -1.282  -0.854   0.000  0.00  0.00    +0.132 A 
ATOM      3  N   UNL     1      -0.462  -0.768   0.000  0.00  0.00    -0.228 NA
ATOM      4  C   UNL     1      -0.126  -0.014   0.000  0.00  0.00    +0.117 A 
ATOM      5  C   UNL     1      -0.611   0.653   0.000  0.00  0.00    +0.094 A 
ATOM      6  C   UNL     1      -1.431   0.567   0.000  0.00  0.00    +0.021 A 
ATOM      7  C   UNL     1      -1.767  -0.186   0.000  0.00  0.00    +0.036 A 
ENDROOT
BRANCH   5   8
ATOM      8  N   UNL     1      -0.275   1.407   0.000  0.00  0.00    -0.159 NA
ATOM      9  C   UNL     1      -0.760   2.075   0.000  0.00  0.00    +0.344 C 
ATOM     10  N   UNL     1      -0.425   2.828   0.000  0.00  0.00    -0.187 NA
ATOM     11  O   UNL     1      -1.581   1.988   0.000  0.00  0.00    -0.249 OA
BRANCH  10  12
ATOM     12  C   UNL     1      -0.910   3.496   0.000  0.00  0.00    +0.122 C 
ATOM     13  C   UNL     1      -0.655   4.280   0.000  0.00  0.00    +0.172 C 
ATOM     14  S   UNL     1      -1.322   4.765   0.000  0.00  0.00    -0.008 S 
ATOM     15  O   UNL     1      -0.770   5.378   0.000  0.00  0.00    -0.173 OA
ATOM     16  O   UNL     1      -1.874   5.378   0.000  0.00  0.00    -0.173 OA
ATOM     17  C   UNL     1      -1.990   4.280   0.000  0.00  0.00    +0.153 C 
ATOM     18  C   UNL     1      -1.735   3.496   0.000  0.00  0.00    +0.049 C 
ENDBRANCH  10  12
ENDBRANCH   5   8
BRANCH   1  20
ATOM     19  C   UNL     1      -1.468  -3.029   0.000  0.00  0.00    +0.023 C 
ATOM     20  C   UNL     1      -1.133  -2.275   0.000  0.00  0.00    +0.092 C 
ENDBRANCH   1  20
BRANCH   1  21
ATOM     21  C   UNL     1      -2.438  -1.694   0.000  0.00  0.00    +0.092 C 
ATOM     22  C   UNL     1      -2.923  -1.026   0.000  0.00  0.00    +0.023 C 
ENDBRANCH   1  21
TORSDOF 4
