REMARK  Name = 
REMARK  4 active torsions:
REMARK  status: ('A' for Active; 'I' for Inactive)
REMARK    1  A    between atoms: N_2  and  C_12
REMARK    2  A    between atoms: C_11  and  C_17
REMARK    3  A    between atoms: C_12  and  C_14
REMARK    4  A    between atoms: C_15  and  C_17
REMARK                            x       y       z     vdW  Elec       q    Type
REMARK                         _______ _______ _______ _____ _____    ______ ____
ROOT
ATOM      1  C   UNL     1       1.924  -0.284   0.000  0.00  0.00    +0.149 A 
ATOM      2  C   UNL     1       2.642   0.129   0.000  0.00  0.00    +0.154 A 
ATOM      3  N   UNL     1       3.356  -0.284   0.000  0.00  0.00    -0.207 NA
ATOM      4  C   UNL     1       3.356  -1.110   0.000  0.00  0.00    +0.201 A 
ATOM      5  N   UNL     1       2.642  -1.523   0.000  0.00  0.00    -0.205 NA
ATOM      6  N   UNL     1       2.642   0.956   0.000  0.00  0.00    -0.288 N 
ATOM      7  C   UNL     1       3.356   1.369   0.000  0.00  0.00    +0.114 C 
ATOM      8  C   UNL     1       3.356   2.195   0.000  0.00  0.00    +0.115 C 
ATOM      9  N   UNL     1       2.642   2.609   0.000  0.00  0.00    -0.275 N 
ATOM     10  C   UNL     1       1.924   2.195   0.000  0.00  0.00    +0.115 C 
ATOM     11  C   UNL     1       2.642   3.435   0.000  0.00  0.00    +0.241 C 
ATOM     12  O   UNL     1       1.924   3.848   0.000  0.00  0.00    -0.274 OA
ATOM     13  C   UNL     1       1.924   1.369   0.000  0.00  0.00    +0.114 C 
ATOM     14  N   UNL     1       1.139  -0.029   0.000  0.00  0.00    -0.219 NA
ATOM     15  C   UNL     1       0.651  -0.697   0.000  0.00  0.00    +0.180 A 
ATOM     16  N   UNL     1       1.139  -1.365   0.000  0.00  0.00    -0.292 N 
ATOM     17  C   UNL     1       1.924  -1.110   0.000  0.00  0.00    +0.167 A 
ENDROOT
BRANCH  11  18
ATOM     18  C   UNL     1       3.356   3.848   0.000  0.00  0.00    +0.190 C 
BRANCH  18  19
ATOM     19  C   UNL     1       3.356   4.670   0.000  0.00  0.00    +0.083 C 
ATOM     20  N   UNL     1       3.356   5.497   0.000  0.00  0.00    -0.195 NA
ENDBRANCH  18  19
ENDBRANCH  11  18
BRANCH  16  21
ATOM     21  C   UNL     1       0.885  -2.154   0.000  0.00  0.00    +0.142 C 
BRANCH  21  22
ATOM     22  C   UNL     1       1.436  -2.767   0.000  0.00  0.00    +0.177 C 
ATOM     23  C   UNL     1       0.768  -3.251   0.000  0.00  0.00    +0.174 C 
ATOM     24  O   UNL     1       1.022  -4.036   0.000  0.00  0.00    -0.351 OA
ATOM     25  C   UNL     1       1.849  -4.036   0.000  0.00  0.00    +0.145 C 
ATOM     26  O   UNL     1       1.991  -2.154   0.000  0.00  0.00    -0.221 OA
ATOM     27  C   UNL     1       2.103  -3.251   0.000  0.00  0.00    +0.067 C 
ENDBRANCH  21  22
ENDBRANCH  16  21
TORSDOF 4
