REMARK  Name = 
REMARK  6 active torsions:
REMARK  status: ('A' for Active; 'I' for Inactive)
REMARK    1  A    between atoms: N_2  and  C_3
REMARK    2  A    between atoms: N_2  and  C_18
REMARK    3  A    between atoms: C_3  and  C_4
REMARK    4  A    between atoms: C_4  and  C_6
REMARK    5  A    between atoms: C_6  and  N_7
REMARK    6  A    between atoms: C_18  and  C_19
REMARK                            x       y       z     vdW  Elec       q    Type
REMARK                         _______ _______ _______ _____ _____    ______ ____
ROOT
ATOM      1  C   UNL     1       3.563  -0.793   0.000  0.00  0.00    +0.190 C 
ATOM      2  O   UNL     1       3.563  -1.618   0.000  0.00  0.00    -0.220 OA
ENDROOT
BRANCH   1   3
ATOM      3  C   UNL     1       2.849  -0.381   0.000  0.00  0.00    +0.142 C 
BRANCH   3   4
ATOM      4  N   UNL     1       2.135  -0.793   0.000  0.00  0.00    -0.306 N 
ATOM      5  C   UNL     1       1.381  -0.457   0.000  0.00  0.00    +0.079 A 
ATOM      6  C   UNL     1       0.829  -1.071   0.000  0.00  0.00    +0.098 A 
ATOM      7  C   UNL     1       0.022  -0.899   0.000  0.00  0.00    +0.016 A 
ATOM      8  C   UNL     1      -0.233  -0.114   0.000  0.00  0.00    -0.024 A 
ATOM      9  C   UNL     1       0.319   0.499   0.000  0.00  0.00    -0.024 A 
ATOM     10  C   UNL     1       0.064   1.283   0.000  0.00  0.00    +0.031 C 
ATOM     11  C   UNL     1      -1.040   0.057   0.000  0.00  0.00    +0.031 C 
ATOM     12  N   UNL     1       1.241  -1.785   0.000  0.00  0.00    -0.224 NA
ATOM     13  C   UNL     1       1.126   0.327   0.000  0.00  0.00    +0.014 A 
ATOM     14  C   UNL     1       2.048  -1.613   0.000  0.00  0.00    +0.179 A 
ENDBRANCH   3   4
ENDBRANCH   1   3
BRANCH   1  15
ATOM     15  C   UNL     1       4.278  -0.381   0.000  0.00  0.00    +0.108 C 
BRANCH  15  17
ATOM     16  C   UNL     1       4.992  -1.618   0.000  0.00  0.00    +0.090 C 
ATOM     17  N   UNL     1       4.992  -0.793   0.000  0.00  0.00    -0.265 NA
BRANCH  17  18
ATOM     18  C   UNL     1       5.707  -0.381   0.000  0.00  0.00    +0.103 C 
BRANCH  18  19
ATOM     19  C   UNL     1       6.421  -0.793   0.000  0.00  0.00    +0.043 A 
ATOM     20  C   UNL     1       6.508  -1.613   0.000  0.00  0.00    +0.152 A 
ATOM     21  C   UNL     1       5.894  -2.166   0.000  0.00  0.00    +0.075 C 
ATOM     22  O   UNL     1       7.315  -1.785   0.000  0.00  0.00    -0.358 OA
ATOM     23  N   UNL     1       7.727  -1.071   0.000  0.00  0.00    -0.082 NA
ATOM     24  C   UNL     1       7.175  -0.457   0.000  0.00  0.00    +0.098 A 
ATOM     25  C   UNL     1       7.347   0.349   0.000  0.00  0.00    +0.055 C 
ENDBRANCH  18  19
ENDBRANCH  17  18
ENDBRANCH  15  17
ENDBRANCH   1  15
TORSDOF 6
