REMARK  Name = 
REMARK  5 active torsions:
REMARK  status: ('A' for Active; 'I' for Inactive)
REMARK    1  A    between atoms: N_7  and  C_8
REMARK    2  A    between atoms: C_8  and  C_9
REMARK    3  A    between atoms: C_9  and  N_10
REMARK    4  A    between atoms: C_11  and  C_13
REMARK    5  A    between atoms: C_13  and  N_14
REMARK                            x       y       z     vdW  Elec       q    Type
REMARK                         _______ _______ _______ _____ _____    ______ ____
ROOT
ATOM      1  N   UNL     1       3.572  -0.412   0.000  0.00  0.00    -0.202 NA
ATOM      2  C   UNL     1       4.287  -0.825   0.000  0.00  0.00    +0.266 C 
ATOM      3  O   UNL     1       4.287  -1.650   0.000  0.00  0.00    -0.271 OA
ENDROOT
BRANCH   1   4
ATOM      4  C   UNL     1       2.858  -0.825   0.000  0.00  0.00    +0.132 C 
BRANCH   4   5
ATOM      5  C   UNL     1       2.143  -0.412   0.000  0.00  0.00    +0.096 C 
BRANCH   5   8
ATOM      6  C   UNL     1       2.143  -2.062   0.000  0.00  0.00    +0.017 C 
ATOM      7  C   UNL     1       1.429  -1.650   0.000  0.00  0.00    +0.058 C 
ATOM      8  N   UNL     1       1.429  -0.825   0.000  0.00  0.00    -0.272 NA
ATOM      9  C   UNL     1       0.715  -0.412   0.000  0.00  0.00    +0.072 C 
ATOM     10  C   UNL     1       0.000  -0.825   0.000  0.00  0.00    +0.017 C 
ATOM     11  C   UNL     1       0.000  -1.650   0.000  0.00  0.00    +0.003 C 
ATOM     12  C   UNL     1       0.715  -2.062   0.000  0.00  0.00    +0.016 C 
ENDBRANCH   5   8
ENDBRANCH   4   5
ENDBRANCH   1   4
BRANCH   2  13
ATOM     13  C   UNL     1       5.001  -0.412   0.000  0.00  0.00    +0.213 C 
BRANCH  13  14
ATOM     14  N   UNL     1       5.716  -0.825   0.000  0.00  0.00    -0.246 N 
ATOM     15  C   UNL     1       5.802  -1.645   0.000  0.00  0.00    +0.058 A 
ATOM     16  C   UNL     1       5.189  -2.197   0.000  0.00  0.00    +0.052 C 
ATOM     17  C   UNL     1       6.609  -1.817   0.000  0.00  0.00    +0.031 A 
ATOM     18  C   UNL     1       7.021  -1.103   0.000  0.00  0.00    +0.080 A 
ATOM     19  C   UNL     1       7.842  -1.016   0.000  0.00  0.00    +0.054 C 
ATOM     20  N   UNL     1       6.469  -0.489   0.000  0.00  0.00    -0.174 NA
ENDBRANCH  13  14
ENDBRANCH   2  13
TORSDOF 5
