REMARK  Name = 
REMARK  5 active torsions:
REMARK  status: ('A' for Active; 'I' for Inactive)
REMARK    1  A    between atoms: C_5  and  N_6
REMARK    2  A    between atoms: C_7  and  C_9
REMARK    3  A    between atoms: C_9  and  O_10
REMARK    4  A    between atoms: O_10  and  C_11
REMARK    5  A    between atoms: C_11  and  C_12
REMARK                            x       y       z     vdW  Elec       q    Type
REMARK                         _______ _______ _______ _____ _____    ______ ____
ROOT
ATOM      1  N   UNL     1       0.715   2.062   0.000  0.00  0.00    -0.158 NA
ATOM      2  C   UNL     1       1.429   1.650   0.000  0.00  0.00    +0.277 C 
ATOM      3  O   UNL     1       1.429   0.825   0.000  0.00  0.00    -0.270 OA
ENDROOT
BRANCH   1   9
ATOM      4 CL   UNL     1      -2.143   0.412   0.000  0.00  0.00    -0.080 Cl
ATOM      5  C   UNL     1      -1.429   0.825   0.000  0.00  0.00    +0.087 A 
ATOM      6  C   UNL     1      -0.715   0.412   0.000  0.00  0.00    +0.073 A 
ATOM      7 CL   UNL     1      -0.715  -0.412   0.000  0.00  0.00    -0.081 Cl
ATOM      8  C   UNL     1       0.000   0.825   0.000  0.00  0.00    +0.048 A 
ATOM      9  C   UNL     1       0.000   1.650   0.000  0.00  0.00    +0.155 A 
ATOM     10  N   UNL     1      -0.715   2.062   0.000  0.00  0.00    -0.226 NA
ATOM     11  C   UNL     1      -1.429   1.650   0.000  0.00  0.00    +0.113 A 
ENDBRANCH   1   9
BRANCH   2  12
ATOM     12  C   UNL     1       2.143   2.062   0.000  0.00  0.00    +0.229 C 
BRANCH  12  13
ATOM     13  O   UNL     1       2.858   1.650   0.000  0.00  0.00    -0.342 OA
BRANCH  13  14
ATOM     14  C   UNL     1       3.572   2.062   0.000  0.00  0.00    +0.172 C 
BRANCH  14  15
ATOM     15  C   UNL     1       4.287   1.650   0.000  0.00  0.00    +0.145 C 
ATOM     16  O   UNL     1       4.373   0.830   0.000  0.00  0.00    -0.354 OA
ATOM     17  C   UNL     1       5.180   0.658   0.000  0.00  0.00    +0.142 C 
ATOM     18  C   UNL     1       5.593   1.373   0.000  0.00  0.00    +0.035 C 
ATOM     19  C   UNL     1       5.040   1.986   0.000  0.00  0.00    +0.035 C 
ENDBRANCH  14  15
ENDBRANCH  13  14
ENDBRANCH  12  13
ENDBRANCH   2  12
TORSDOF 5
