REMARK  Name = 
REMARK  4 active torsions:
REMARK  status: ('A' for Active; 'I' for Inactive)
REMARK    1  A    between atoms: N_3  and  C_4
REMARK    2  A    between atoms: C_4  and  C_5
REMARK    3  A    between atoms: C_5  and  N_6
REMARK    4  A    between atoms: N_13  and  C_14
REMARK                            x       y       z     vdW  Elec       q    Type
REMARK                         _______ _______ _______ _____ _____    ______ ____
ROOT
ATOM      1  O   UNL     1       2.605  -2.556   0.000  0.00  0.00    -0.249 OA
ATOM      2  C   UNL     1       2.605  -1.731   0.000  0.00  0.00    +0.344 C 
ATOM      3  N   UNL     1       3.319  -1.319   0.000  0.00  0.00    -0.159 NA
ATOM      4  N   UNL     1       1.890  -1.319   0.000  0.00  0.00    -0.185 NA
ENDROOT
BRANCH   3   5
ATOM      5  C   UNL     1       4.034  -1.731   0.000  0.00  0.00    +0.094 A 
ATOM      6  C   UNL     1       4.034  -2.556   0.000  0.00  0.00    +0.117 A 
ATOM      7  N   UNL     1       4.748  -2.969   0.000  0.00  0.00    -0.228 NA
ATOM      8  C   UNL     1       5.463  -2.556   0.000  0.00  0.00    +0.132 A 
ATOM      9  N   UNL     1       6.177  -2.969   0.000  0.00  0.00    -0.288 N 
ATOM     10  C   UNL     1       6.177  -3.794   0.000  0.00  0.00    +0.124 C 
ATOM     11  C   UNL     1       6.892  -4.206   0.000  0.00  0.00    +0.164 C 
ATOM     12  O   UNL     1       7.606  -3.794   0.000  0.00  0.00    -0.350 OA
ATOM     13  C   UNL     1       7.606  -2.969   0.000  0.00  0.00    +0.164 C 
ATOM     14  C   UNL     1       6.892  -2.556   0.000  0.00  0.00    +0.124 C 
ATOM     15  C   UNL     1       5.463  -1.731   0.000  0.00  0.00    +0.036 A 
ATOM     16  C   UNL     1       4.748  -1.319   0.000  0.00  0.00    +0.021 A 
ENDBRANCH   3   5
BRANCH   4  17
ATOM     17  C   UNL     1       1.176  -1.731   0.000  0.00  0.00    +0.134 C 
BRANCH  17  18
ATOM     18  C   UNL     1       0.461  -1.319   0.000  0.00  0.00    +0.096 C 
BRANCH  18  19
ATOM     19  N   UNL     1      -0.253  -1.731   0.000  0.00  0.00    -0.271 NA
ATOM     20  C   UNL     1      -0.935  -1.266   0.000  0.00  0.00    +0.072 C 
ATOM     21  C   UNL     1      -1.723  -1.510   0.000  0.00  0.00    +0.017 C 
ATOM     22  C   UNL     1      -2.024  -2.278   0.000  0.00  0.00    +0.001 C 
ATOM     23  C   UNL     1      -1.612  -2.992   0.000  0.00  0.00    +0.001 C 
ATOM     24  C   UNL     1      -0.796  -3.115   0.000  0.00  0.00    +0.017 C 
ATOM     25  C   UNL     1      -0.191  -2.554   0.000  0.00  0.00    +0.072 C 
ENDBRANCH  18  19
ENDBRANCH  17  18
ENDBRANCH   4  17
TORSDOF 4
