REMARK  Name = 
REMARK  5 active torsions:
REMARK  status: ('A' for Active; 'I' for Inactive)
REMARK    1  A    between atoms: C_2  and  N_3
REMARK    2  A    between atoms: C_2  and  C_9
REMARK    3  A    between atoms: N_3  and  C_4
REMARK    4  A    between atoms: C_4  and  C_5
REMARK    5  A    between atoms: C_9  and  N_11
REMARK                            x       y       z     vdW  Elec       q    Type
REMARK                         _______ _______ _______ _____ _____    ______ ____
ROOT
ATOM      1  C   UNL     1      -0.861   1.939   0.000  0.00  0.00    +0.021 C 
ATOM      2  C   UNL     1      -0.147   2.352   0.000  0.00  0.00    +0.095 C 
ENDROOT
BRANCH   2   3
ATOM      3  C   UNL     1       0.568   1.939   0.000  0.00  0.00    +0.121 C 
ATOM      4  C   UNL     1       1.282   2.352   0.000  0.00  0.00    +0.028 C 
BRANCH   3   5
ATOM      5  N   UNL     1       0.568   1.114   0.000  0.00  0.00    -0.250 N 
ATOM      6  N   UNL     1      -0.100   0.629   0.000  0.00  0.00    -0.168 NA
ATOM      7  C   UNL     1       0.155  -0.155   0.000  0.00  0.00    +0.122 A 
ATOM      8  C   UNL     1       0.980  -0.155   0.000  0.00  0.00    +0.043 A 
ATOM      9  C   UNL     1       1.235   0.629   0.000  0.00  0.00    +0.097 A 
ENDBRANCH   3   5
ENDBRANCH   2   3
BRANCH   2  10
ATOM     10  N   UNL     1      -0.147   3.177   0.000  0.00  0.00    -0.215 NA
BRANCH  10  11
ATOM     11  C   UNL     1      -0.861   3.589   0.000  0.00  0.00    +0.119 C 
BRANCH  11  12
ATOM     12  C   UNL     1      -0.861   4.414   0.000  0.00  0.00    +0.143 C 
ATOM     13  O   UNL     1      -0.036   4.414   0.000  0.00  0.00    -0.224 OA
ATOM     14  C   UNL     1      -1.686   4.414   0.000  0.00  0.00    +0.034 C 
ATOM     15  C   UNL     1      -0.861   5.239   0.000  0.00  0.00    +0.034 C 
ENDBRANCH  11  12
ENDBRANCH  10  11
ENDBRANCH   2  10
TORSDOF 5
