REMARK  Name = 
REMARK  7 active torsions:
REMARK  status: ('A' for Active; 'I' for Inactive)
REMARK    1  A    between atoms: C_2  and  C_4
REMARK    2  A    between atoms: C_4  and  C_6
REMARK    3  A    between atoms: C_6  and  C_7
REMARK    4  A    between atoms: C_7  and  N_8
REMARK    5  A    between atoms: N_8  and  C_9
REMARK    6  A    between atoms: C_9  and  C_11
REMARK    7  A    between atoms: C_11  and  C_12
REMARK                            x       y       z     vdW  Elec       q    Type
REMARK                         _______ _______ _______ _____ _____    ______ ____
ROOT
ATOM      1  N   UNL     1       1.429  -2.475   0.000  0.00  0.00    -0.219 NA
ENDROOT
BRANCH   1   2
ATOM      2  C   UNL     1       2.143  -2.888   0.000  0.00  0.00    +0.077 C 
ATOM      3  C   UNL     1       2.143  -3.712   0.000  0.00  0.00    +0.019 C 
BRANCH   2   4
ATOM      4  C   UNL     1       2.858  -2.475   0.000  0.00  0.00    +0.044 C 
BRANCH   4   5
ATOM      5  C   UNL     1       3.572  -2.888   0.000  0.00  0.00    -0.018 A 
ATOM      6  C   UNL     1       3.572  -3.712   0.000  0.00  0.00    +0.016 A 
ATOM      7  C   UNL     1       4.287  -4.125   0.000  0.00  0.00    +0.099 A 
ATOM      8  N   UNL     1       5.001  -3.712   0.000  0.00  0.00    -0.242 NA
ATOM      9  C   UNL     1       5.001  -2.888   0.000  0.00  0.00    +0.099 A 
ATOM     10  C   UNL     1       4.287  -2.475   0.000  0.00  0.00    +0.016 A 
ENDBRANCH   4   5
ENDBRANCH   2   4
ENDBRANCH   1   2
BRANCH   1  11
ATOM     11  C   UNL     1       0.715  -2.888   0.000  0.00  0.00    +0.091 C 
BRANCH  11  12
ATOM     12  C   UNL     1       0.000  -2.475   0.000  0.00  0.00    +0.044 C 
ATOM     13  C   UNL     1       0.282  -1.700   0.000  0.00  0.00    +0.004 C 
ATOM     14  C   UNL     1      -0.530  -1.843   0.000  0.00  0.00    +0.004 C 
BRANCH  12  15
ATOM     15  C   UNL     1      -0.530  -3.107   0.000  0.00  0.00    +0.153 C 
ATOM     16  O   UNL     1      -0.248  -3.882   0.000  0.00  0.00    -0.223 OA
BRANCH  15  18
ATOM     17  C   UNL     1      -1.625  -2.188   0.000  0.00  0.00    +0.003 C 
ATOM     18  C   UNL     1      -1.343  -2.964   0.000  0.00  0.00    +0.030 C 
ATOM     19  C   UNL     1      -1.873  -3.596   0.000  0.00  0.00    +0.003 C 
ENDBRANCH  15  18
ENDBRANCH  12  15
ENDBRANCH  11  12
ENDBRANCH   1  11
TORSDOF 7
