REMARK  Name = 
REMARK  2 active torsions:
REMARK  status: ('A' for Active; 'I' for Inactive)
REMARK    1  A    between atoms: S_2  and  N_5
REMARK    2  A    between atoms: C_8  and  N_11
REMARK                            x       y       z     vdW  Elec       q    Type
REMARK                         _______ _______ _______ _____ _____    ______ ____
ROOT
ATOM      1  N   UNL     1       2.858  -2.475   0.000  0.00  0.00    -0.159 NA
ATOM      2  C   UNL     1       2.143  -2.888   0.000  0.00  0.00    +0.097 C 
ATOM      3  C   UNL     1       2.143  -3.712   0.000  0.00  0.00    +0.041 C 
ATOM      4  C   UNL     1       2.858  -4.125   0.000  0.00  0.00    +0.100 C 
ATOM      5  C   UNL     1       3.572  -3.712   0.000  0.00  0.00    +0.041 C 
ATOM      6  C   UNL     1       3.572  -2.888   0.000  0.00  0.00    +0.097 C 
ENDROOT
BRANCH   4   7
ATOM      7  N   UNL     1       2.858  -4.950   0.000  0.00  0.00    -0.189 NA
ATOM      8  C   UNL     1       2.143  -5.362   0.000  0.00  0.00    +0.345 C 
ATOM      9  N   UNL     1       2.143  -6.188   0.000  0.00  0.00    -0.142 NA
ATOM     10  C   UNL     1       1.429  -6.600   0.000  0.00  0.00    +0.156 A 
ATOM     11  N   UNL     1       0.715  -6.188   0.000  0.00  0.00    -0.227 NA
ATOM     12  C   UNL     1       0.000  -6.600   0.000  0.00  0.00    +0.100 A 
ATOM     13  C   UNL     1       0.000  -7.425   0.000  0.00  0.00    +0.021 A 
ATOM     14  C   UNL     1       0.715  -7.838   0.000  0.00  0.00    +0.005 A 
ATOM     15  C   UNL     1       1.429  -7.425   0.000  0.00  0.00    +0.036 A 
ATOM     16  O   UNL     1       1.429  -4.950   0.000  0.00  0.00    -0.249 OA
ENDBRANCH   4   7
BRANCH   1  18
ATOM     17  C   UNL     1       2.858  -0.825   0.000  0.00  0.00    +0.196 C 
ATOM     18  S   UNL     1       2.858  -1.650   0.000  0.00  0.00    +0.046 S 
ATOM     19  O   UNL     1       3.683  -1.650   0.000  0.00  0.00    -0.157 OA
ATOM     20  O   UNL     1       2.033  -1.650   0.000  0.00  0.00    -0.157 OA
ENDBRANCH   1  18
TORSDOF 2
