REMARK  Name = 
REMARK  5 active torsions:
REMARK  status: ('A' for Active; 'I' for Inactive)
REMARK    1  A    between atoms: N_3  and  C_4
REMARK    2  A    between atoms: C_4  and  C_5
REMARK    3  A    between atoms: C_5  and  C_6
REMARK    4  A    between atoms: N_12  and  C_13
REMARK    5  A    between atoms: C_13  and  C_14
REMARK                            x       y       z     vdW  Elec       q    Type
REMARK                         _______ _______ _______ _____ _____    ______ ____
ROOT
ATOM      1  O   UNL     1       2.858  -0.825   0.000  0.00  0.00    -0.249 OA
ATOM      2  C   UNL     1       2.858  -1.650   0.000  0.00  0.00    +0.339 C 
ATOM      3  N   UNL     1       3.572  -2.062   0.000  0.00  0.00    -0.187 NA
ATOM      4  N   UNL     1       2.143  -2.062   0.000  0.00  0.00    -0.187 NA
ENDROOT
BRANCH   3   5
ATOM      5  C   UNL     1       4.287  -1.650   0.000  0.00  0.00    +0.117 C 
BRANCH   5   6
ATOM      6  C   UNL     1       5.001  -2.062   0.000  0.00  0.00    +0.022 C 
ATOM      7  C   UNL     1       5.414  -2.777   0.000  0.00  0.00    +0.002 C 
ATOM      8  C   UNL     1       5.826  -2.062   0.000  0.00  0.00    +0.002 C 
ENDBRANCH   5   6
ENDBRANCH   3   5
BRANCH   4   9
ATOM      9  C   UNL     1       1.429  -1.650   0.000  0.00  0.00    +0.122 C 
BRANCH   9  10
ATOM     10  C   UNL     1       0.715  -2.062   0.000  0.00  0.00    +0.051 C 
BRANCH  10  11
ATOM     11  C   UNL     1       0.000  -1.650   0.000  0.00  0.00    -0.001 A 
ATOM     12  C   UNL     1       0.000  -0.825   0.000  0.00  0.00    +0.095 A 
ATOM     13  N   UNL     1      -0.715  -0.412   0.000  0.00  0.00    -0.243 NA
ATOM     14  C   UNL     1      -1.429  -0.825   0.000  0.00  0.00    +0.099 A 
ATOM     15  C   UNL     1      -1.429  -1.650   0.000  0.00  0.00    +0.020 A 
ATOM     16  C   UNL     1      -0.715  -2.062   0.000  0.00  0.00    -0.001 A 
ENDBRANCH  10  11
ENDBRANCH   9  10
ENDBRANCH   4   9
TORSDOF 5
