REMARK  Name = 
REMARK  5 active torsions:
REMARK  status: ('A' for Active; 'I' for Inactive)
REMARK    1  A    between atoms: N_3  and  C_4
REMARK    2  A    between atoms: C_4  and  C_5
REMARK    3  A    between atoms: C_5  and  N_6
REMARK    4  A    between atoms: N_11  and  C_12
REMARK    5  A    between atoms: C_12  and  C_13
REMARK                            x       y       z     vdW  Elec       q    Type
REMARK                         _______ _______ _______ _____ _____    ______ ____
ROOT
ATOM      1  O   UNL     1       4.592  -2.127   0.000  0.00  0.00    -0.249 OA
ATOM      2  C   UNL     1       4.592  -2.952   0.000  0.00  0.00    +0.339 C 
ATOM      3  N   UNL     1       5.307  -3.364   0.000  0.00  0.00    -0.187 NA
ATOM      4  N   UNL     1       3.878  -3.364   0.000  0.00  0.00    -0.185 NA
ENDROOT
BRANCH   3   5
ATOM      5  C   UNL     1       6.021  -2.952   0.000  0.00  0.00    +0.119 C 
BRANCH   5   6
ATOM      6  C   UNL     1       6.736  -3.364   0.000  0.00  0.00    +0.054 C 
ATOM      7  C   UNL     1       6.822  -4.185   0.000  0.00  0.00    +0.144 C 
ATOM      8  O   UNL     1       7.629  -4.356   0.000  0.00  0.00    -0.354 OA
ATOM      9  C   UNL     1       8.041  -3.642   0.000  0.00  0.00    +0.142 C 
ATOM     10  C   UNL     1       7.489  -3.029   0.000  0.00  0.00    +0.036 C 
ENDBRANCH   5   6
ENDBRANCH   3   5
BRANCH   4  11
ATOM     11  C   UNL     1       3.163  -2.952   0.000  0.00  0.00    +0.141 C 
BRANCH  11  12
ATOM     12  C   UNL     1       2.449  -3.364   0.000  0.00  0.00    +0.131 C 
BRANCH  12  13
ATOM     13  N   UNL     1       1.734  -2.952   0.000  0.00  0.00    -0.306 N 
ATOM     14  C   UNL     1       1.648  -2.131   0.000  0.00  0.00    +0.179 A 
ATOM     15  N   UNL     1       0.841  -1.960   0.000  0.00  0.00    -0.222 NA
ATOM     16  C   UNL     1       0.429  -2.674   0.000  0.00  0.00    +0.119 A 
ATOM     17  C   UNL     1       0.981  -3.287   0.000  0.00  0.00    +0.098 A 
ENDBRANCH  12  13
ENDBRANCH  11  12
ENDBRANCH   4  11
TORSDOF 5
