REMARK  Name = 
REMARK  3 active torsions:
REMARK  status: ('A' for Active; 'I' for Inactive)
REMARK    1  A    between atoms: C_7  and  C_8
REMARK    2  A    between atoms: N_10  and  C_11
REMARK    3  A    between atoms: C_11  and  C_12
REMARK                            x       y       z     vdW  Elec       q    Type
REMARK                         _______ _______ _______ _____ _____    ______ ____
ROOT
ATOM      1 CL   UNL     1       1.429  -4.950   0.000  0.00  0.00    -0.079 Cl
ATOM      2  C   UNL     1       0.715  -4.537   0.000  0.00  0.00    +0.099 A 
ATOM      3  C   UNL     1       0.715  -3.712   0.000  0.00  0.00    +0.151 A 
ATOM      4  N   UNL     1       0.000  -3.300   0.000  0.00  0.00    -0.208 NA
ATOM      5  C   UNL     1      -0.715  -3.712   0.000  0.00  0.00    +0.220 A 
ATOM      6  N   UNL     1      -1.429  -3.300   0.000  0.00  0.00    -0.273 N 
ATOM      7  C   UNL     1      -1.429  -2.475   0.000  0.00  0.00    +0.126 C 
ATOM      8  C   UNL     1      -2.143  -2.062   0.000  0.00  0.00    +0.164 C 
ATOM      9  O   UNL     1      -2.858  -2.475   0.000  0.00  0.00    -0.350 OA
ATOM     10  C   UNL     1      -2.858  -3.300   0.000  0.00  0.00    +0.164 C 
ATOM     11  C   UNL     1      -2.143  -3.712   0.000  0.00  0.00    +0.126 C 
ATOM     12  N   UNL     1      -0.715  -4.537   0.000  0.00  0.00    -0.211 NA
ATOM     13  C   UNL     1       0.000  -4.950   0.000  0.00  0.00    +0.115 A 
ENDROOT
BRANCH   3  14
ATOM     14  C   UNL     1       1.429  -3.300   0.000  0.00  0.00    +0.284 C 
ATOM     15  N   UNL     1       2.143  -3.712   0.000  0.00  0.00    -0.195 NA
ATOM     16  O   UNL     1       1.429  -2.475   0.000  0.00  0.00    -0.267 OA
BRANCH  15  17
ATOM     17  C   UNL     1       2.858  -3.300   0.000  0.00  0.00    +0.142 C 
BRANCH  17  18
ATOM     18  C   UNL     1       3.572  -3.712   0.000  0.00  0.00    -0.003 C 
ATOM     19  C   UNL     1       4.287  -3.300   0.000  0.00  0.00    -0.003 C 
ENDBRANCH  17  18
ENDBRANCH  15  17
ENDBRANCH   3  14
TORSDOF 3
