REMARK  Name = 
REMARK  4 active torsions:
REMARK  status: ('A' for Active; 'I' for Inactive)
REMARK    1  A    between atoms: C_2  and  N_3
REMARK    2  A    between atoms: C_2  and  C_14
REMARK    3  A    between atoms: C_4  and  C_6
REMARK    4  A    between atoms: C_6  and  N_7
REMARK                            x       y       z     vdW  Elec       q    Type
REMARK                         _______ _______ _______ _____ _____    ______ ____
ROOT
ATOM      1  N   UNL     1       1.847  -1.211   0.000  0.00  0.00    -0.203 NA
ATOM      2  C   UNL     1       2.561  -1.624   0.000  0.00  0.00    +0.266 C 
ATOM      3  O   UNL     1       2.561  -2.449   0.000  0.00  0.00    -0.271 OA
ENDROOT
BRANCH   1   5
ATOM      4  C   UNL     1       1.132  -2.449   0.000  0.00  0.00    +0.026 C 
ATOM      5  C   UNL     1       1.132  -1.624   0.000  0.00  0.00    +0.122 C 
BRANCH   5   6
ATOM      6  C   UNL     1       0.418  -1.211   0.000  0.00  0.00    +0.135 C 
ATOM      7  O   UNL     1       0.331  -0.391   0.000  0.00  0.00    -0.354 OA
ATOM      8  C   UNL     1      -0.476  -0.219   0.000  0.00  0.00    +0.142 C 
ATOM      9  C   UNL     1      -0.888  -0.934   0.000  0.00  0.00    +0.035 C 
ATOM     10  C   UNL     1      -0.336  -1.547   0.000  0.00  0.00    +0.034 C 
ENDBRANCH   5   6
ENDBRANCH   1   5
BRANCH   2  11
ATOM     11  C   UNL     1       3.276  -1.211   0.000  0.00  0.00    +0.213 C 
BRANCH  11  12
ATOM     12  N   UNL     1       3.990  -1.624   0.000  0.00  0.00    -0.246 N 
ATOM     13  C   UNL     1       4.076  -2.444   0.000  0.00  0.00    +0.058 A 
ATOM     14  C   UNL     1       3.463  -2.996   0.000  0.00  0.00    +0.052 C 
ATOM     15  C   UNL     1       4.883  -2.616   0.000  0.00  0.00    +0.031 A 
ATOM     16  C   UNL     1       5.296  -1.901   0.000  0.00  0.00    +0.080 A 
ATOM     17  C   UNL     1       6.116  -1.815   0.000  0.00  0.00    +0.054 C 
ATOM     18  N   UNL     1       4.744  -1.288   0.000  0.00  0.00    -0.174 NA
ENDBRANCH  11  12
ENDBRANCH   2  11
TORSDOF 4
