REMARK  Name = 
REMARK  5 active torsions:
REMARK  status: ('A' for Active; 'I' for Inactive)
REMARK    1  A    between atoms: O_2  and  C_3
REMARK    2  A    between atoms: C_3  and  C_4
REMARK    3  A    between atoms: C_4  and  N_5
REMARK    4  A    between atoms: C_7  and  N_8
REMARK    5  A    between atoms: C_9  and  C_11
REMARK                            x       y       z     vdW  Elec       q    Type
REMARK                         _______ _______ _______ _____ _____    ______ ____
ROOT
ATOM      1  N   UNL     1      -2.751   5.590   0.000  0.00  0.00    -0.290 N 
ATOM      2  C   UNL     1      -3.466   6.003   0.000  0.00  0.00    +0.261 A 
ATOM      3  O   UNL     1      -3.466   6.828   0.000  0.00  0.00    -0.267 OA
ATOM      4  C   UNL     1      -4.180   5.590   0.000  0.00  0.00    +0.062 A 
ATOM      5  C   UNL     1      -4.180   4.765   0.000  0.00  0.00    +0.023 A 
ATOM      6  C   UNL     1      -3.466   4.353   0.000  0.00  0.00    +0.091 A 
ATOM      7  C   UNL     1      -2.751   4.765   0.000  0.00  0.00    +0.095 A 
ENDROOT
BRANCH   6   8
ATOM      8  N   UNL     1      -3.466   3.528   0.000  0.00  0.00    -0.178 NA
ATOM      9  C   UNL     1      -2.751   3.115   0.000  0.00  0.00    +0.245 C 
ATOM     10  O   UNL     1      -2.037   3.528   0.000  0.00  0.00    -0.273 OA
BRANCH   9  11
ATOM     11  C   UNL     1      -2.751   2.290   0.000  0.00  0.00    +0.079 C 
ATOM     12  C   UNL     1      -3.419   1.805   0.000  0.00  0.00    +0.009 C 
ATOM     13  C   UNL     1      -3.164   1.021   0.000  0.00  0.00    +0.001 C 
ATOM     14  C   UNL     1      -2.339   1.021   0.000  0.00  0.00    +0.001 C 
ATOM     15  C   UNL     1      -2.084   1.805   0.000  0.00  0.00    +0.009 C 
ENDBRANCH   9  11
ENDBRANCH   6   8
BRANCH   1  16
ATOM     16  C   UNL     1      -2.037   6.003   0.000  0.00  0.00    +0.141 C 
BRANCH  16  17
ATOM     17  C   UNL     1      -2.037   6.828   0.000  0.00  0.00    +0.167 C 
BRANCH  17  19
ATOM     18  C   UNL     1      -1.322   8.065   0.000  0.00  0.00    +0.174 C 
ATOM     19  O   UNL     1      -1.322   7.240   0.000  0.00  0.00    -0.349 OA
ENDBRANCH  17  19
ENDBRANCH  16  17
ENDBRANCH   1  16
TORSDOF 5
