REMARK  Name = 
REMARK  6 active torsions:
REMARK  status: ('A' for Active; 'I' for Inactive)
REMARK    1  A    between atoms: N_4  and  C_5
REMARK    2  A    between atoms: C_5  and  C_6
REMARK    3  A    between atoms: N_8  and  C_9
REMARK    4  A    between atoms: C_9  and  C_10
REMARK    5  A    between atoms: C_15  and  C_16
REMARK    6  A    between atoms: C_16  and  C_17
REMARK                            x       y       z     vdW  Elec       q    Type
REMARK                         _______ _______ _______ _____ _____    ______ ____
ROOT
ATOM      1  C   UNL     1      -4.079   2.720   0.000  0.00  0.00    +0.054 C 
ATOM      2  C   UNL     1      -3.743   1.966   0.000  0.00  0.00    +0.076 A 
ATOM      3  C   UNL     1      -4.156   1.252   0.000  0.00  0.00    +0.009 A 
ATOM      4  C   UNL     1      -3.604   0.639   0.000  0.00  0.00    +0.054 A 
ATOM      5  C   UNL     1      -3.775  -0.168   0.000  0.00  0.00    +0.051 C 
ATOM      6  N   UNL     1      -2.850   0.974   0.000  0.00  0.00    -0.246 N 
ATOM      7  N   UNL     1      -2.936   1.795   0.000  0.00  0.00    -0.174 NA
ENDROOT
BRANCH   3   8
ATOM      8  C   UNL     1      -4.976   1.166   0.000  0.00  0.00    +0.064 C 
BRANCH   8   9
ATOM      9  C   UNL     1      -5.461   1.833   0.000  0.00  0.00    +0.187 C 
ATOM     10  O   UNL     1      -6.282   1.747   0.000  0.00  0.00    -0.220 OA
ENDBRANCH   8   9
ENDBRANCH   3   8
BRANCH   6  11
ATOM     11  C   UNL     1      -2.136   0.562   0.000  0.00  0.00    +0.213 C 
BRANCH  11  12
ATOM     12  C   UNL     1      -1.421   0.974   0.000  0.00  0.00    +0.266 C 
ATOM     13  N   UNL     1      -0.707   0.562   0.000  0.00  0.00    -0.204 NA
ATOM     14  O   UNL     1      -1.421   1.799   0.000  0.00  0.00    -0.271 OA
BRANCH  13  15
ATOM     15  C   UNL     1       0.008   0.974   0.000  0.00  0.00    +0.115 C 
BRANCH  15  16
ATOM     16  C   UNL     1       0.722   0.562   0.000  0.00  0.00    +0.022 C 
ATOM     17  C   UNL     1       1.135  -0.153   0.000  0.00  0.00    +0.002 C 
ATOM     18  C   UNL     1       1.547   0.562   0.000  0.00  0.00    +0.002 C 
ENDBRANCH  15  16
ENDBRANCH  13  15
ENDBRANCH  11  12
ENDBRANCH   6  11
TORSDOF 6
