REMARK  Name = 
REMARK  7 active torsions:
REMARK  status: ('A' for Active; 'I' for Inactive)
REMARK    1  A    between atoms: C_4  and  C_17
REMARK    2  A    between atoms: C_6  and  S_7
REMARK    3  A    between atoms: S_7  and  C_8
REMARK    4  A    between atoms: C_8  and  C_9
REMARK    5  A    between atoms: C_9  and  O_10
REMARK    6  A    between atoms: O_10  and  C_11
REMARK    7  A    between atoms: C_11  and  C_12
REMARK                            x       y       z     vdW  Elec       q    Type
REMARK                         _______ _______ _______ _____ _____    ______ ____
ROOT
ATOM      1  O   UNL     1       0.302   4.427   0.000  0.00  0.00    -0.265 OA
ATOM      2  C   UNL     1      -0.412   4.014   0.000  0.00  0.00    +0.282 A 
ATOM      3  N   UNL     1      -1.127   4.427   0.000  0.00  0.00    -0.183 NA
ATOM      4  C   UNL     1      -1.841   4.014   0.000  0.00  0.00    +0.193 A 
ATOM      5  N   UNL     1      -1.841   3.189   0.000  0.00  0.00    -0.225 NA
ATOM      6  C   UNL     1      -1.127   2.777   0.000  0.00  0.00    +0.066 A 
ATOM      7  C   UNL     1      -0.412   3.189   0.000  0.00  0.00    +0.077 A 
ENDROOT
BRANCH   6   8
ATOM      8  C   UNL     1      -1.127   1.952   0.000  0.00  0.00    +0.041 C 
ATOM      9  C   UNL     1      -1.540   1.238   0.000  0.00  0.00    +0.006 C 
ATOM     10  C   UNL     1      -0.715   1.238   0.000  0.00  0.00    +0.006 C 
ENDBRANCH   6   8
BRANCH   4  11
ATOM     11  S   UNL     1      -2.556   4.427   0.000  0.00  0.00    -0.073 S 
BRANCH  11  12
ATOM     12  C   UNL     1      -2.556   5.252   0.000  0.00  0.00    +0.097 C 
BRANCH  12  13
ATOM     13  C   UNL     1      -3.270   5.665   0.000  0.00  0.00    +0.155 C 
BRANCH  13  14
ATOM     14  O   UNL     1      -3.270   6.489   0.000  0.00  0.00    -0.345 OA
BRANCH  14  15
ATOM     15  C   UNL     1      -3.985   6.902   0.000  0.00  0.00    +0.246 C 
BRANCH  15  16
ATOM     16  C   UNL     1      -3.985   7.727   0.000  0.00  0.00    +0.425 C 
ATOM     17  F   UNL     1      -3.160   7.727   0.000  0.00  0.00    -0.167 F 
ATOM     18  F   UNL     1      -4.810   7.727   0.000  0.00  0.00    -0.167 F 
ATOM     19  F   UNL     1      -3.985   8.552   0.000  0.00  0.00    -0.167 F 
ENDBRANCH  15  16
ENDBRANCH  14  15
ENDBRANCH  13  14
ENDBRANCH  12  13
ENDBRANCH  11  12
ENDBRANCH   4  11
TORSDOF 7
