REMARK  Name = 
REMARK  3 active torsions:
REMARK  status: ('A' for Active; 'I' for Inactive)
REMARK    1  A    between atoms: N_3  and  C_4
REMARK    2  A    between atoms: N_7  and  C_8
REMARK    3  A    between atoms: C_13  and  C_15
REMARK                            x       y       z     vdW  Elec       q    Type
REMARK                         _______ _______ _______ _____ _____    ______ ____
ROOT
ATOM      1  C   UNL     1       3.985  -0.174   0.000  0.00  0.00    +0.094 A 
ATOM      2  C   UNL     1       4.699  -0.587   0.000  0.00  0.00    +0.117 A 
ATOM      3  N   UNL     1       5.414  -0.174   0.000  0.00  0.00    -0.226 NA
ATOM      4  C   UNL     1       5.414   0.651   0.000  0.00  0.00    +0.155 A 
ATOM      5  N   UNL     1       6.128   1.063   0.000  0.00  0.00    -0.160 NA
ATOM      6  C   UNL     1       6.128   1.888   0.000  0.00  0.00    +0.246 C 
ATOM      7  O   UNL     1       5.414   2.301   0.000  0.00  0.00    -0.273 OA
ATOM      8  C   UNL     1       4.699   1.063   0.000  0.00  0.00    +0.038 A 
ATOM      9  C   UNL     1       3.985   0.651   0.000  0.00  0.00    +0.021 A 
ENDROOT
BRANCH   1  12
ATOM     10  O   UNL     1       3.985  -1.824   0.000  0.00  0.00    -0.249 OA
ATOM     11  C   UNL     1       3.270  -1.412   0.000  0.00  0.00    +0.343 C 
ATOM     12  N   UNL     1       3.270  -0.587   0.000  0.00  0.00    -0.159 NA
ATOM     13  N   UNL     1       2.556  -1.824   0.000  0.00  0.00    -0.189 NA
BRANCH  13  14
ATOM     14  C   UNL     1       2.556  -2.649   0.000  0.00  0.00    +0.097 C 
ATOM     15  C   UNL     1       2.143  -3.364   0.000  0.00  0.00    +0.023 C 
ATOM     16  C   UNL     1       2.968  -3.364   0.000  0.00  0.00    +0.023 C 
ENDBRANCH  13  14
ENDBRANCH   1  12
BRANCH   6  17
ATOM     17  C   UNL     1       6.843   2.301   0.000  0.00  0.00    +0.079 C 
ATOM     18  C   UNL     1       7.668   2.301   0.000  0.00  0.00    +0.010 C 
ATOM     19  C   UNL     1       7.255   3.015   0.000  0.00  0.00    +0.010 C 
ENDBRANCH   6  17
TORSDOF 3
