REMARK  Name = 
REMARK  6 active torsions:
REMARK  status: ('A' for Active; 'I' for Inactive)
REMARK    1  A    between atoms: C_2  and  C_4
REMARK    2  A    between atoms: C_4  and  C_5
REMARK    3  A    between atoms: N_7  and  CA_8
REMARK    4  A    between atoms: CA_8  and  CB_9
REMARK    5  A    between atoms: CA_8  and  C_15
REMARK    6  A    between atoms: CB_9  and  CG_10
REMARK                            x       y       z     vdW  Elec       q    Type
REMARK                         _______ _______ _______ _____ _____    ______ ____
ROOT
ATOM      1  CA  HIS A   1       5.226  -2.237   0.000  0.00  0.00    +0.204 C 
ENDROOT
BRANCH   1   3
ATOM      2  C   UNK A   0       3.988  -2.952   0.000  0.00  0.00    +0.242 C 
ATOM      3  N   HIS A   1       4.401  -2.237   0.000  0.00  0.00    -0.195 NA
ATOM      4  O   UNK A   0       4.401  -3.666   0.000  0.00  0.00    -0.273 OA
BRANCH   2   5
ATOM      5  C   UNK A   0       3.163  -2.952   0.000  0.00  0.00    +0.087 C 
BRANCH   5   7
ATOM      6  C   UNK A   0       1.926  -3.666   0.000  0.00  0.00    +0.001 C 
ATOM      7  C   UNK A   0       2.751  -3.666   0.000  0.00  0.00    +0.009 C 
ATOM      8  C   UNK A   0       3.163  -4.381   0.000  0.00  0.00    +0.001 C 
ENDBRANCH   5   7
ENDBRANCH   2   5
ENDBRANCH   1   3
BRANCH   1   9
ATOM      9  C   HIS A   1       5.638  -2.952   0.000  0.00  0.00    +0.385 C 
ATOM     10  OXT HIS A   1       5.226  -3.666   0.000  0.00  0.00    -0.244 OA
ATOM     11  O   HIS A   1       6.463  -2.952   0.000  0.00  0.00    -0.244 OA
ENDBRANCH   1   9
BRANCH   1  12
ATOM     12  CB  HIS A   1       5.638  -1.523   0.000  0.00  0.00    +0.081 C 
BRANCH  12  13
ATOM     13  CG  HIS A   1       6.463  -1.523   0.000  0.00  0.00    +0.082 A 
ATOM     14  ND1 HIS A   1       6.948  -2.190   0.000  0.00  0.00    -0.227 NA
ATOM     15  CE1 HIS A   1       7.733  -1.935   0.000  0.00  0.00    +0.199 A 
ATOM     16  NE2 HIS A   1       7.733  -1.110   0.000  0.00  0.00    -0.221 NA
ATOM     17  CD2 HIS A   1       6.948  -0.856   0.000  0.00  0.00    +0.115 A 
ENDBRANCH  12  13
ENDBRANCH   1  12
TORSDOF 6
