REMARK  Name = 
REMARK  6 active torsions:
REMARK  status: ('A' for Active; 'I' for Inactive)
REMARK    1  A    between atoms: O_2  and  C_3
REMARK    2  A    between atoms: C_3  and  C_4
REMARK    3  A    between atoms: C_4  and  N_5
REMARK    4  A    between atoms: C_6  and  S_7
REMARK    5  A    between atoms: S_7  and  C_8
REMARK    6  A    between atoms: C_8  and  C_9
REMARK                            x       y       z     vdW  Elec       q    Type
REMARK                         _______ _______ _______ _____ _____    ______ ____
ROOT
ATOM      1  N   UNL     1       1.139  -1.365   0.000  0.00  0.00    -0.304 N 
ATOM      2  C   UNL     1       1.923  -1.110   0.000  0.00  0.00    +0.079 A 
ATOM      3  C   UNL     1       1.923  -0.285   0.000  0.00  0.00    +0.099 A 
ATOM      4  C   UNL     1       2.638   0.127   0.000  0.00  0.00    +0.021 A 
ATOM      5  C   UNL     1       3.352  -0.285   0.000  0.00  0.00    +0.002 A 
ATOM      6  C   UNL     1       3.352  -1.110   0.000  0.00  0.00    +0.002 A 
ATOM      7  N   UNL     1       1.139  -0.030   0.000  0.00  0.00    -0.221 NA
ATOM      8  C   UNL     1       2.638  -1.523   0.000  0.00  0.00    +0.019 A 
ATOM      9  C   UNL     1       0.654  -0.698   0.000  0.00  0.00    +0.172 A 
ENDROOT
BRANCH   1  10
ATOM     10  C   UNL     1       0.884  -2.150   0.000  0.00  0.00    +0.140 C 
BRANCH  10  11
ATOM     11  C   UNL     1       1.436  -2.763   0.000  0.00  0.00    +0.167 C 
BRANCH  11  13
ATOM     12  C   UNL     1       1.733  -4.161   0.000  0.00  0.00    +0.174 C 
ATOM     13  O   UNL     1       1.181  -3.548   0.000  0.00  0.00    -0.349 OA
ENDBRANCH  11  13
ENDBRANCH  10  11
ENDBRANCH   1  10
BRANCH   9  14
ATOM     14  S   UNL     1      -0.171  -0.698   0.000  0.00  0.00    -0.067 S 
BRANCH  14  15
ATOM     15  C   UNL     1      -0.584  -1.412   0.000  0.00  0.00    +0.153 C 
BRANCH  15  16
ATOM     16  C   UNL     1      -1.409  -1.412   0.000  0.00  0.00    +0.272 C 
ATOM     17  N   UNL     1      -1.821  -0.698   0.000  0.00  0.00    -0.087 NA
ATOM     18  O   UNL     1      -1.821  -2.127   0.000  0.00  0.00    -0.271 OA
ENDBRANCH  15  16
ENDBRANCH  14  15
ENDBRANCH   9  14
TORSDOF 6
