REMARK  Name = 
REMARK  5 active torsions:
REMARK  status: ('A' for Active; 'I' for Inactive)
REMARK    1  A    between atoms: C_2  and  C_3
REMARK    2  A    between atoms: C_3  and  C_4
REMARK    3  A    between atoms: N_7  and  C_8
REMARK    4  A    between atoms: C_8  and  C_9
REMARK    5  A    between atoms: N_11  and  C_12
REMARK                            x       y       z     vdW  Elec       q    Type
REMARK                         _______ _______ _______ _____ _____    ______ ____
ROOT
ATOM      1  C   UNL     1       2.697  -3.548   0.000  0.00  0.00    +0.214 C 
ENDROOT
BRANCH   1   4
ATOM      2  C   UNL     1       3.595  -1.611   0.000  0.00  0.00    +0.020 A 
ATOM      3  C   UNL     1       2.928  -2.096   0.000  0.00  0.00    +0.093 A 
ATOM      4  N   UNL     1       3.182  -2.881   0.000  0.00  0.00    -0.240 N 
ATOM      5  N   UNL     1       4.007  -2.881   0.000  0.00  0.00    -0.168 NA
ATOM      6  C   UNL     1       4.262  -2.096   0.000  0.00  0.00    +0.117 A 
BRANCH   2   7
ATOM      7  C   UNL     1       3.595  -0.786   0.000  0.00  0.00    +0.065 C 
BRANCH   7   9
ATOM      8  O   UNL     1       4.309   0.451   0.000  0.00  0.00    -0.220 OA
ATOM      9  C   UNL     1       4.309  -0.374   0.000  0.00  0.00    +0.187 C 
ENDBRANCH   7   9
ENDBRANCH   2   7
ENDBRANCH   1   4
BRANCH   1  10
ATOM     10  C   UNL     1       1.877  -3.462   0.000  0.00  0.00    +0.266 C 
ATOM     11  N   UNL     1       1.392  -4.130   0.000  0.00  0.00    -0.206 NA
ATOM     12  O   UNL     1       1.541  -2.708   0.000  0.00  0.00    -0.271 OA
BRANCH  11  13
ATOM     13  C   UNL     1       0.572  -4.043   0.000  0.00  0.00    +0.095 C 
ATOM     14  C   UNL     1       0.159  -3.329   0.000  0.00  0.00    +0.022 C 
ATOM     15  C   UNL     1      -0.648  -3.500   0.000  0.00  0.00    +0.002 C 
ATOM     16  C   UNL     1      -0.734  -4.321   0.000  0.00  0.00    +0.002 C 
ATOM     17  C   UNL     1       0.020  -4.656   0.000  0.00  0.00    +0.022 C 
ENDBRANCH  11  13
ENDBRANCH   1  10
TORSDOF 5
