REMARK  Name = 
REMARK  3 active torsions:
REMARK  status: ('A' for Active; 'I' for Inactive)
REMARK    1  A    between atoms: C_2  and  C_7
REMARK    2  A    between atoms: N_3  and  C_4
REMARK    3  A    between atoms: C_4  and  C_5
REMARK                            x       y       z     vdW  Elec       q    Type
REMARK                         _______ _______ _______ _____ _____    ______ ____
ROOT
ATOM      1  C   UNL     1       0.000  -4.125   0.000  0.00  0.00    +0.074 A 
ATOM      2  C   UNL     1       0.000  -3.300   0.000  0.00  0.00    +0.105 A 
ATOM      3  N   UNL     1      -0.715  -2.888   0.000  0.00  0.00    -0.229 NA
ATOM      4  C   UNL     1      -1.429  -3.300   0.000  0.00  0.00    +0.132 A 
ATOM      5  N   UNL     1      -2.143  -2.888   0.000  0.00  0.00    -0.288 N 
ATOM      6  C   UNL     1      -2.143  -2.062   0.000  0.00  0.00    +0.124 C 
ATOM      7  C   UNL     1      -2.858  -1.650   0.000  0.00  0.00    +0.164 C 
ATOM      8  O   UNL     1      -3.572  -2.062   0.000  0.00  0.00    -0.350 OA
ATOM      9  C   UNL     1      -3.572  -2.888   0.000  0.00  0.00    +0.164 C 
ATOM     10  C   UNL     1      -2.858  -3.300   0.000  0.00  0.00    +0.124 C 
ATOM     11  C   UNL     1      -1.429  -4.125   0.000  0.00  0.00    +0.034 A 
ATOM     12  C   UNL     1      -0.715  -4.537   0.000  0.00  0.00    +0.009 A 
ENDROOT
BRANCH   1  14
ATOM     13  O   UNL     1       0.715  -5.362   0.000  0.00  0.00    -0.268 OA
ATOM     14  C   UNL     1       0.715  -4.537   0.000  0.00  0.00    +0.267 C 
ATOM     15  N   UNL     1       1.429  -4.125   0.000  0.00  0.00    -0.187 NA
BRANCH  15  16
ATOM     16  C   UNL     1       2.143  -4.537   0.000  0.00  0.00    +0.192 C 
BRANCH  16  17
ATOM     17  C   UNL     1       2.858  -4.125   0.000  0.00  0.00    -0.054 C 
ATOM     18  C   UNL     1       3.572  -3.712   0.000  0.00  0.00    -0.012 C 
ENDBRANCH  16  17
ENDBRANCH  15  16
ENDBRANCH   1  14
TORSDOF 3
