REMARK  Name = 
REMARK  3 active torsions:
REMARK  status: ('A' for Active; 'I' for Inactive)
REMARK    1  A    between atoms: C_7  and  N_8
REMARK    2  A    between atoms: N_11  and  C_12
REMARK    3  A    between atoms: C_16  and  C_18
REMARK                            x       y       z     vdW  Elec       q    Type
REMARK                         _______ _______ _______ _____ _____    ______ ____
ROOT
ATOM      1  N   UNL     1      -2.858  -2.475   0.000  0.00  0.00    -0.161 NA
ATOM      2  C   UNL     1      -3.572  -2.888   0.000  0.00  0.00    +0.343 C 
ATOM      3  N   UNL     1      -4.287  -2.475   0.000  0.00  0.00    -0.189 NA
ATOM      4  O   UNL     1      -3.572  -3.712   0.000  0.00  0.00    -0.249 OA
ENDROOT
BRANCH   1   7
ATOM      5  C   UNL     1      -1.429  -1.650   0.000  0.00  0.00    +0.034 C 
ATOM      6  C   UNL     1      -1.429  -2.475   0.000  0.00  0.00    +0.013 A 
ATOM      7  C   UNL     1      -2.143  -2.888   0.000  0.00  0.00    +0.074 A 
ATOM      8  C   UNL     1      -2.143  -3.712   0.000  0.00  0.00    +0.037 A 
ATOM      9  C   UNL     1      -1.429  -4.125   0.000  0.00  0.00    +0.100 A 
ATOM     10  N   UNL     1      -0.715  -3.712   0.000  0.00  0.00    -0.243 NA
ATOM     11  C   UNL     1      -0.715  -2.888   0.000  0.00  0.00    +0.096 A 
ENDBRANCH   1   7
BRANCH   3  12
ATOM     12  C   UNL     1      -5.001  -2.888   0.000  0.00  0.00    +0.097 C 
ATOM     13  C   UNL     1      -5.716  -2.475   0.000  0.00  0.00    +0.030 C 
ATOM     14  C   UNL     1      -6.430  -2.888   0.000  0.00  0.00    +0.097 C 
ATOM     15  C   UNL     1      -6.430  -3.712   0.000  0.00  0.00    +0.009 C 
ATOM     16  C   UNL     1      -5.716  -4.125   0.000  0.00  0.00    +0.002 C 
ATOM     17  C   UNL     1      -5.001  -3.712   0.000  0.00  0.00    +0.022 C 
BRANCH  14  18
ATOM     18  C   UNL     1      -7.145  -2.475   0.000  0.00  0.00    +0.398 C 
ATOM     19  F   UNL     1      -7.557  -3.189   0.000  0.00  0.00    -0.170 F 
ATOM     20  F   UNL     1      -6.732  -1.760   0.000  0.00  0.00    -0.170 F 
ATOM     21  F   UNL     1      -7.859  -2.062   0.000  0.00  0.00    -0.170 F 
ENDBRANCH  14  18
ENDBRANCH   3  12
TORSDOF 3
