REMARK  Name = 
REMARK  5 active torsions:
REMARK  status: ('A' for Active; 'I' for Inactive)
REMARK    1  A    between atoms: C_2  and  C_3
REMARK    2  A    between atoms: C_2  and  N_10
REMARK    3  A    between atoms: C_3  and  N_4
REMARK    4  A    between atoms: N_10  and  C_11
REMARK    5  A    between atoms: C_11  and  C_12
REMARK                            x       y       z     vdW  Elec       q    Type
REMARK                         _______ _______ _______ _____ _____    ______ ____
ROOT
ATOM      1  N   UNL     1       2.143  -2.888   0.000  0.00  0.00    -0.217 NA
ENDROOT
BRANCH   1   3
ATOM      2  C   UNL     1       1.429  -1.650   0.000  0.00  0.00    +0.021 C 
ATOM      3  C   UNL     1       1.429  -2.475   0.000  0.00  0.00    +0.097 C 
BRANCH   3   4
ATOM      4  C   UNL     1       0.715  -2.888   0.000  0.00  0.00    +0.145 C 
BRANCH   4   5
ATOM      5  N   UNL     1       0.000  -2.475   0.000  0.00  0.00    -0.248 N 
ATOM      6  N   UNL     1      -0.086  -1.655   0.000  0.00  0.00    -0.168 NA
ATOM      7  C   UNL     1      -0.893  -1.483   0.000  0.00  0.00    +0.117 A 
ATOM      8  C   UNL     1      -1.306  -2.197   0.000  0.00  0.00    +0.018 A 
ATOM      9  C   UNL     1      -2.126  -2.284   0.000  0.00  0.00    +0.034 C 
ATOM     10  C   UNL     1      -0.754  -2.811   0.000  0.00  0.00    +0.092 A 
ENDBRANCH   4   5
ENDBRANCH   3   4
ENDBRANCH   1   3
BRANCH   1  11
ATOM     11  C   UNL     1       2.858  -2.475   0.000  0.00  0.00    +0.089 C 
BRANCH  11  12
ATOM     12  C   UNL     1       3.572  -2.888   0.000  0.00  0.00    +0.021 C 
ATOM     13  C   UNL     1       3.572  -3.712   0.000  0.00  0.00    +0.023 C 
ATOM     14  C   UNL     1       4.287  -4.125   0.000  0.00  0.00    +0.093 C 
ATOM     15  N   UNL     1       5.001  -3.712   0.000  0.00  0.00    -0.280 N 
ATOM     16  C   UNL     1       5.716  -4.125   0.000  0.00  0.00    +0.226 C 
ATOM     17  C   UNL     1       5.716  -4.950   0.000  0.00  0.00    +0.095 C 
ATOM     18  O   UNL     1       6.430  -3.712   0.000  0.00  0.00    -0.275 OA
ATOM     19  C   UNL     1       5.001  -2.888   0.000  0.00  0.00    +0.093 C 
ATOM     20  C   UNL     1       4.287  -2.475   0.000  0.00  0.00    +0.023 C 
ENDBRANCH  11  12
ENDBRANCH   1  11
TORSDOF 5
