REMARK  Name = 
REMARK  7 active torsions:
REMARK  status: ('A' for Active; 'I' for Inactive)
REMARK    1  A    between atoms: O_2  and  C_3
REMARK    2  A    between atoms: C_3  and  C_4
REMARK    3  A    between atoms: C_4  and  N_5
REMARK    4  A    between atoms: C_7  and  C_12
REMARK    5  A    between atoms: N_14  and  C_15
REMARK    6  A    between atoms: C_15  and  C_16
REMARK    7  A    between atoms: N_19  and  C_21
REMARK                            x       y       z     vdW  Elec       q    Type
REMARK                         _______ _______ _______ _____ _____    ______ ____
ROOT
ATOM      1  C   UNL     1      -6.505   5.343   0.000  0.00  0.00    +0.284 C 
ATOM      2  N   UNL     1      -6.020   4.676   0.000  0.00  0.00    -0.200 NA
ATOM      3  O   UNL     1      -7.325   5.257   0.000  0.00  0.00    -0.267 OA
ENDROOT
BRANCH   1   9
ATOM      4  N   UNL     1      -5.013   6.936   0.000  0.00  0.00    -0.214 N 
ATOM      5  C   UNL     1      -5.498   7.604   0.000  0.00  0.00    +0.277 A 
ATOM      6  O   UNL     1      -5.162   8.358   0.000  0.00  0.00    -0.266 OA
ATOM      7  C   UNL     1      -6.318   7.518   0.000  0.00  0.00    +0.064 A 
ATOM      8  C   UNL     1      -6.654   6.764   0.000  0.00  0.00    +0.030 A 
ATOM      9  C   UNL     1      -6.169   6.097   0.000  0.00  0.00    +0.156 A 
ATOM     10  N   UNL     1      -5.348   6.183   0.000  0.00  0.00    -0.162 NA
BRANCH   4  11
ATOM     11  C   UNL     1      -4.192   7.023   0.000  0.00  0.00    +0.163 C 
BRANCH  11  12
ATOM     12  C   UNL     1      -3.857   7.776   0.000  0.00  0.00    +0.169 C 
BRANCH  12  14
ATOM     13  C   UNL     1      -2.701   8.616   0.000  0.00  0.00    +0.174 C 
ATOM     14  O   UNL     1      -3.036   7.863   0.000  0.00  0.00    -0.349 OA
ENDBRANCH  12  14
ENDBRANCH  11  12
ENDBRANCH   4  11
ENDBRANCH   1   9
BRANCH   2  15
ATOM     15  C   UNL     1      -6.355   3.922   0.000  0.00  0.00    +0.117 C 
BRANCH  15  16
ATOM     16  C   UNL     1      -5.870   3.254   0.000  0.00  0.00    +0.039 C 
ATOM     17  C   UNL     1      -6.125   2.470   0.000  0.00  0.00    +0.074 C 
ATOM     18  N   UNL     1      -5.458   1.985   0.000  0.00  0.00    -0.274 NA
ATOM     19  C   UNL     1      -4.790   2.470   0.000  0.00  0.00    +0.072 C 
ATOM     20  C   UNL     1      -5.045   3.254   0.000  0.00  0.00    +0.020 C 
BRANCH  18  21
ATOM     21  C   UNL     1      -5.458   1.160   0.000  0.00  0.00    +0.058 C 
ATOM     22  C   UNL     1      -5.870   0.445   0.000  0.00  0.00    +0.017 C 
ATOM     23  C   UNL     1      -5.045   0.445   0.000  0.00  0.00    +0.017 C 
ENDBRANCH  18  21
ENDBRANCH  15  16
ENDBRANCH   2  15
TORSDOF 7
