REMARK  Name = 
REMARK  5 active torsions:
REMARK  status: ('A' for Active; 'I' for Inactive)
REMARK    1  A    between atoms: N_5  and  C_6
REMARK    2  A    between atoms: C_6  and  C_7
REMARK    3  A    between atoms: C_7  and  C_9
REMARK    4  A    between atoms: C_9  and  C_10
REMARK    5  A    between atoms: C_15  and  C_16
REMARK                            x       y       z     vdW  Elec       q    Type
REMARK                         _______ _______ _______ _____ _____    ______ ____
ROOT
ATOM      1  C   UNL     1       0.715  -5.362   0.000  0.00  0.00    +0.179 C 
ATOM      2  O   UNL     1       0.715  -6.188   0.000  0.00  0.00    -0.221 OA
ENDROOT
BRANCH   1   3
ATOM      3  C   UNL     1       1.429  -4.950   0.000  0.00  0.00    +0.144 C 
BRANCH   3  10
ATOM      4  C   UNL     1       1.429  -1.650   0.000  0.00  0.00    +0.052 C 
ATOM      5  C   UNL     1       1.429  -2.475   0.000  0.00  0.00    +0.062 A 
ATOM      6  C   UNL     1       0.715  -2.888   0.000  0.00  0.00    +0.048 A 
ATOM      7  C   UNL     1       0.000  -2.475   0.000  0.00  0.00    +0.037 C 
ATOM      8  C   UNL     1       0.715  -3.712   0.000  0.00  0.00    +0.259 A 
ATOM      9  O   UNL     1       0.000  -4.125   0.000  0.00  0.00    -0.267 OA
ATOM     10  N   UNL     1       1.429  -4.125   0.000  0.00  0.00    -0.276 N 
ATOM     11  C   UNL     1       2.143  -3.712   0.000  0.00  0.00    +0.181 A 
ATOM     12  N   UNL     1       2.143  -2.888   0.000  0.00  0.00    -0.230 NA
ENDBRANCH   3  10
ENDBRANCH   1   3
BRANCH   1  13
ATOM     13  C   UNL     1       0.000  -4.950   0.000  0.00  0.00    +0.061 C 
BRANCH  13  14
ATOM     14  C   UNL     1      -0.715  -5.362   0.000  0.00  0.00    -0.016 A 
ATOM     15  C   UNL     1      -1.429  -4.950   0.000  0.00  0.00    +0.068 A 
ATOM     16  C   UNL     1      -2.143  -5.362   0.000  0.00  0.00    +0.004 A 
ATOM     17  C   UNL     1      -2.143  -6.188   0.000  0.00  0.00    -0.000 A 
ATOM     18  C   UNL     1      -1.429  -6.600   0.000  0.00  0.00    -0.000 A 
ATOM     19  C   UNL     1      -0.715  -6.188   0.000  0.00  0.00    -0.004 A 
BRANCH  15  20
ATOM     20  C   UNL     1      -1.429  -4.125   0.000  0.00  0.00    +0.418 C 
ATOM     21  F   UNL     1      -2.254  -4.125   0.000  0.00  0.00    -0.166 F 
ATOM     22  F   UNL     1      -0.604  -4.125   0.000  0.00  0.00    -0.166 F 
ATOM     23  F   UNL     1      -1.429  -3.300   0.000  0.00  0.00    -0.166 F 
ENDBRANCH  15  20
ENDBRANCH  13  14
ENDBRANCH   1  13
TORSDOF 5
