REMARK  Name = 
REMARK  7 active torsions:
REMARK  status: ('A' for Active; 'I' for Inactive)
REMARK    1  A    between atoms: C_2  and  C_3
REMARK    2  A    between atoms: C_3  and  C_4
REMARK    3  A    between atoms: C_4  and  N_5
REMARK    4  A    between atoms: C_6  and  C_8
REMARK    5  A    between atoms: C_8  and  C_9
REMARK    6  A    between atoms: C_12  and  C_13
REMARK    7  A    between atoms: C_13  and  N_14
REMARK                            x       y       z     vdW  Elec       q    Type
REMARK                         _______ _______ _______ _____ _____    ______ ____
ROOT
ATOM      1  C   UNL     1       9.738  -2.591   0.000  0.00  0.00    +0.190 A 
ATOM      2  N   UNL     1      10.492  -2.927   0.000  0.00  0.00    -0.193 NA
ATOM      3  C   UNL     1      11.044  -2.314   0.000  0.00  0.00    +0.253 A 
ATOM      4  O   UNL     1      10.632  -1.599   0.000  0.00  0.00    -0.336 OA
ATOM      5  N   UNL     1       9.825  -1.771   0.000  0.00  0.00    -0.060 NA
ENDROOT
BRANCH   3   6
ATOM      6  C   UNL     1      11.864  -2.400   0.000  0.00  0.00    +0.162 C 
BRANCH   6   7
ATOM      7  N   UNL     1      12.200  -3.154   0.000  0.00  0.00    -0.260 NA
ATOM      8  C   UNL     1      11.715  -3.821   0.000  0.00  0.00    +0.105 C 
ATOM      9  C   UNL     1      12.051  -4.575   0.000  0.00  0.00    +0.159 C 
ATOM     10  O   UNL     1      12.871  -4.661   0.000  0.00  0.00    -0.351 OA
ATOM     11  C   UNL     1      13.356  -3.994   0.000  0.00  0.00    +0.159 C 
ATOM     12  C   UNL     1      13.021  -3.240   0.000  0.00  0.00    +0.105 C 
ENDBRANCH   6   7
ENDBRANCH   3   6
BRANCH   1  13
ATOM     13  C   UNL     1       9.024  -3.004   0.000  0.00  0.00    +0.156 C 
BRANCH  13  15
ATOM     14  N   UNL     1       7.595  -3.004   0.000  0.00  0.00    -0.205 NA
ATOM     15  C   UNL     1       8.309  -2.591   0.000  0.00  0.00    +0.249 C 
ATOM     16  O   UNL     1       8.309  -1.766   0.000  0.00  0.00    -0.273 OA
BRANCH  14  17
ATOM     17  C   UNL     1       6.880  -2.591   0.000  0.00  0.00    +0.115 C 
BRANCH  17  18
ATOM     18  C   UNL     1       6.166  -3.004   0.000  0.00  0.00    +0.023 C 
BRANCH  18  20
ATOM     19  C   UNL     1       4.737  -3.004   0.000  0.00  0.00    +0.000 C 
ATOM     20  C   UNL     1       5.452  -2.591   0.000  0.00  0.00    +0.002 C 
ENDBRANCH  18  20
ENDBRANCH  17  18
ENDBRANCH  14  17
ENDBRANCH  13  15
ENDBRANCH   1  13
TORSDOF 7
