REMARK  Name = 
REMARK  2 active torsions:
REMARK  status: ('A' for Active; 'I' for Inactive)
REMARK    1  A    between atoms: C_4  and  N_5
REMARK    2  A    between atoms: N_8  and  C_9
REMARK                            x       y       z     vdW  Elec       q    Type
REMARK                         _______ _______ _______ _____ _____    ______ ____
ROOT
ATOM      1  N   UNL     1       4.492  -3.548   0.000  0.00  0.00    -0.142 NA
ATOM      2  C   UNL     1       4.157  -4.302   0.000  0.00  0.00    +0.345 C 
ATOM      3  N   UNL     1       4.642  -4.970   0.000  0.00  0.00    -0.189 NA
ATOM      4  O   UNL     1       3.336  -4.388   0.000  0.00  0.00    -0.249 OA
ENDROOT
BRANCH   1  10
ATOM      5  C   UNL     1       3.595  -0.786   0.000  0.00  0.00    +0.054 C 
ATOM      6  C   UNL     1       3.595  -1.611   0.000  0.00  0.00    +0.082 A 
ATOM      7  N   UNL     1       2.928  -2.096   0.000  0.00  0.00    -0.172 NA
ATOM      8  N   UNL     1       3.182  -2.881   0.000  0.00  0.00    -0.234 N 
ATOM      9  C   UNL     1       2.697  -3.548   0.000  0.00  0.00    +0.155 C 
ATOM     10  C   UNL     1       4.007  -2.881   0.000  0.00  0.00    +0.154 A 
ATOM     11  C   UNL     1       4.262  -2.096   0.000  0.00  0.00    +0.052 A 
ENDBRANCH   1  10
BRANCH   3  12
ATOM     12  C   UNL     1       4.306  -5.723   0.000  0.00  0.00    +0.097 C 
ATOM     13  C   UNL     1       3.499  -5.895   0.000  0.00  0.00    +0.022 C 
ATOM     14  C   UNL     1       3.413  -6.715   0.000  0.00  0.00    +0.002 C 
ATOM     15  C   UNL     1       4.167  -7.051   0.000  0.00  0.00    +0.002 C 
ATOM     16  C   UNL     1       4.719  -6.438   0.000  0.00  0.00    +0.022 C 
ENDBRANCH   3  12
TORSDOF 2
