REMARK  Name = 
REMARK  2 active torsions:
REMARK  status: ('A' for Active; 'I' for Inactive)
REMARK    1  A    between atoms: N_1  and  C_7
REMARK    2  A    between atoms: C_10  and  C_16
REMARK                            x       y       z     vdW  Elec       q    Type
REMARK                         _______ _______ _______ _____ _____    ______ ____
ROOT
ATOM      1  N   UNL     1       0.714   4.295   0.000  0.00  0.00    -0.253 N 
ATOM      2  C   UNL     1       0.000   4.708   0.000  0.00  0.00    +0.115 A 
ATOM      3  C   UNL     1       0.000   5.535   0.000  0.00  0.00    +0.192 A 
ATOM      4  F   UNL     1      -0.718   5.948   0.000  0.00  0.00    -0.200 F 
ATOM      5  C   UNL     1       0.714   5.948   0.000  0.00  0.00    +0.203 A 
ATOM      6  N   UNL     1       1.428   5.535   0.000  0.00  0.00    -0.172 NA
ATOM      7  N   UNL     1       0.714   6.775   0.000  0.00  0.00    -0.105 NA
ATOM      8  C   UNL     1       1.428   4.708   0.000  0.00  0.00    +0.353 A 
ATOM      9  O   UNL     1       2.146   4.295   0.000  0.00  0.00    -0.244 OA
ENDROOT
BRANCH   1  10
ATOM     10  C   UNL     1       0.714   3.473   0.000  0.00  0.00    +0.220 C 
ATOM     11  C   UNL     1       1.382   2.989   0.000  0.00  0.00    +0.114 C 
ATOM     12  S   UNL     1       1.127   2.204   0.000  0.00  0.00    -0.105 S 
ATOM     13  C   UNL     1       0.300   2.204   0.000  0.00  0.00    +0.198 C 
ATOM     14  O   UNL     1       0.046   2.989   0.000  0.00  0.00    -0.323 OA
BRANCH  13  15
ATOM     15  C   UNL     1      -0.184   1.532   0.000  0.00  0.00    +0.223 C 
ATOM     16  O   UNL     1       0.150   0.781   0.000  0.00  0.00    -0.217 OA
ENDBRANCH  13  15
ENDBRANCH   1  10
TORSDOF 2
