REMARK  Name = 
REMARK  4 active torsions:
REMARK  status: ('A' for Active; 'I' for Inactive)
REMARK    1  A    between atoms: C_7  and  N_8
REMARK    2  A    between atoms: N_11  and  C_12
REMARK    3  A    between atoms: C_12  and  C_13
REMARK    4  A    between atoms: C_13  and  N_16
REMARK                            x       y       z     vdW  Elec       q    Type
REMARK                         _______ _______ _______ _____ _____    ______ ____
ROOT
ATOM      1  N   UNL     1       2.143  -7.013   0.000  0.00  0.00    -0.159 NA
ATOM      2  C   UNL     1       2.858  -7.425   0.000  0.00  0.00    +0.344 C 
ATOM      3  N   UNL     1       2.858  -8.250   0.000  0.00  0.00    -0.186 NA
ATOM      4  O   UNL     1       3.572  -7.013   0.000  0.00  0.00    -0.249 OA
ENDROOT
BRANCH   1  10
ATOM      5  C   UNL     1       1.429  -3.300   0.000  0.00  0.00    +0.114 C 
ATOM      6  N   UNL     1       2.143  -3.712   0.000  0.00  0.00    -0.290 N 
ATOM      7  C   UNL     1       2.143  -4.537   0.000  0.00  0.00    +0.132 A 
ATOM      8  N   UNL     1       1.429  -4.950   0.000  0.00  0.00    -0.228 NA
ATOM      9  C   UNL     1       1.429  -5.775   0.000  0.00  0.00    +0.117 A 
ATOM     10  C   UNL     1       2.143  -6.188   0.000  0.00  0.00    +0.094 A 
ATOM     11  C   UNL     1       2.858  -5.775   0.000  0.00  0.00    +0.021 A 
ATOM     12  C   UNL     1       2.858  -4.950   0.000  0.00  0.00    +0.036 A 
ATOM     13  C   UNL     1       2.858  -3.300   0.000  0.00  0.00    +0.114 C 
ENDBRANCH   1  10
BRANCH   3  14
ATOM     14  C   UNL     1       3.572  -8.662   0.000  0.00  0.00    +0.131 C 
BRANCH  14  15
ATOM     15  C   UNL     1       3.572  -9.488   0.000  0.00  0.00    +0.066 C 
ATOM     16  C   UNL     1       4.397  -9.488   0.000  0.00  0.00    +0.018 C 
ATOM     17  C   UNL     1       2.747  -9.488   0.000  0.00  0.00    +0.018 C 
BRANCH  15  18
ATOM     18  N   UNL     1       3.572 -10.312   0.000  0.00  0.00    -0.269 NA
ATOM     19  C   UNL     1       2.858 -10.725   0.000  0.00  0.00    +0.105 C 
ATOM     20  C   UNL     1       2.858 -11.550   0.000  0.00  0.00    +0.159 C 
ATOM     21  O   UNL     1       3.572 -11.963   0.000  0.00  0.00    -0.351 OA
ATOM     22  C   UNL     1       4.287 -11.550   0.000  0.00  0.00    +0.159 C 
ATOM     23  C   UNL     1       4.287 -10.725   0.000  0.00  0.00    +0.105 C 
ENDBRANCH  15  18
ENDBRANCH  14  15
ENDBRANCH   3  14
TORSDOF 4
