REMARK  Name = 
REMARK  4 active torsions:
REMARK  status: ('A' for Active; 'I' for Inactive)
REMARK    1  A    between atoms: C_2  and  C_12
REMARK    2  A    between atoms: N_3  and  C_4
REMARK    3  A    between atoms: C_4  and  C_5
REMARK    4  A    between atoms: C_5  and  C_6
REMARK                            x       y       z     vdW  Elec       q    Type
REMARK                         _______ _______ _______ _____ _____    ______ ____
ROOT
ATOM      1  O   UNL     1       0.352  -3.117   0.000  0.00  0.00    -0.273 OA
ATOM      2  C   UNL     1       0.352  -2.292   0.000  0.00  0.00    +0.241 C 
ATOM      3  N   UNL     1       1.066  -1.880   0.000  0.00  0.00    -0.205 NA
ENDROOT
BRANCH   2   4
ATOM      4  C   UNL     1      -0.363  -1.880   0.000  0.00  0.00    +0.078 C 
ATOM      5  C   UNL     1      -0.301  -1.057   0.000  0.00  0.00    +0.009 C 
ATOM      6  C   UNL     1      -0.906  -0.496   0.000  0.00  0.00    +0.000 C 
ATOM      7  C   UNL     1      -1.722  -0.619   0.000  0.00  0.00    +0.000 C 
ATOM      8  C   UNL     1      -2.134  -1.333   0.000  0.00  0.00    +0.000 C 
ATOM      9  C   UNL     1      -1.833  -2.101   0.000  0.00  0.00    +0.000 C 
ATOM     10  C   UNL     1      -1.044  -2.345   0.000  0.00  0.00    +0.009 C 
ENDBRANCH   2   4
BRANCH   3  11
ATOM     11  C   UNL     1       1.781  -2.292   0.000  0.00  0.00    +0.123 C 
BRANCH  11  12
ATOM     12  C   UNL     1       2.495  -1.880   0.000  0.00  0.00    +0.091 C 
BRANCH  12  13
ATOM     13  C   UNL     1       3.210  -2.292   0.000  0.00  0.00    +0.167 A 
ATOM     14  N   UNL     1       3.296  -3.113   0.000  0.00  0.00    -0.173 NA
ATOM     15  C   UNL     1       4.103  -3.284   0.000  0.00  0.00    +0.388 A 
ATOM     16  O   UNL     1       4.438  -4.038   0.000  0.00  0.00    -0.241 OA
ATOM     17  N   UNL     1       4.515  -2.570   0.000  0.00  0.00    -0.087 NA
ATOM     18  N   UNL     1       3.963  -1.957   0.000  0.00  0.00    -0.129 NA
ENDBRANCH  12  13
ENDBRANCH  11  12
ENDBRANCH   3  11
TORSDOF 4
