REMARK  Name = 
REMARK  6 active torsions:
REMARK  status: ('A' for Active; 'I' for Inactive)
REMARK    1  A    between atoms: N_1  and  C_12
REMARK    2  A    between atoms: N_2  and  C_14
REMARK    3  A    between atoms: N_4  and  C_15
REMARK    4  A    between atoms: C_5  and  C_13
REMARK    5  A    between atoms: C_12  and  C_13
REMARK    6  A    between atoms: C_15  and  C_21
REMARK                            x       y       z     vdW  Elec       q    Type
REMARK                         _______ _______ _______ _____ _____    ______ ____
ROOT
ATOM      1  C   UNL     1      -0.900  -4.408   0.000  0.00  0.00    +0.197 C 
ATOM      2  O   UNL     1      -0.562  -5.162   0.000  0.00  0.00    -0.289 OA
ENDROOT
BRANCH   1   3
ATOM      3  C   UNL     1      -0.412  -3.742   0.000  0.00  0.00    +0.049 A 
ATOM      4  C   UNL     1       0.412  -3.742   0.000  0.00  0.00    +0.017 A 
ATOM      5  C   UNL     1       0.667  -2.958   0.000  0.00  0.00    +0.037 A 
ATOM      6  N   UNL     1       0.000  -2.475   0.000  0.00  0.00    -0.332 N 
ATOM      7  C   UNL     1       1.450  -2.704   0.000  0.00  0.00    +0.050 C 
ATOM      8  C   UNL     1      -0.671  -2.958   0.000  0.00  0.00    +0.040 A 
ATOM      9  C   UNL     1      -1.454  -2.704   0.000  0.00  0.00    +0.050 C 
BRANCH   6  10
ATOM     10  C   UNL     1       0.000  -1.650   0.000  0.00  0.00    +0.107 C 
ATOM     11  C   UNL     1      -0.717  -1.238   0.000  0.00  0.00    +0.029 C 
BRANCH  10  12
ATOM     12  C   UNL     1       0.713  -1.238   0.000  0.00  0.00    -0.002 A 
ATOM     13  C   UNL     1       0.713  -0.412   0.000  0.00  0.00    -0.002 A 
ATOM     14  C   UNL     1       1.425   0.000   0.000  0.00  0.00    -0.000 A 
ATOM     15  C   UNL     1       2.142  -0.412   0.000  0.00  0.00    -0.000 A 
ATOM     16  C   UNL     1       2.142  -1.238   0.000  0.00  0.00    -0.000 A 
ATOM     17  C   UNL     1       1.425  -1.650   0.000  0.00  0.00    -0.002 A 
ENDBRANCH  10  12
ENDBRANCH   6  10
ENDBRANCH   1   3
BRANCH   1  18
ATOM     18  C   UNL     1      -1.721  -4.325   0.000  0.00  0.00    +0.183 C 
BRANCH  18  19
ATOM     19  N   UNL     1      -2.204  -4.992   0.000  0.00  0.00    -0.239 N 
ATOM     20  C   UNL     1      -1.871  -5.746   0.000  0.00  0.00    +0.294 A 
ATOM     21  O   UNL     1      -1.050  -5.829   0.000  0.00  0.00    -0.264 OA
ATOM     22  C   UNL     1      -2.354  -6.412   0.000  0.00  0.00    +0.213 A 
ATOM     23  C   UNL     1      -3.175  -6.325   0.000  0.00  0.00    +0.116 A 
ATOM     24  N   UNL     1      -3.508  -5.571   0.000  0.00  0.00    -0.255 N 
ATOM     25  F   UNL     1      -2.017  -7.167   0.000  0.00  0.00    -0.198 F 
ATOM     26  C   UNL     1      -3.025  -4.904   0.000  0.00  0.00    +0.336 A 
ATOM     27  O   UNL     1      -3.362  -4.150   0.000  0.00  0.00    -0.246 OA
BRANCH  24  28
ATOM     28  C   UNL     1      -4.329  -5.487   0.000  0.00  0.00    +0.208 C 
ATOM     29  C   UNL     1      -4.883  -6.100   0.000  0.00  0.00    +0.057 C 
ATOM     30  C   UNL     1      -5.638  -5.763   0.000  0.00  0.00    +0.037 C 
ATOM     31  C   UNL     1      -5.550  -4.942   0.000  0.00  0.00    +0.144 C 
ATOM     32  O   UNL     1      -4.742  -4.771   0.000  0.00  0.00    -0.335 OA
ENDBRANCH  24  28
ENDBRANCH  18  19
ENDBRANCH   1  18
TORSDOF 6
