REMARK  Name = 
REMARK  5 active torsions:
REMARK  status: ('A' for Active; 'I' for Inactive)
REMARK    1  A    between atoms: C_2  and  C_3
REMARK    2  A    between atoms: C_3  and  N_4
REMARK    3  A    between atoms: C_8  and  N_9
REMARK    4  A    between atoms: N_12  and  C_13
REMARK    5  A    between atoms: C_13  and  C_15
REMARK                            x       y       z     vdW  Elec       q    Type
REMARK                         _______ _______ _______ _____ _____    ______ ____
ROOT
ATOM      1  N   UNL     1       0.715  -2.888   0.000  0.00  0.00    -0.142 NA
ATOM      2  C   UNL     1       1.429  -2.475   0.000  0.00  0.00    +0.345 C 
ATOM      3  N   UNL     1       2.143  -2.888   0.000  0.00  0.00    -0.189 NA
ATOM      4  O   UNL     1       1.429  -1.650   0.000  0.00  0.00    -0.249 OA
ENDROOT
BRANCH   1   6
ATOM      5  N   UNL     1      -0.754  -2.811   0.000  0.00  0.00    -0.236 N 
ATOM      6  C   UNL     1       0.000  -2.475   0.000  0.00  0.00    +0.155 A 
ATOM      7  C   UNL     1      -0.086  -1.655   0.000  0.00  0.00    +0.058 A 
ATOM      8  C   UNL     1      -0.893  -1.483   0.000  0.00  0.00    +0.123 A 
ATOM      9  N   UNL     1      -1.306  -2.197   0.000  0.00  0.00    -0.167 NA
BRANCH   5  10
ATOM     10  C   UNL     1      -0.925  -3.618   0.000  0.00  0.00    +0.129 C 
BRANCH  10  12
ATOM     11  C   UNL     1      -1.881  -4.679   0.000  0.00  0.00    +0.002 C 
ATOM     12  C   UNL     1      -1.710  -3.873   0.000  0.00  0.00    +0.026 C 
ENDBRANCH  10  12
ENDBRANCH   5  10
ENDBRANCH   1   6
BRANCH   3  13
ATOM     13  C   UNL     1       2.858  -2.475   0.000  0.00  0.00    +0.097 C 
ATOM     14  C   UNL     1       2.858  -1.650   0.000  0.00  0.00    +0.023 C 
BRANCH  13  15
ATOM     15  C   UNL     1       3.572  -2.888   0.000  0.00  0.00    +0.025 C 
ATOM     16  C   UNL     1       3.572  -3.712   0.000  0.00  0.00    +0.034 C 
ATOM     17  C   UNL     1       4.287  -4.125   0.000  0.00  0.00    +0.142 C 
ATOM     18  O   UNL     1       5.001  -3.712   0.000  0.00  0.00    -0.354 OA
ATOM     19  C   UNL     1       5.001  -2.888   0.000  0.00  0.00    +0.142 C 
ATOM     20  C   UNL     1       4.287  -2.475   0.000  0.00  0.00    +0.034 C 
ENDBRANCH  13  15
ENDBRANCH   3  13
TORSDOF 5
