REMARK  Name = 
REMARK  2 active torsions:
REMARK  status: ('A' for Active; 'I' for Inactive)
REMARK    1  A    between atoms: N_9  and  C_10
REMARK    2  A    between atoms: N_12  and  C_13
REMARK                            x       y       z     vdW  Elec       q    Type
REMARK                         _______ _______ _______ _____ _____    ______ ____
ROOT
ATOM      1  C   UNL     1       3.271  13.567   0.000  0.00  0.00    +0.033 C 
ATOM      2  C   UNL     1       3.606  12.814   0.000  0.00  0.00    -0.003 A 
ATOM      3  C   UNL     1       3.121  12.146   0.000  0.00  0.00    +0.096 A 
ATOM      4  N   UNL     1       3.457  11.393   0.000  0.00  0.00    -0.228 NA
ATOM      5  C   UNL     1       4.277  11.306   0.000  0.00  0.00    +0.156 A 
ATOM      6  N   UNL     1       4.613  10.553   0.000  0.00  0.00    -0.142 NA
ATOM      7  C   UNL     1       4.128   9.885   0.000  0.00  0.00    +0.345 C 
ATOM      8  N   UNL     1       4.463   9.132   0.000  0.00  0.00    -0.186 NA
ATOM      9  O   UNL     1       3.307   9.972   0.000  0.00  0.00    -0.249 OA
ATOM     10  C   UNL     1       4.762  11.974   0.000  0.00  0.00    +0.036 A 
ATOM     11  C   UNL     1       4.426  12.727   0.000  0.00  0.00    +0.000 A 
ENDROOT
BRANCH   8  12
ATOM     12  C   UNL     1       3.978   8.464   0.000  0.00  0.00    +0.126 C 
ATOM     13  C   UNL     1       3.153   8.464   0.000  0.00  0.00    +0.109 C 
ATOM     14  C   UNL     1       2.898   7.680   0.000  0.00  0.00    +0.227 C 
ATOM     15  O   UNL     1       2.114   7.425   0.000  0.00  0.00    -0.275 OA
ATOM     16  N   UNL     1       3.566   7.195   0.000  0.00  0.00    -0.279 N 
ATOM     17  C   UNL     1       4.233   7.680   0.000  0.00  0.00    +0.115 C 
BRANCH  16  18
ATOM     18  C   UNL     1       3.566   6.370   0.000  0.00  0.00    +0.076 C 
ATOM     19  C   UNL     1       3.153   5.655   0.000  0.00  0.00    +0.022 C 
ATOM     20  C   UNL     1       3.978   5.655   0.000  0.00  0.00    +0.022 C 
ENDBRANCH  16  18
ENDBRANCH   8  12
TORSDOF 2
