REMARK  Name = 
REMARK  2 active torsions:
REMARK  status: ('A' for Active; 'I' for Inactive)
REMARK    1  A    between atoms: C_1  and  N_3
REMARK    2  A    between atoms: C_12  and  C_16
REMARK                            x       y       z     vdW  Elec       q    Type
REMARK                         _______ _______ _______ _____ _____    ______ ____
ROOT
ATOM      1  C   UNL     1       3.276   1.238   0.000  0.00  0.00    +0.136 A 
ATOM      2  N   UNL     1       3.993   0.825   0.000  0.00  0.00    -0.209 NA
ATOM      3  C   UNL     1       3.993   0.000   0.000  0.00  0.00    +0.201 A 
ATOM      4  N   UNL     1       3.276  -0.413   0.000  0.00  0.00    -0.205 NA
ATOM      5  C   UNL     1       2.563   0.000   0.000  0.00  0.00    +0.167 A 
ATOM      6  N   UNL     1       1.780  -0.254   0.000  0.00  0.00    -0.225 NA
ATOM      7  C   UNL     1       1.292   0.413   0.000  0.00  0.00    +0.101 A 
ATOM      8  C   UNL     1       1.780   1.084   0.000  0.00  0.00    +0.027 A 
ATOM      9  C   UNL     1       2.563   0.825   0.000  0.00  0.00    +0.069 A 
ENDROOT
BRANCH   1  10
ATOM     10  N   UNL     1       3.276   2.063   0.000  0.00  0.00    -0.291 N 
ATOM     11  C   UNL     1       3.947   2.551   0.000  0.00  0.00    +0.095 C 
ATOM     12  C   UNL     1       3.688   3.334   0.000  0.00  0.00    +0.054 C 
ATOM     13  C   UNL     1       2.863   3.334   0.000  0.00  0.00    +0.146 C 
ATOM     14  O   UNL     1       2.059   3.505   0.000  0.00  0.00    -0.224 OA
ATOM     15  C   UNL     1       2.609   2.551   0.000  0.00  0.00    +0.122 C 
BRANCH  13  16
ATOM     16  C   UNL     1       2.951   4.151   0.000  0.00  0.00    +0.032 C 
ATOM     17  C   UNL     1       2.284   4.635   0.000  0.00  0.00    +0.003 C 
ENDBRANCH  13  16
ENDBRANCH   1  10
TORSDOF 2
