REMARK  Name = 
REMARK  5 active torsions:
REMARK  status: ('A' for Active; 'I' for Inactive)
REMARK    1  A    between atoms: C_2  and  C_3
REMARK    2  A    between atoms: C_3  and  O_4
REMARK    3  A    between atoms: C_3  and  C_10
REMARK    4  A    between atoms: O_4  and  C_5
REMARK    5  A    between atoms: N_12  and  C_13
REMARK                            x       y       z     vdW  Elec       q    Type
REMARK                         _______ _______ _______ _____ _____    ______ ____
ROOT
ATOM      1  C   UNL     1       2.143  -2.888   0.000  0.00  0.00    +0.273 C 
ATOM      2  N   UNL     1       2.858  -2.475   0.000  0.00  0.00    -0.172 NA
ATOM      3  O   UNL     1       2.143  -3.712   0.000  0.00  0.00    -0.270 OA
ENDROOT
BRANCH   2   4
ATOM      4  C   UNL     1       3.572  -2.888   0.000  0.00  0.00    +0.131 A 
ATOM      5  C   UNL     1       3.572  -3.712   0.000  0.00  0.00    +0.214 A 
ATOM      6  O   UNL     1       2.858  -4.125   0.000  0.00  0.00    -0.285 OA
ATOM      7  C   UNL     1       4.287  -4.125   0.000  0.00  0.00    +0.064 A 
ATOM      8  C   UNL     1       5.001  -3.712   0.000  0.00  0.00    +0.102 A 
ATOM      9  N   UNL     1       5.001  -2.888   0.000  0.00  0.00    -0.241 NA
ATOM     10  C   UNL     1       4.287  -2.475   0.000  0.00  0.00    +0.119 A 
ENDBRANCH   2   4
BRANCH   1  11
ATOM     11  C   UNL     1       1.429  -2.475   0.000  0.00  0.00    +0.193 C 
BRANCH  11  13
ATOM     12  C   UNL     1       2.143  -1.238   0.000  0.00  0.00    +0.003 C 
ATOM     13  C   UNL     1       1.429  -1.650   0.000  0.00  0.00    +0.039 C 
ENDBRANCH  11  13
BRANCH  11  14
ATOM     14  O   UNL     1       0.715  -2.888   0.000  0.00  0.00    -0.349 OA
BRANCH  14  15
ATOM     15  C   UNL     1       0.000  -2.475   0.000  0.00  0.00    +0.116 C 
ATOM     16  C   UNL     1      -0.086  -1.655   0.000  0.00  0.00    +0.030 C 
ATOM     17  C   UNL     1      -0.893  -1.483   0.000  0.00  0.00    +0.003 C 
ATOM     18  C   UNL     1      -1.306  -2.197   0.000  0.00  0.00    +0.003 C 
ATOM     19  C   UNL     1      -0.754  -2.811   0.000  0.00  0.00    +0.030 C 
ENDBRANCH  14  15
ENDBRANCH  11  14
ENDBRANCH   1  11
TORSDOF 5
