REMARK  Name = 
REMARK  2 active torsions:
REMARK  status: ('A' for Active; 'I' for Inactive)
REMARK    1  A    between atoms: C_1  and  C_2
REMARK    2  A    between atoms: C_9  and  C_16
REMARK                            x       y       z     vdW  Elec       q    Type
REMARK                         _______ _______ _______ _____ _____    ______ ____
ROOT
ATOM      1  C   UNL     1       3.254   0.117   0.000  0.00  0.00    +0.270 C 
ATOM      2  O   UNL     1       2.433   0.200   0.000  0.00  0.00    -0.268 OA
ATOM      3  N   UNL     1       3.587  -0.637   0.000  0.00  0.00    -0.274 N 
ATOM      4  C   UNL     1       4.396  -0.808   0.000  0.00  0.00    +0.094 C 
ATOM      5  C   UNL     1       4.479  -1.629   0.000  0.00  0.00    +0.023 C 
ATOM      6  C   UNL     1       3.729  -1.967   0.000  0.00  0.00    +0.024 C 
ATOM      7  C   UNL     1       3.175  -1.354   0.000  0.00  0.00    +0.109 C 
ENDROOT
BRANCH   1   8
ATOM      8  C   UNL     1       3.737   0.783   0.000  0.00  0.00    +0.172 A 
ATOM      9  N   UNL     1       3.483   1.567   0.000  0.00  0.00    -0.163 NA
ATOM     10  N   UNL     1       4.150   2.054   0.000  0.00  0.00    -0.246 N 
ATOM     11  C   UNL     1       4.817   1.567   0.000  0.00  0.00    +0.115 A 
ATOM     12  C   UNL     1       4.150   2.879   0.000  0.00  0.00    +0.154 C 
ATOM     13  C   UNL     1       4.562   0.783   0.000  0.00  0.00    +0.131 A 
ATOM     14  N   UNL     1       5.046   0.117   0.000  0.00  0.00    -0.125 NA
ENDBRANCH   1   8
BRANCH   7  15
ATOM     15  C   UNL     1       2.354  -1.438   0.000  0.00  0.00    +0.202 C 
ATOM     16  O   UNL     1       2.021  -2.192   0.000  0.00  0.00    -0.219 OA
ENDBRANCH   7  15
TORSDOF 2
REMARK  Name = 
REMARK  2 active torsions:
REMARK  status: ('A' for Active; 'I' for Inactive)
REMARK    1  A    between atoms: C_1  and  C_2
REMARK    2  A    between atoms: C_9  and  C_16
REMARK                            x       y       z     vdW  Elec       q    Type
REMARK                         _______ _______ _______ _____ _____    ______ ____
ROOT
ATOM      1 CL   UNL     1       0.000   0.000   0.000  0.00  0.00    +0.000 Cl
ENDROOT
TORSDOF 0
