REMARK  Name = 
REMARK  1 active torsions:
REMARK  status: ('A' for Active; 'I' for Inactive)
REMARK    1  A    between atoms: C_5  and  C_7
REMARK                            x       y       z     vdW  Elec       q    Type
REMARK                         _______ _______ _______ _____ _____    ______ ____
ROOT
ATOM      1  C   UNL     1       1.429  -2.475   0.000  0.00  0.00    +0.019 C 
ATOM      2  C   UNL     1       1.429  -1.650   0.000  0.00  0.00    +0.009 C 
ATOM      3  C   UNL     1       0.715  -1.238   0.000  0.00  0.00    +0.058 C 
ATOM      4  C   UNL     1       0.000  -1.650   0.000  0.00  0.00    +0.095 C 
ATOM      5  N   UNL     1       0.000  -2.475   0.000  0.00  0.00    -0.218 NA
ATOM      6  C   UNL     1       0.715  -2.888   0.000  0.00  0.00    +0.089 C 
ENDROOT
BRANCH   3   7
ATOM      7  C   UNL     1       0.715  -0.412   0.000  0.00  0.00    +0.063 A 
ATOM      8  N   UNL     1       1.429   0.000   0.000  0.00  0.00    -0.228 NA
ATOM      9  C   UNL     1       1.429   0.825   0.000  0.00  0.00    +0.199 A 
ATOM     10  N   UNL     1       0.715   1.238   0.000  0.00  0.00    -0.222 NA
ATOM     11  C   UNL     1       0.000   0.825   0.000  0.00  0.00    +0.102 A 
ATOM     12  C   UNL     1       0.000   0.000   0.000  0.00  0.00    +0.035 A 
ENDBRANCH   3   7
TORSDOF 1
