REMARK  Name = 
REMARK  5 active torsions:
REMARK  status: ('A' for Active; 'I' for Inactive)
REMARK    1  A    between atoms: C_2  and  S_3
REMARK    2  A    between atoms: S_3  and  C_4
REMARK    3  A    between atoms: C_9  and  N_10
REMARK    4  A    between atoms: N_13  and  C_14
REMARK    5  A    between atoms: N_17  and  C_18
REMARK                            x       y       z     vdW  Elec       q    Type
REMARK                         _______ _______ _______ _____ _____    ______ ____
ROOT
ATOM      1  N   UNL     1       5.609   3.115   0.000  0.00  0.00    -0.188 NA
ATOM      2  C   UNL     1       5.609   2.290   0.000  0.00  0.00    +0.344 C 
ATOM      3  N   UNL     1       4.895   1.878   0.000  0.00  0.00    -0.158 NA
ATOM      4  O   UNL     1       6.324   1.878   0.000  0.00  0.00    -0.249 OA
ENDROOT
BRANCH   1   6
ATOM      5  C   UNL     1       6.324   4.353   0.000  0.00  0.00    +0.068 C 
ATOM      6  C   UNL     1       6.324   3.528   0.000  0.00  0.00    +0.107 C 
ATOM      7  C   UNL     1       7.038   3.115   0.000  0.00  0.00    +0.023 C 
ATOM      8  C   UNL     1       7.753   3.528   0.000  0.00  0.00    +0.002 C 
ATOM      9  C   UNL     1       7.753   4.353   0.000  0.00  0.00    +0.001 C 
ATOM     10  C   UNL     1       7.038   4.765   0.000  0.00  0.00    +0.013 C 
BRANCH   5  11
ATOM     11  S   UNL     1       5.609   4.765   0.000  0.00  0.00    -0.139 S 
BRANCH  11  13
ATOM     12  C   UNL     1       4.895   6.003   0.000  0.00  0.00    +0.013 C 
ATOM     13  C   UNL     1       5.609   5.590   0.000  0.00  0.00    +0.058 C 
ENDBRANCH  11  13
ENDBRANCH   5  11
ENDBRANCH   1   6
BRANCH   3  14
ATOM     14  C   UNL     1       4.895   1.053   0.000  0.00  0.00    +0.114 A 
ATOM     15  C   UNL     1       4.227   0.568   0.000  0.00  0.00    +0.113 A 
ATOM     16  N   UNL     1       4.482  -0.217   0.000  0.00  0.00    -0.248 N 
ATOM     17  N   UNL     1       5.307  -0.217   0.000  0.00  0.00    -0.166 NA
ATOM     18  C   UNL     1       5.562   0.568   0.000  0.00  0.00    +0.138 A 
BRANCH  16  19
ATOM     19  C   UNL     1       3.997  -0.884   0.000  0.00  0.00    +0.128 C 
ATOM     20  C   UNL     1       4.333  -1.638   0.000  0.00  0.00    +0.028 C 
ENDBRANCH  16  19
ENDBRANCH   3  14
TORSDOF 5
