REMARK  Name = 
REMARK  4 active torsions:
REMARK  status: ('A' for Active; 'I' for Inactive)
REMARK    1  A    between atoms: C_5  and  C_7
REMARK    2  A    between atoms: N_12  and  C_13
REMARK    3  A    between atoms: C_13  and  C_14
REMARK    4  A    between atoms: C_14  and  C_16
REMARK                            x       y       z     vdW  Elec       q    Type
REMARK                         _______ _______ _______ _____ _____    ______ ____
ROOT
ATOM      1  C   UNL     1       2.568  -5.711   0.000  0.00  0.00    +0.107 A 
ATOM      2  N   UNL     1       1.748  -5.625   0.000  0.00  0.00    -0.166 NA
ATOM      3  N   UNL     1       1.263  -6.292   0.000  0.00  0.00    -0.214 N 
ATOM      4  C   UNL     1       1.598  -7.046   0.000  0.00  0.00    +0.277 A 
ATOM      5  O   UNL     1       1.113  -7.713   0.000  0.00  0.00    -0.266 OA
ATOM      6  C   UNL     1       2.419  -7.132   0.000  0.00  0.00    +0.064 A 
ATOM      7  C   UNL     1       2.904  -6.465   0.000  0.00  0.00    +0.026 A 
ENDROOT
BRANCH   1  11
ATOM      8  C   UNL     1       3.466  -2.949   0.000  0.00  0.00    +0.038 C 
ATOM      9  C   UNL     1       3.466  -3.774   0.000  0.00  0.00    +0.008 A 
ATOM     10  S   UNL     1       2.798  -4.259   0.000  0.00  0.00    -0.090 S 
ATOM     11  C   UNL     1       3.053  -5.044   0.000  0.00  0.00    +0.048 A 
ATOM     12  C   UNL     1       3.878  -5.044   0.000  0.00  0.00    +0.008 A 
ATOM     13  C   UNL     1       4.133  -4.259   0.000  0.00  0.00    +0.003 A 
ENDBRANCH   1  11
BRANCH   3  14
ATOM     14  C   UNL     1       0.442  -6.206   0.000  0.00  0.00    +0.168 C 
BRANCH  14  15
ATOM     15  C   UNL     1      -0.043  -6.873   0.000  0.00  0.00    +0.199 C 
ATOM     16  O   UNL     1       0.293  -7.627   0.000  0.00  0.00    -0.216 OA
BRANCH  15  17
ATOM     17  C   UNL     1      -0.863  -6.787   0.000  0.00  0.00    +0.012 A 
ATOM     18  C   UNL     1      -1.199  -6.034   0.000  0.00  0.00    +0.028 A 
ATOM     19  C   UNL     1      -2.019  -5.947   0.000  0.00  0.00    +0.140 A 
ATOM     20  F   UNL     1      -2.355  -5.194   0.000  0.00  0.00    -0.204 F 
ATOM     21  C   UNL     1      -2.504  -6.615   0.000  0.00  0.00    +0.030 A 
ATOM     22  C   UNL     1      -2.168  -7.369   0.000  0.00  0.00    +0.002 A 
ATOM     23  C   UNL     1      -1.348  -7.455   0.000  0.00  0.00    -0.002 A 
ENDBRANCH  15  17
ENDBRANCH  14  15
ENDBRANCH   3  14
TORSDOF 4
