REMARK  Name = 
REMARK  2 active torsions:
REMARK  status: ('A' for Active; 'I' for Inactive)
REMARK    1  A    between atoms: C_6  and  N_7
REMARK    2  A    between atoms: N_10  and  C_11
REMARK                            x       y       z     vdW  Elec       q    Type
REMARK                         _______ _______ _______ _____ _____    ______ ____
ROOT
ATOM      1  N   UNL     1      -4.213  -2.072   0.000  0.00  0.00    -0.142 NA
ATOM      2  C   UNL     1      -4.213  -2.897   0.000  0.00  0.00    +0.345 C 
ATOM      3  N   UNL     1      -4.927  -3.309   0.000  0.00  0.00    -0.190 NA
ATOM      4  O   UNL     1      -3.498  -3.309   0.000  0.00  0.00    -0.249 OA
ENDROOT
BRANCH   1   8
ATOM      5  C   UNL     1      -2.784   0.403   0.000  0.00  0.00    +0.052 C 
ATOM      6  C   UNL     1      -2.784  -0.422   0.000  0.00  0.00    +0.061 A 
ATOM      7  N   UNL     1      -3.498  -0.834   0.000  0.00  0.00    -0.233 NA
ATOM      8  C   UNL     1      -3.498  -1.659   0.000  0.00  0.00    +0.156 A 
ATOM      9  C   UNL     1      -2.784  -2.072   0.000  0.00  0.00    +0.036 A 
ATOM     10  C   UNL     1      -2.069  -1.659   0.000  0.00  0.00    +0.004 A 
ATOM     11  C   UNL     1      -2.069  -0.834   0.000  0.00  0.00    +0.015 A 
ENDBRANCH   1   8
BRANCH   3  12
ATOM     12  C   UNL     1      -4.927  -4.134   0.000  0.00  0.00    +0.085 C 
ATOM     13  C   UNL     1      -5.209  -4.909   0.000  0.00  0.00    +0.052 C 
ATOM     14  C   UNL     1      -4.679  -5.541   0.000  0.00  0.00    +0.144 C 
ATOM     15  O   UNL     1      -3.866  -5.398   0.000  0.00  0.00    -0.354 OA
ATOM     16  C   UNL     1      -3.584  -4.623   0.000  0.00  0.00    +0.144 C 
ATOM     17  C   UNL     1      -4.114  -3.991   0.000  0.00  0.00    +0.052 C 
ATOM     18  C   UNL     1      -5.739  -3.991   0.000  0.00  0.00    +0.022 C 
ENDBRANCH   3  12
TORSDOF 2
