REMARK  Name = 
REMARK  5 active torsions:
REMARK  status: ('A' for Active; 'I' for Inactive)
REMARK    1  A    between atoms: C_7  and  C_8
REMARK    2  A    between atoms: C_8  and  C_9
REMARK    3  A    between atoms: N_11  and  C_12
REMARK    4  A    between atoms: C_12  and  C_13
REMARK    5  A    between atoms: C_13  and  C_14
REMARK                            x       y       z     vdW  Elec       q    Type
REMARK                         _______ _______ _______ _____ _____    ______ ____
ROOT
ATOM      1  C   UNL     1       2.858  -4.125   0.000  0.00  0.00    +0.246 C 
ATOM      2  N   UNL     1       3.572  -3.712   0.000  0.00  0.00    -0.205 NA
ATOM      3  O   UNL     1       2.858  -4.950   0.000  0.00  0.00    -0.273 OA
ENDROOT
BRANCH   1   4
ATOM      4  C   UNL     1       2.143  -3.712   0.000  0.00  0.00    +0.117 C 
BRANCH   4   7
ATOM      5  C   UNL     1       1.956  -5.497   0.000  0.00  0.00    +0.055 C 
ATOM      6  C   UNL     1       1.343  -4.946   0.000  0.00  0.00    +0.097 A 
ATOM      7  C   UNL     1       1.429  -4.125   0.000  0.00  0.00    +0.037 A 
ATOM      8  C   UNL     1       0.675  -3.789   0.000  0.00  0.00    +0.151 A 
ATOM      9  C   UNL     1       0.504  -2.982   0.000  0.00  0.00    +0.075 C 
ATOM     10  O   UNL     1       0.123  -4.402   0.000  0.00  0.00    -0.358 OA
ATOM     11  N   UNL     1       0.536  -5.117   0.000  0.00  0.00    -0.082 NA
ENDBRANCH   4   7
ENDBRANCH   1   4
BRANCH   2  12
ATOM     12  C   UNL     1       4.287  -4.125   0.000  0.00  0.00    +0.119 C 
BRANCH  12  13
ATOM     13  C   UNL     1       5.001  -3.712   0.000  0.00  0.00    +0.045 C 
BRANCH  13  14
ATOM     14  C   UNL     1       5.716  -4.125   0.000  0.00  0.00    -0.047 C 
ATOM     15  C   UNL     1       5.716  -4.950   0.000  0.00  0.00    +0.022 C 
ATOM     16  C   UNL     1       6.430  -5.362   0.000  0.00  0.00    +0.005 C 
ATOM     17  C   UNL     1       7.145  -4.950   0.000  0.00  0.00    +0.005 C 
ATOM     18  C   UNL     1       7.145  -4.125   0.000  0.00  0.00    +0.025 C 
ATOM     19  C   UNL     1       6.430  -3.712   0.000  0.00  0.00    -0.035 C 
ENDBRANCH  13  14
ENDBRANCH  12  13
ENDBRANCH   2  12
TORSDOF 5
