REMARK  Name = 
REMARK  3 active torsions:
REMARK  status: ('A' for Active; 'I' for Inactive)
REMARK    1  A    between atoms: N_3  and  C_4
REMARK    2  A    between atoms: N_7  and  C_8
REMARK    3  A    between atoms: C_12  and  N_13
REMARK                            x       y       z     vdW  Elec       q    Type
REMARK                         _______ _______ _______ _____ _____    ______ ____
ROOT
ATOM      1  C   UNL     1       3.673   1.762   0.000  0.00  0.00    +0.118 C 
ATOM      2  C   UNL     1       3.586   2.582   0.000  0.00  0.00    +0.107 C 
ATOM      3  C   UNL     1       2.779   2.754   0.000  0.00  0.00    +0.024 C 
ATOM      4  C   UNL     1       2.367   2.039   0.000  0.00  0.00    +0.004 C 
ATOM      5  C   UNL     1       2.919   1.426   0.000  0.00  0.00    +0.024 C 
ENDROOT
BRANCH   2   6
ATOM      6  N   UNL     1       4.199   3.134   0.000  0.00  0.00    -0.308 N 
ATOM      7  C   UNL     1       5.006   2.963   0.000  0.00  0.00    +0.179 A 
ATOM      8  N   UNL     1       5.419   3.677   0.000  0.00  0.00    -0.222 NA
ATOM      9  C   UNL     1       4.867   4.290   0.000  0.00  0.00    +0.119 A 
ATOM     10  C   UNL     1       4.113   3.955   0.000  0.00  0.00    +0.098 A 
ENDBRANCH   2   6
BRANCH   1  13
ATOM     11  O   UNL     1       3.673   0.112   0.000  0.00  0.00    -0.249 OA
ATOM     12  C   UNL     1       4.387   0.524   0.000  0.00  0.00    +0.339 C 
ATOM     13  N   UNL     1       4.387   1.349   0.000  0.00  0.00    -0.187 NA
ATOM     14  N   UNL     1       5.101   0.112   0.000  0.00  0.00    -0.189 NA
BRANCH  14  15
ATOM     15  C   UNL     1       5.101  -0.713   0.000  0.00  0.00    +0.097 C 
ATOM     16  C   UNL     1       4.689  -1.428   0.000  0.00  0.00    +0.023 C 
ATOM     17  C   UNL     1       5.514  -1.428   0.000  0.00  0.00    +0.023 C 
ENDBRANCH  14  15
ENDBRANCH   1  13
TORSDOF 3
