REMARK  Name = 
REMARK  2 active torsions:
REMARK  status: ('A' for Active; 'I' for Inactive)
REMARK    1  A    between atoms: N_11  and  C_12
REMARK    2  A    between atoms: C_12  and  C_13
REMARK                            x       y       z     vdW  Elec       q    Type
REMARK                         _______ _______ _______ _____ _____    ______ ____
ROOT
ATOM      1  C   UNL     1      -1.429   1.650   0.000  0.00  0.00    +0.031 C 
ATOM      2  C   UNL     1      -0.715   2.062   0.000  0.00  0.00    -0.018 A 
ATOM      3  C   UNL     1       0.000   1.650   0.000  0.00  0.00    +0.032 A 
ATOM      4  C   UNL     1       0.715   2.062   0.000  0.00  0.00    +0.155 A 
ATOM      5  N   UNL     1       1.429   1.650   0.000  0.00  0.00    -0.142 NA
ATOM      6  C   UNL     1       2.143   2.062   0.000  0.00  0.00    +0.345 C 
ATOM      7  N   UNL     1       2.858   1.650   0.000  0.00  0.00    -0.186 NA
ATOM      8  O   UNL     1       2.143   2.888   0.000  0.00  0.00    -0.249 OA
ATOM      9  N   UNL     1       0.715   2.888   0.000  0.00  0.00    -0.233 NA
ATOM     10  C   UNL     1       0.000   3.300   0.000  0.00  0.00    +0.061 A 
ATOM     11  C   UNL     1       0.000   4.125   0.000  0.00  0.00    +0.052 C 
ATOM     12  C   UNL     1      -0.715   2.888   0.000  0.00  0.00    +0.011 A 
ENDROOT
BRANCH   7  13
ATOM     13  C   UNL     1       3.572   2.062   0.000  0.00  0.00    +0.128 C 
BRANCH  13  14
ATOM     14  C   UNL     1       4.287   1.650   0.000  0.00  0.00    +0.069 C 
ATOM     15  S   UNL     1       4.373   0.830   0.000  0.00  0.00    -0.139 S 
ATOM     16  C   UNL     1       5.180   0.658   0.000  0.00  0.00    +0.058 C 
ATOM     17  C   UNL     1       5.593   1.373   0.000  0.00  0.00    +0.013 C 
ATOM     18  C   UNL     1       5.040   1.986   0.000  0.00  0.00    +0.013 C 
ENDBRANCH  13  14
ENDBRANCH   7  13
TORSDOF 2
