REMARK  Name = 
REMARK  3 active torsions:
REMARK  status: ('A' for Active; 'I' for Inactive)
REMARK    1  A    between atoms: N_8  and  C_9
REMARK    2  A    between atoms: C_9  and  C_10
REMARK    3  A    between atoms: C_10  and  C_12
REMARK                            x       y       z     vdW  Elec       q    Type
REMARK                         _______ _______ _______ _____ _____    ______ ____
ROOT
ATOM      1  C   UNL     1       4.067   2.348   0.000  0.00  0.00    +0.157 C 
ATOM      2  N   UNL     1       3.352   1.935   0.000  0.00  0.00    -0.213 N 
ATOM      3  C   UNL     1       2.638   2.348   0.000  0.00  0.00    +0.294 A 
ATOM      4  O   UNL     1       2.638   3.173   0.000  0.00  0.00    -0.264 OA
ATOM      5  C   UNL     1       1.923   1.935   0.000  0.00  0.00    +0.138 A 
ATOM      6  C   UNL     1       1.923   1.110   0.000  0.00  0.00    +0.064 A 
ATOM      7  C   UNL     1       1.139   0.856   0.000  0.00  0.00    +0.123 A 
ATOM      8  N   UNL     1       0.654   1.523   0.000  0.00  0.00    -0.167 NA
ATOM      9  C   UNL     1       2.638   0.698   0.000  0.00  0.00    +0.123 A 
ATOM     10  N   UNL     1       1.139   2.190   0.000  0.00  0.00    -0.243 N 
ATOM     11  N   UNL     1       3.352   1.110   0.000  0.00  0.00    -0.165 NA
ENDROOT
BRANCH  10  12
ATOM     12  C   UNL     1       0.884   2.975   0.000  0.00  0.00    +0.165 C 
BRANCH  12  13
ATOM     13  C   UNL     1       0.077   3.147   0.000  0.00  0.00    +0.201 C 
ATOM     14  O   UNL     1      -0.475   2.533   0.000  0.00  0.00    -0.216 OA
BRANCH  13  15
ATOM     15  C   UNL     1      -0.178   3.931   0.000  0.00  0.00    +0.037 A 
ATOM     16  C   UNL     1       0.374   4.544   0.000  0.00  0.00    +0.139 A 
ATOM     17  F   UNL     1       1.181   4.373   0.000  0.00  0.00    -0.204 F 
ATOM     18  C   UNL     1       0.119   5.329   0.000  0.00  0.00    +0.029 A 
ATOM     19  C   UNL     1      -0.688   5.500   0.000  0.00  0.00    +0.002 A 
ATOM     20  C   UNL     1      -1.240   4.887   0.000  0.00  0.00    -0.000 A 
ATOM     21  C   UNL     1      -0.985   4.103   0.000  0.00  0.00    +0.000 A 
ENDBRANCH  13  15
ENDBRANCH  12  13
ENDBRANCH  10  12
TORSDOF 3
