REMARK  Name = 
REMARK  2 active torsions:
REMARK  status: ('A' for Active; 'I' for Inactive)
REMARK    1  A    between atoms: C_3  and  C_6
REMARK    2  A    between atoms: N_8  and  C_11
REMARK                            x       y       z     vdW  Elec       q    Type
REMARK                         _______ _______ _______ _____ _____    ______ ____
ROOT
ATOM      1 CL   UNL     1       0.000   0.000   0.000  0.00  0.00    +0.000 Cl
ENDROOT
TORSDOF 0
REMARK  Name = 
REMARK  2 active torsions:
REMARK  status: ('A' for Active; 'I' for Inactive)
REMARK    1  A    between atoms: C_3  and  C_6
REMARK    2  A    between atoms: N_8  and  C_11
REMARK                            x       y       z     vdW  Elec       q    Type
REMARK                         _______ _______ _______ _____ _____    ______ ____
ROOT
ATOM      1  C   UNL     1       3.353   0.786   0.000  0.00  0.00    +0.128 A 
ATOM      2  N   UNL     1       2.528   0.786   0.000  0.00  0.00    -0.131 NA
ATOM      3  N   UNL     1       2.273   0.001   0.000  0.00  0.00    -0.064 NA
ATOM      4  N   UNL     1       2.941  -0.484   0.000  0.00  0.00    -0.230 N 
ATOM      5  C   UNL     1       3.608   0.001   0.000  0.00  0.00    +0.116 A 
ENDROOT
BRANCH   1   7
ATOM      6  C   UNL     1       4.323   2.120   0.000  0.00  0.00    +0.039 C 
ATOM      7  C   UNL     1       3.838   1.453   0.000  0.00  0.00    +0.165 C 
ATOM      8  O   UNL     1       4.505   0.968   0.000  0.00  0.00    -0.219 OA
ATOM      9  C   UNL     1       3.171   1.938   0.000  0.00  0.00    +0.039 C 
ENDBRANCH   1   7
BRANCH   4  10
ATOM     10  C   UNL     1       2.941  -1.309   0.000  0.00  0.00    +0.142 C 
ATOM     11  C   UNL     1       2.357  -1.892   0.000  0.00  0.00    +0.115 C 
ATOM     12  N   UNL     1       2.941  -2.476   0.000  0.00  0.00    -0.214 NA
ATOM     13  C   UNL     1       3.524  -1.892   0.000  0.00  0.00    +0.115 C 
ENDBRANCH   4  10
TORSDOF 2
