REMARK  Name = 
REMARK  1 active torsions:
REMARK  status: ('A' for Active; 'I' for Inactive)
REMARK    1  A    between atoms: N_10  and  C_11
REMARK                            x       y       z     vdW  Elec       q    Type
REMARK                         _______ _______ _______ _____ _____    ______ ____
ROOT
ATOM      1  C   UNL     1       3.595  -0.786   0.000  0.00  0.00    +0.157 C 
ATOM      2  N   UNL     1       3.595  -1.611   0.000  0.00  0.00    -0.217 N 
ATOM      3  C   UNL     1       2.928  -2.096   0.000  0.00  0.00    +0.243 A 
ATOM      4  N   UNL     1       2.143  -1.841   0.000  0.00  0.00    -0.125 NA
ATOM      5  C   UNL     1       1.971  -1.034   0.000  0.00  0.00    +0.346 C 
ATOM      6  N   UNL     1       1.187  -0.779   0.000  0.00  0.00    -0.186 NA
ATOM      7  O   UNL     1       2.584  -0.482   0.000  0.00  0.00    -0.249 OA
ATOM      8  N   UNL     1       3.182  -2.881   0.000  0.00  0.00    -0.189 NA
ATOM      9  C   UNL     1       4.007  -2.881   0.000  0.00  0.00    +0.222 A 
ATOM     10  N   UNL     1       4.262  -2.096   0.000  0.00  0.00    -0.144 NA
ENDROOT
BRANCH   6  11
ATOM     11  C   UNL     1       1.015   0.028   0.000  0.00  0.00    +0.124 C 
ATOM     12  C   UNL     1       1.567   0.641   0.000  0.00  0.00    +0.111 C 
ATOM     13  C   UNL     1       2.240   0.163   0.000  0.00  0.00    +0.031 C 
ATOM     14  C   UNL     1       2.324   0.968   0.000  0.00  0.00    +0.031 C 
ATOM     15  O   UNL     1       1.155   1.355   0.000  0.00  0.00    -0.362 OA
ATOM     16  C   UNL     1       0.348   1.184   0.000  0.00  0.00    +0.095 C 
ATOM     17  C   UNL     1       0.262   2.004   0.000  0.00  0.00    +0.030 C 
ATOM     18  C   UNL     1      -0.477   1.184   0.000  0.00  0.00    +0.030 C 
ATOM     19  C   UNL     1       0.262   0.363   0.000  0.00  0.00    +0.051 C 
ENDBRANCH   6  11
TORSDOF 1
