REMARK  Name = 
REMARK  5 active torsions:
REMARK  status: ('A' for Active; 'I' for Inactive)
REMARK    1  A    between atoms: C_2  and  C_5
REMARK    2  A    between atoms: N_8  and  C_9
REMARK    3  A    between atoms: C_9  and  C_10
REMARK    4  A    between atoms: N_12  and  C_13
REMARK    5  A    between atoms: C_13  and  C_14
REMARK                            x       y       z     vdW  Elec       q    Type
REMARK                         _______ _______ _______ _____ _____    ______ ____
ROOT
ATOM      1  C   UNL     1      -2.247   2.755   0.000  0.00  0.00    +0.174 A 
ATOM      2  N   UNL     1      -1.695   2.142   0.000  0.00  0.00    -0.165 NA
ATOM      3  N   UNL     1      -0.941   2.478   0.000  0.00  0.00    -0.240 N 
ATOM      4  C   UNL     1      -1.028   3.298   0.000  0.00  0.00    +0.097 A 
ATOM      5  C   UNL     1      -1.835   3.470   0.000  0.00  0.00    +0.045 A 
ENDROOT
BRANCH   1   7
ATOM      6  F   UNL     1      -3.888   2.583   0.000  0.00  0.00    -0.164 F 
ATOM      7  C   UNL     1      -3.068   2.669   0.000  0.00  0.00    +0.437 C 
ATOM      8  F   UNL     1      -3.154   3.489   0.000  0.00  0.00    -0.164 F 
ATOM      9  F   UNL     1      -2.981   1.849   0.000  0.00  0.00    -0.164 F 
ENDBRANCH   1   7
BRANCH   3  10
ATOM     10  C   UNL     1      -0.227   2.065   0.000  0.00  0.00    +0.214 C 
BRANCH  10  11
ATOM     11  C   UNL     1       0.487   2.478   0.000  0.00  0.00    +0.266 C 
ATOM     12  N   UNL     1       1.202   2.065   0.000  0.00  0.00    -0.204 NA
ATOM     13  O   UNL     1       0.487   3.303   0.000  0.00  0.00    -0.271 OA
BRANCH  12  14
ATOM     14  C   UNL     1       1.917   2.478   0.000  0.00  0.00    +0.115 C 
BRANCH  14  15
ATOM     15  C   UNL     1       2.631   2.065   0.000  0.00  0.00    +0.022 C 
ATOM     16  C   UNL     1       3.043   1.351   0.000  0.00  0.00    +0.002 C 
ATOM     17  C   UNL     1       3.456   2.065   0.000  0.00  0.00    +0.002 C 
ENDBRANCH  14  15
ENDBRANCH  12  14
ENDBRANCH  10  11
ENDBRANCH   3  10
TORSDOF 5
