REMARK  Name = 
REMARK  5 active torsions:
REMARK  status: ('A' for Active; 'I' for Inactive)
REMARK    1  A    between atoms: C_2  and  N_3
REMARK    2  A    between atoms: C_4  and  C_6
REMARK    3  A    between atoms: C_6  and  N_8
REMARK    4  A    between atoms: C_9  and  C_11
REMARK    5  A    between atoms: C_11  and  C_12
REMARK                            x       y       z     vdW  Elec       q    Type
REMARK                         _______ _______ _______ _____ _____    ______ ____
ROOT
ATOM      1  N   UNL     1       3.006  -5.233   0.000  0.00  0.00    -0.197 NA
ATOM      2  C   UNL     1       3.721  -4.820   0.000  0.00  0.00    +0.246 C 
ATOM      3  O   UNL     1       3.721  -3.995   0.000  0.00  0.00    -0.273 OA
ENDROOT
BRANCH   1   4
ATOM      4  C   UNL     1       2.292  -4.820   0.000  0.00  0.00    +0.173 C 
ATOM      5  C   UNL     1       2.292  -3.995   0.000  0.00  0.00    +0.033 C 
BRANCH   4   7
ATOM      6  N   UNL     1       0.863  -4.820   0.000  0.00  0.00    -0.204 NA
ATOM      7  C   UNL     1       1.577  -5.233   0.000  0.00  0.00    +0.261 C 
ATOM      8  O   UNL     1       1.577  -6.058   0.000  0.00  0.00    -0.271 OA
BRANCH   6  10
ATOM      9  C   UNL     1      -0.566  -4.820   0.000  0.00  0.00    +0.025 C 
ATOM     10  C   UNL     1       0.148  -5.233   0.000  0.00  0.00    +0.115 C 
ENDBRANCH   6  10
ENDBRANCH   4   7
ENDBRANCH   1   4
BRANCH   2  11
ATOM     11  C   UNL     1       4.435  -5.233   0.000  0.00  0.00    +0.115 C 
BRANCH  11  12
ATOM     12  C   UNL     1       5.150  -4.820   0.000  0.00  0.00    +0.015 A 
ATOM     13  C   UNL     1       5.903  -5.156   0.000  0.00  0.00    +0.054 A 
ATOM     14  C   UNL     1       6.075  -5.963   0.000  0.00  0.00    +0.051 C 
ATOM     15  N   UNL     1       6.455  -4.543   0.000  0.00  0.00    -0.253 N 
ATOM     16  C   UNL     1       7.276  -4.629   0.000  0.00  0.00    +0.153 C 
ATOM     17  N   UNL     1       6.043  -3.828   0.000  0.00  0.00    -0.174 NA
ATOM     18  C   UNL     1       5.236  -4.000   0.000  0.00  0.00    +0.077 A 
ATOM     19  C   UNL     1       4.623  -3.448   0.000  0.00  0.00    +0.054 C 
ENDBRANCH  11  12
ENDBRANCH   2  11
TORSDOF 5
