REMARK  Name = 
REMARK  4 active torsions:
REMARK  status: ('A' for Active; 'I' for Inactive)
REMARK    1  A    between atoms: C_2  and  C_5
REMARK    2  A    between atoms: C_8  and  N_9
REMARK    3  A    between atoms: N_12  and  C_13
REMARK    4  A    between atoms: C_15  and  C_16
REMARK                            x       y       z     vdW  Elec       q    Type
REMARK                         _______ _______ _______ _____ _____    ______ ____
ROOT
ATOM      1  N   UNL     1       2.037   6.828   0.000  0.00  0.00    -0.158 NA
ATOM      2  C   UNL     1       2.037   6.003   0.000  0.00  0.00    +0.344 C 
ATOM      3  N   UNL     1       2.751   5.590   0.000  0.00  0.00    -0.184 NA
ATOM      4  O   UNL     1       1.322   5.590   0.000  0.00  0.00    -0.249 OA
ENDROOT
BRANCH   1   8
ATOM      5  C   UNL     1      -0.107   8.065   0.000  0.00  0.00    +0.138 A 
ATOM      6  N   UNL     1      -0.107   7.240   0.000  0.00  0.00    -0.228 NA
ATOM      7  C   UNL     1       0.608   6.828   0.000  0.00  0.00    +0.118 A 
ATOM      8  C   UNL     1       1.322   7.240   0.000  0.00  0.00    +0.113 A 
ATOM      9  C   UNL     1       1.322   8.065   0.000  0.00  0.00    +0.118 A 
ATOM     10  N   UNL     1       0.608   8.478   0.000  0.00  0.00    -0.228 NA
BRANCH   5  12
ATOM     11  C   UNL     1      -1.536   8.890   0.000  0.00  0.00    +0.008 C 
ATOM     12  C   UNL     1      -0.821   8.478   0.000  0.00  0.00    +0.052 C 
ATOM     13  C   UNL     1      -0.409   9.192   0.000  0.00  0.00    +0.008 C 
ATOM     14  C   UNL     1      -1.234   7.763   0.000  0.00  0.00    +0.008 C 
ENDBRANCH   5  12
ENDBRANCH   1   8
BRANCH   3  15
ATOM     15  C   UNL     1       2.751   4.765   0.000  0.00  0.00    +0.119 C 
ATOM     16  C   UNL     1       2.084   4.280   0.000  0.00  0.00    -0.009 C 
ATOM     17  C   UNL     1       2.339   3.496   0.000  0.00  0.00    -0.027 C 
ATOM     18  C   UNL     1       3.164   3.496   0.000  0.00  0.00    +0.057 C 
ATOM     19  C   UNL     1       3.419   4.280   0.000  0.00  0.00    +0.033 C 
BRANCH  18  20
ATOM     20  C   UNL     1       3.649   2.828   0.000  0.00  0.00    +0.186 C 
ATOM     21  O   UNL     1       4.469   2.914   0.000  0.00  0.00    -0.220 OA
ENDBRANCH  18  20
ENDBRANCH   3  15
TORSDOF 4
