REMARK  Name = 
REMARK  2 active torsions:
REMARK  status: ('A' for Active; 'I' for Inactive)
REMARK    1  A    between atoms: C_3  and  C_5
REMARK    2  A    between atoms: C_3  and  C_8
REMARK                            x       y       z     vdW  Elec       q    Type
REMARK                         _______ _______ _______ _____ _____    ______ ____
ROOT
ATOM      1 CL   UNL     1       0.000   0.000   0.000  0.00  0.00    +0.000 Cl
ENDROOT
TORSDOF 0
REMARK  Name = 
REMARK  2 active torsions:
REMARK  status: ('A' for Active; 'I' for Inactive)
REMARK    1  A    between atoms: C_3  and  C_5
REMARK    2  A    between atoms: C_3  and  C_8
REMARK                            x       y       z     vdW  Elec       q    Type
REMARK                         _______ _______ _______ _____ _____    ______ ____
ROOT
ATOM      1  C   UNL     1       3.182  -0.064   0.000  0.00  0.00    +0.007 A 
ATOM      2  C   UNL     1       2.468  -0.476   0.000  0.00  0.00    +0.097 A 
ATOM      3  N   UNL     1       2.468  -1.301   0.000  0.00  0.00    -0.226 NA
ATOM      4  C   UNL     1       3.182  -1.714   0.000  0.00  0.00    +0.170 A 
ATOM      5  N   UNL     1       3.182  -2.538   0.000  0.00  0.00    -0.107 NA
ATOM      6  C   UNL     1       3.897  -1.301   0.000  0.00  0.00    +0.037 A 
ATOM      7  C   UNL     1       3.897  -0.476   0.000  0.00  0.00    +0.001 A 
ENDROOT
BRANCH   1   9
ATOM      8  C   UNL     1       2.357   0.761   0.000  0.00  0.00    +0.016 C 
ATOM      9  C   UNL     1       3.182   0.761   0.000  0.00  0.00    +0.114 C 
ATOM     10  C   UNL     1       4.007   0.761   0.000  0.00  0.00    +0.016 C 
BRANCH   9  11
ATOM     11  C   UNL     1       3.182   1.587   0.000  0.00  0.00    +0.368 C 
ATOM     12  O   UNL     1       3.897   1.999   0.000  0.00  0.00    -0.245 OA
ATOM     13  O   UNL     1       2.468   1.999   0.000  0.00  0.00    -0.245 OA
ENDBRANCH   9  11
ENDBRANCH   1   9
TORSDOF 2
