REMARK  Name = 
REMARK  3 active torsions:
REMARK  status: ('A' for Active; 'I' for Inactive)
REMARK    1  A    between atoms: C_2  and  C_4
REMARK    2  A    between atoms: C_4  and  N_5
REMARK    3  A    between atoms: C_7  and  C_10
REMARK                            x       y       z     vdW  Elec       q    Type
REMARK                         _______ _______ _______ _____ _____    ______ ____
ROOT
ATOM      1  N   UNL     1       0.568   1.114   0.000  0.00  0.00    -0.220 N 
ATOM      2  N   UNL     1      -0.100   0.629   0.000  0.00  0.00    -0.063 NA
ATOM      3  N   UNL     1       0.155  -0.155   0.000  0.00  0.00    -0.122 NA
ATOM      4  C   UNL     1       0.980  -0.155   0.000  0.00  0.00    +0.202 A 
ATOM      5  C   UNL     1       1.235   0.629   0.000  0.00  0.00    +0.125 A 
ENDROOT
BRANCH   4   6
ATOM      6  C   UNL     1       1.465  -0.823   0.000  0.00  0.00    +0.408 C 
ATOM      7  O   UNL     1       1.130  -1.576   0.000  0.00  0.00    -0.239 OA
ATOM      8  O   UNL     1       2.286  -0.737   0.000  0.00  0.00    -0.239 OA
ENDBRANCH   4   6
BRANCH   1   9
ATOM      9  C   UNL     1       0.568   1.939   0.000  0.00  0.00    +0.217 C 
BRANCH   9  11
ATOM     10  N   UNL     1      -0.147   3.177   0.000  0.00  0.00    -0.086 NA
ATOM     11  C   UNL     1      -0.147   2.352   0.000  0.00  0.00    +0.286 C 
ATOM     12  O   UNL     1      -0.861   1.939   0.000  0.00  0.00    -0.269 OA
ENDBRANCH   9  11
ENDBRANCH   1   9
TORSDOF 3
