REMARK  Name = 
REMARK  6 active torsions:
REMARK  status: ('A' for Active; 'I' for Inactive)
REMARK    1  A    between atoms: C_2  and  O_3
REMARK    2  A    between atoms: O_3  and  C_4
REMARK    3  A    between atoms: C_6  and  N_7
REMARK    4  A    between atoms: N_7  and  C_8
REMARK    5  A    between atoms: C_8  and  C_9
REMARK    6  A    between atoms: C_9  and  C_12
REMARK                            x       y       z     vdW  Elec       q    Type
REMARK                         _______ _______ _______ _____ _____    ______ ____
ROOT
ATOM      1  N   UNL     1      -0.231  -3.777   0.000  0.00  0.00    -0.216 NA
ENDROOT
BRANCH   1   6
ATOM      2  C   UNL     1       1.761  -3.777   0.000  0.00  0.00    +0.118 C 
ATOM      3  C   UNL     1       1.178  -3.193   0.000  0.00  0.00    +0.040 C 
ATOM      4  C   UNL     1       1.609  -2.490   0.000  0.00  0.00    +0.004 C 
ATOM      5  C   UNL     1       0.747  -2.490   0.000  0.00  0.00    +0.004 C 
ATOM      6  C   UNL     1       0.594  -3.777   0.000  0.00  0.00    +0.077 C 
ATOM      7  C   UNL     1       1.178  -4.360   0.000  0.00  0.00    +0.047 C 
BRANCH   2   8
ATOM      8  O   UNL     1       2.586  -3.777   0.000  0.00  0.00    -0.356 OA
BRANCH   8  10
ATOM      9  C   UNL     1       3.824  -3.062   0.000  0.00  0.00    +0.035 C 
ATOM     10  C   UNL     1       2.998  -3.062   0.000  0.00  0.00    +0.142 C 
ENDBRANCH   8  10
ENDBRANCH   2   8
ENDBRANCH   1   6
BRANCH   1  11
ATOM     11  C   UNL     1      -0.643  -3.062   0.000  0.00  0.00    +0.123 C 
BRANCH  11  12
ATOM     12  C   UNL     1      -1.468  -3.062   0.000  0.00  0.00    +0.164 C 
ATOM     13  O   UNL     1      -1.468  -3.887   0.000  0.00  0.00    -0.220 OA
ATOM     14  C   UNL     1      -1.468  -2.237   0.000  0.00  0.00    +0.039 C 
BRANCH  12  15
ATOM     15  C   UNL     1      -2.293  -3.062   0.000  0.00  0.00    +0.046 A 
ATOM     16  C   UNL     1      -2.778  -2.395   0.000  0.00  0.00    +0.095 A 
ATOM     17  N   UNL     1      -3.563  -2.650   0.000  0.00  0.00    -0.248 N 
ATOM     18  C   UNL     1      -4.230  -2.165   0.000  0.00  0.00    +0.154 C 
ATOM     19  N   UNL     1      -3.563  -3.475   0.000  0.00  0.00    -0.168 NA
ATOM     20  C   UNL     1      -2.778  -3.730   0.000  0.00  0.00    +0.120 A 
ENDBRANCH  12  15
ENDBRANCH  11  12
ENDBRANCH   1  11
TORSDOF 6
