REMARK  Name = 
REMARK  2 active torsions:
REMARK  status: ('A' for Active; 'I' for Inactive)
REMARK    1  A    between atoms: C_6  and  N_7
REMARK    2  A    between atoms: N_10  and  C_11
REMARK                            x       y       z     vdW  Elec       q    Type
REMARK                         _______ _______ _______ _____ _____    ______ ____
ROOT
ATOM      1  N   UNL     1       2.013   2.656   0.000  0.00  0.00    -0.160 NA
ATOM      2  C   UNL     1       2.301   1.883   0.000  0.00  0.00    +0.343 C 
ATOM      3  N   UNL     1       3.115   1.746   0.000  0.00  0.00    -0.189 NA
ATOM      4  O   UNL     1       1.776   1.247   0.000  0.00  0.00    -0.249 OA
ENDROOT
BRANCH   3   5
ATOM      5  C   UNL     1       3.403   0.973   0.000  0.00  0.00    +0.101 C 
ATOM      6  C   UNL     1       3.060   0.223   0.000  0.00  0.00    +0.044 C 
ATOM      7  C   UNL     1       2.309   0.566   0.000  0.00  0.00    +0.004 C 
ATOM      8  C   UNL     1       1.966  -0.185   0.000  0.00  0.00    +0.000 C 
ATOM      9  C   UNL     1       2.717  -0.528   0.000  0.00  0.00    +0.004 C 
ATOM     10  C   UNL     1       3.810  -0.120   0.000  0.00  0.00    +0.118 C 
ATOM     11  O   UNL     1       4.418  -0.678   0.000  0.00  0.00    -0.356 OA
ATOM     12  C   UNL     1       5.136  -0.273   0.000  0.00  0.00    +0.142 C 
ATOM     13  C   UNL     1       4.973   0.536   0.000  0.00  0.00    +0.036 C 
ATOM     14  C   UNL     1       4.153   0.630   0.000  0.00  0.00    +0.050 C 
ENDBRANCH   3   5
BRANCH   1  19
ATOM     15  C   UNL     1      -0.665   1.658   0.000  0.00  0.00    +0.053 C 
ATOM     16  C   UNL     1      -0.140   2.294   0.000  0.00  0.00    +0.071 A 
ATOM     17  C   UNL     1       0.674   2.157   0.000  0.00  0.00    +0.087 A 
ATOM     18 CL   UNL     1       0.962   1.384   0.000  0.00  0.00    -0.080 Cl
ATOM     19  C   UNL     1       1.199   2.793   0.000  0.00  0.00    +0.088 A 
ATOM     20  C   UNL     1       0.911   3.566   0.000  0.00  0.00    +0.038 A 
ATOM     21  C   UNL     1       0.098   3.703   0.000  0.00  0.00    +0.100 A 
ATOM     22  N   UNL     1      -0.428   3.067   0.000  0.00  0.00    -0.247 NA
ENDBRANCH   1  19
TORSDOF 2
