REMARK  Name = 
REMARK  4 active torsions:
REMARK  status: ('A' for Active; 'I' for Inactive)
REMARK    1  A    between atoms: C_2  and  C_3
REMARK    2  A    between atoms: C_2  and  N_9
REMARK    3  A    between atoms: C_3  and  N_4
REMARK    4  A    between atoms: C_10  and  C_12
REMARK                            x       y       z     vdW  Elec       q    Type
REMARK                         _______ _______ _______ _____ _____    ______ ____
ROOT
ATOM      1  N   UNL     1       0.007  -1.436   0.000  0.00  0.00    -0.204 NA
ATOM      2  C   UNL     1       0.722  -1.849   0.000  0.00  0.00    +0.257 C 
ATOM      3  O   UNL     1       0.722  -2.674   0.000  0.00  0.00    -0.272 OA
ENDROOT
BRANCH   2   4
ATOM      4  C   UNL     1       1.436  -1.436   0.000  0.00  0.00    +0.147 C 
ATOM      5  C   UNL     1       2.221  -1.181   0.000  0.00  0.00    +0.027 C 
ATOM      6  C   UNL     1       2.221  -0.356   0.000  0.00  0.00    +0.002 C 
ATOM      7  C   UNL     1       1.436  -0.101   0.000  0.00  0.00    +0.002 C 
ATOM      8  C   UNL     1       0.952  -0.769   0.000  0.00  0.00    +0.027 C 
ATOM      9  N   UNL     1       1.772  -2.190   0.000  0.00  0.00    -0.125 NA
ENDBRANCH   2   4
BRANCH   1  11
ATOM     10  C   UNL     1      -0.707  -2.674   0.000  0.00  0.00    +0.025 C 
ATOM     11  C   UNL     1      -0.707  -1.849   0.000  0.00  0.00    +0.118 C 
BRANCH  11  12
ATOM     12  C   UNL     1      -1.421  -1.436   0.000  0.00  0.00    +0.129 C 
BRANCH  12  13
ATOM     13  N   UNL     1      -2.136  -1.849   0.000  0.00  0.00    -0.306 N 
ATOM     14  C   UNL     1      -2.890  -1.513   0.000  0.00  0.00    +0.179 A 
ATOM     15  N   UNL     1      -3.442  -2.126   0.000  0.00  0.00    -0.222 NA
ATOM     16  C   UNL     1      -3.029  -2.841   0.000  0.00  0.00    +0.119 A 
ATOM     17  C   UNL     1      -2.222  -2.669   0.000  0.00  0.00    +0.098 A 
ENDBRANCH  12  13
ENDBRANCH  11  12
ENDBRANCH   1  11
TORSDOF 4
