REMARK  Name = 
REMARK  6 active torsions:
REMARK  status: ('A' for Active; 'I' for Inactive)
REMARK    1  A    between atoms: C_7  and  O_8
REMARK    2  A    between atoms: O_8  and  C_9
REMARK    3  A    between atoms: C_9  and  C_10
REMARK    4  A    between atoms: C_10  and  N_11
REMARK    5  A    between atoms: C_12  and  C_14
REMARK    6  A    between atoms: C_14  and  N_15
REMARK                            x       y       z     vdW  Elec       q    Type
REMARK                         _______ _______ _______ _____ _____    ______ ____
ROOT
ATOM      1  N   UNL     1       3.572  -3.712   0.000  0.00  0.00    -0.201 NA
ATOM      2  C   UNL     1       4.287  -4.125   0.000  0.00  0.00    +0.265 C 
ATOM      3  O   UNL     1       4.287  -4.950   0.000  0.00  0.00    -0.271 OA
ENDROOT
BRANCH   2   4
ATOM      4  C   UNL     1       5.001  -3.712   0.000  0.00  0.00    +0.196 C 
BRANCH   4   5
ATOM      5  N   UNL     1       5.716  -4.125   0.000  0.00  0.00    -0.285 N 
ATOM      6  C   UNL     1       5.716  -4.950   0.000  0.00  0.00    +0.261 A 
ATOM      7  O   UNL     1       5.001  -5.362   0.000  0.00  0.00    -0.267 OA
ATOM      8  C   UNL     1       6.430  -5.362   0.000  0.00  0.00    +0.061 A 
ATOM      9  C   UNL     1       7.145  -4.950   0.000  0.00  0.00    +0.006 A 
ATOM     10  C   UNL     1       7.145  -4.125   0.000  0.00  0.00    +0.019 A 
ATOM     11  C   UNL     1       6.430  -3.712   0.000  0.00  0.00    +0.079 A 
ENDBRANCH   4   5
ENDBRANCH   2   4
BRANCH   1  12
ATOM     12  C   UNL     1       2.858  -4.125   0.000  0.00  0.00    +0.147 C 
BRANCH  12  13
ATOM     13  C   UNL     1       2.143  -3.712   0.000  0.00  0.00    +0.165 C 
BRANCH  13  14
ATOM     14  O   UNL     1       1.429  -4.125   0.000  0.00  0.00    -0.354 OA
BRANCH  14  17
ATOM     15  C   UNL     1       0.000  -4.950   0.000  0.00  0.00    +0.002 C 
ATOM     16  C   UNL     1       0.000  -4.125   0.000  0.00  0.00    +0.027 C 
ATOM     17  C   UNL     1       0.715  -3.712   0.000  0.00  0.00    +0.115 C 
ATOM     18  C   UNL     1       0.715  -2.888   0.000  0.00  0.00    +0.030 C 
ATOM     19  C   UNL     1       0.000  -2.475   0.000  0.00  0.00    +0.002 C 
ATOM     20  C   UNL     1      -0.715  -2.888   0.000  0.00  0.00    +0.000 C 
ATOM     21  C   UNL     1      -0.715  -3.712   0.000  0.00  0.00    +0.002 C 
ENDBRANCH  14  17
ENDBRANCH  13  14
ENDBRANCH  12  13
ENDBRANCH   1  12
TORSDOF 6
