REMARK  Name = 
REMARK  3 active torsions:
REMARK  status: ('A' for Active; 'I' for Inactive)
REMARK    1  A    between atoms: C_8  and  C_9
REMARK    2  A    between atoms: C_9  and  C_10
REMARK    3  A    between atoms: N_12  and  C_13
REMARK                            x       y       z     vdW  Elec       q    Type
REMARK                         _______ _______ _______ _____ _____    ______ ____
ROOT
ATOM      1  C   UNL     1       1.128  -1.960   0.000  0.00  0.00    +0.246 C 
ATOM      2  N   UNL     1       0.343  -1.705   0.000  0.00  0.00    -0.207 NA
ATOM      3  O   UNL     1       1.741  -1.408   0.000  0.00  0.00    -0.273 OA
ENDROOT
BRANCH   2   4
ATOM      4  C   UNL     1       0.171  -0.898   0.000  0.00  0.00    +0.095 C 
ATOM      5  C   UNL     1       0.784  -0.346   0.000  0.00  0.00    +0.024 C 
ATOM      6  C   UNL     1       0.613   0.461   0.000  0.00  0.00    +0.035 C 
ATOM      7  C   UNL     1      -0.172   0.716   0.000  0.00  0.00    +0.152 C 
ATOM      8  O   UNL     1      -0.343   1.523   0.000  0.00  0.00    -0.223 OA
ATOM      9  C   UNL     1      -0.785   0.164   0.000  0.00  0.00    +0.035 C 
ATOM     10  C   UNL     1      -0.613  -0.643   0.000  0.00  0.00    +0.024 C 
ENDBRANCH   2   4
BRANCH   1  11
ATOM     11  C   UNL     1       1.299  -2.767   0.000  0.00  0.00    +0.115 C 
BRANCH  11  14
ATOM     12  C   UNL     1       2.751  -1.712   0.000  0.00  0.00    +0.054 C 
ATOM     13  C   UNL     1       2.751  -2.537   0.000  0.00  0.00    +0.077 A 
ATOM     14  C   UNL     1       2.084  -3.022   0.000  0.00  0.00    +0.015 A 
ATOM     15  C   UNL     1       2.339  -3.806   0.000  0.00  0.00    +0.054 A 
ATOM     16  C   UNL     1       1.854  -4.474   0.000  0.00  0.00    +0.051 C 
ATOM     17  N   UNL     1       3.164  -3.806   0.000  0.00  0.00    -0.253 N 
ATOM     18  C   UNL     1       3.649  -4.474   0.000  0.00  0.00    +0.153 C 
ATOM     19  N   UNL     1       3.419  -3.022   0.000  0.00  0.00    -0.174 NA
ENDBRANCH  11  14
ENDBRANCH   1  11
TORSDOF 3
