REMARK  Name = 
REMARK  2 active torsions:
REMARK  status: ('A' for Active; 'I' for Inactive)
REMARK    1  A    between atoms: C_2  and  C_5
REMARK    2  A    between atoms: N_12  and  C_13
REMARK                            x       y       z     vdW  Elec       q    Type
REMARK                         _______ _______ _______ _____ _____    ______ ____
ROOT
ATOM      1  C   UNL     1      -0.428   3.067   0.000  0.00  0.00    +0.080 A 
ATOM      2  N   UNL     1      -0.140   2.294   0.000  0.00  0.00    -0.151 NA
ATOM      3  N   UNL     1       0.674   2.157   0.000  0.00  0.00    -0.131 NA
ATOM      4  C   UNL     1       1.199   2.793   0.000  0.00  0.00    +0.177 A 
ATOM      5  N   UNL     1       2.013   2.656   0.000  0.00  0.00    -0.140 NA
ATOM      6  C   UNL     1       2.301   1.883   0.000  0.00  0.00    +0.345 C 
ATOM      7  N   UNL     1       3.115   1.746   0.000  0.00  0.00    -0.189 NA
ATOM      8  O   UNL     1       1.776   1.247   0.000  0.00  0.00    -0.249 OA
ATOM      9  C   UNL     1       0.911   3.566   0.000  0.00  0.00    +0.039 A 
ATOM     10  C   UNL     1       0.098   3.703   0.000  0.00  0.00    +0.019 A 
ENDROOT
BRANCH   7  11
ATOM     11  C   UNL     1       3.403   0.973   0.000  0.00  0.00    +0.101 C 
ATOM     12  C   UNL     1       3.060   0.223   0.000  0.00  0.00    +0.044 C 
ATOM     13  C   UNL     1       2.309   0.566   0.000  0.00  0.00    +0.004 C 
ATOM     14  C   UNL     1       1.966  -0.185   0.000  0.00  0.00    +0.000 C 
ATOM     15  C   UNL     1       2.717  -0.528   0.000  0.00  0.00    +0.004 C 
ATOM     16  C   UNL     1       3.810  -0.120   0.000  0.00  0.00    +0.118 C 
ATOM     17  O   UNL     1       4.418  -0.678   0.000  0.00  0.00    -0.356 OA
ATOM     18  C   UNL     1       5.136  -0.273   0.000  0.00  0.00    +0.142 C 
ATOM     19  C   UNL     1       4.973   0.536   0.000  0.00  0.00    +0.036 C 
ATOM     20  C   UNL     1       4.153   0.630   0.000  0.00  0.00    +0.050 C 
ENDBRANCH   7  11
BRANCH   1  22
ATOM     21  C   UNL     1      -2.055   3.341   0.000  0.00  0.00    +0.006 C 
ATOM     22  C   UNL     1      -1.241   3.204   0.000  0.00  0.00    +0.037 C 
ATOM     23  C   UNL     1      -1.104   4.018   0.000  0.00  0.00    +0.006 C 
ATOM     24  C   UNL     1      -1.378   2.391   0.000  0.00  0.00    +0.006 C 
ENDBRANCH   1  22
TORSDOF 2
