REMARK  Name = 
REMARK  5 active torsions:
REMARK  status: ('A' for Active; 'I' for Inactive)
REMARK    1  A    between atoms: C_2  and  C_4
REMARK    2  A    between atoms: C_4  and  N_5
REMARK    3  A    between atoms: C_9  and  C_10
REMARK    4  A    between atoms: C_10  and  C_11
REMARK    5  A    between atoms: N_13  and  C_14
REMARK                            x       y       z     vdW  Elec       q    Type
REMARK                         _______ _______ _______ _____ _____    ______ ____
ROOT
ATOM      1  N   UNL     1       0.640   6.320   0.000  0.00  0.00    -0.256 N 
ATOM      2  C   UNL     1       1.192   5.707   0.000  0.00  0.00    +0.054 A 
ATOM      3  C   UNL     1       1.020   4.900   0.000  0.00  0.00    +0.051 C 
ATOM      4  C   UNL     1       1.945   6.043   0.000  0.00  0.00    +0.015 A 
ATOM      5  C   UNL     1       1.859   6.863   0.000  0.00  0.00    +0.077 A 
ATOM      6  C   UNL     1       2.472   7.415   0.000  0.00  0.00    +0.054 C 
ATOM      7  N   UNL     1       1.052   7.035   0.000  0.00  0.00    -0.174 NA
ENDROOT
BRANCH   1   8
ATOM      8  C   UNL     1      -0.181   6.234   0.000  0.00  0.00    +0.127 C 
BRANCH   8  10
ATOM      9  C   UNL     1      -1.486   6.815   0.000  0.00  0.00    +0.002 C 
ATOM     10  C   UNL     1      -0.666   6.901   0.000  0.00  0.00    +0.024 C 
ATOM     11  C   UNL     1      -0.330   7.655   0.000  0.00  0.00    +0.002 C 
ENDBRANCH   8  10
ENDBRANCH   1   8
BRANCH   4  12
ATOM     12  C   UNL     1       2.660   5.630   0.000  0.00  0.00    +0.115 C 
BRANCH  12  13
ATOM     13  C   UNL     1       2.660   4.805   0.000  0.00  0.00    +0.246 C 
ATOM     14  N   UNL     1       3.374   4.393   0.000  0.00  0.00    -0.207 NA
ATOM     15  O   UNL     1       1.945   4.393   0.000  0.00  0.00    -0.273 OA
BRANCH  14  16
ATOM     16  C   UNL     1       3.374   3.568   0.000  0.00  0.00    +0.095 C 
ATOM     17  C   UNL     1       2.962   2.853   0.000  0.00  0.00    +0.023 C 
ATOM     18  C   UNL     1       3.787   2.853   0.000  0.00  0.00    +0.023 C 
ENDBRANCH  14  16
ENDBRANCH  12  13
ENDBRANCH   4  12
TORSDOF 5
