REMARK  Name = 
REMARK  5 active torsions:
REMARK  status: ('A' for Active; 'I' for Inactive)
REMARK    1  A    between atoms: O_2  and  C_3
REMARK    2  A    between atoms: C_3  and  C_4
REMARK    3  A    between atoms: C_4  and  N_5
REMARK    4  A    between atoms: C_7  and  C_12
REMARK    5  A    between atoms: C_18  and  C_19
REMARK                            x       y       z     vdW  Elec       q    Type
REMARK                         _______ _______ _______ _____ _____    ______ ____
ROOT
ATOM      1  N   UNL     1       0.107   2.413   0.000  0.00  0.00    -0.214 N 
ATOM      2  C   UNL     1       0.107   3.238   0.000  0.00  0.00    +0.277 A 
ATOM      3  O   UNL     1       0.821   3.651   0.000  0.00  0.00    -0.266 OA
ATOM      4  C   UNL     1      -0.608   3.651   0.000  0.00  0.00    +0.064 A 
ATOM      5  C   UNL     1      -1.322   3.238   0.000  0.00  0.00    +0.030 A 
ATOM      6  C   UNL     1      -1.322   2.413   0.000  0.00  0.00    +0.154 A 
ATOM      7  N   UNL     1      -0.608   2.001   0.000  0.00  0.00    -0.162 NA
ENDROOT
BRANCH   6   8
ATOM      8  C   UNL     1      -2.037   2.001   0.000  0.00  0.00    +0.269 C 
ATOM      9  N   UNL     1      -2.037   1.176   0.000  0.00  0.00    -0.267 N 
ATOM     10  C   UNL     1      -2.704   0.691   0.000  0.00  0.00    +0.179 C 
ATOM     11  C   UNL     1      -2.449  -0.094   0.000  0.00  0.00    +0.033 C 
ATOM     12  C   UNL     1      -1.624  -0.094   0.000  0.00  0.00    +0.024 C 
ATOM     13  C   UNL     1      -1.369   0.691   0.000  0.00  0.00    +0.094 C 
ATOM     14  O   UNL     1      -2.751   2.413   0.000  0.00  0.00    -0.268 OA
BRANCH  10  15
ATOM     15  C   UNL     1      -3.489   0.946   0.000  0.00  0.00    +0.382 C 
ATOM     16  O   UNL     1      -3.660   1.753   0.000  0.00  0.00    -0.244 OA
ATOM     17  O   UNL     1      -4.102   0.394   0.000  0.00  0.00    -0.244 OA
ENDBRANCH  10  15
ENDBRANCH   6   8
BRANCH   1  18
ATOM     18  C   UNL     1       0.821   2.001   0.000  0.00  0.00    +0.163 C 
BRANCH  18  19
ATOM     19  C   UNL     1       1.536   2.413   0.000  0.00  0.00    +0.169 C 
BRANCH  19  21
ATOM     20  C   UNL     1       2.965   2.413   0.000  0.00  0.00    +0.174 C 
ATOM     21  O   UNL     1       2.250   2.001   0.000  0.00  0.00    -0.349 OA
ENDBRANCH  19  21
ENDBRANCH  18  19
ENDBRANCH   1  18
TORSDOF 5
