REMARK  Name = 
REMARK  5 active torsions:
REMARK  status: ('A' for Active; 'I' for Inactive)
REMARK    1  A    between atoms: O_2  and  C_3
REMARK    2  A    between atoms: C_6  and  N_7
REMARK    3  A    between atoms: N_7  and  C_8
REMARK    4  A    between atoms: C_8  and  C_10
REMARK    5  A    between atoms: C_10  and  C_11
REMARK                            x       y       z     vdW  Elec       q    Type
REMARK                         _______ _______ _______ _____ _____    ______ ____
ROOT
ATOM      1  N   UNL     1       3.479  -3.697   0.000  0.00  0.00    -0.220 NA
ENDROOT
BRANCH   1   6
ATOM      2  C   UNL     1       3.479  -1.705   0.000  0.00  0.00    +0.095 C 
ATOM      3  C   UNL     1       2.896  -2.288   0.000  0.00  0.00    +0.038 C 
ATOM      4  C   UNL     1       2.192  -1.857   0.000  0.00  0.00    +0.004 C 
ATOM      5  C   UNL     1       2.192  -2.720   0.000  0.00  0.00    +0.004 C 
ATOM      6  C   UNL     1       3.479  -2.872   0.000  0.00  0.00    +0.077 C 
ATOM      7  C   UNL     1       4.062  -2.288   0.000  0.00  0.00    +0.045 C 
ATOM      8  C   UNL     1       2.896  -1.122   0.000  0.00  0.00    +0.030 C 
BRANCH   2  10
ATOM      9  C   UNL     1       4.859  -1.335   0.000  0.00  0.00    +0.174 C 
ATOM     10  O   UNL     1       4.062  -1.122   0.000  0.00  0.00    -0.356 OA
ENDBRANCH   2  10
ENDBRANCH   1   6
BRANCH   1  11
ATOM     11  C   UNL     1       2.765  -4.109   0.000  0.00  0.00    +0.079 C 
ATOM     12  C   UNL     1       2.050  -3.697   0.000  0.00  0.00    +0.019 C 
BRANCH  11  13
ATOM     13  C   UNL     1       2.765  -4.934   0.000  0.00  0.00    +0.065 C 
BRANCH  13  14
ATOM     14  C   UNL     1       2.050  -5.347   0.000  0.00  0.00    +0.083 A 
ATOM     15  N   UNL     1       1.296  -5.011   0.000  0.00  0.00    -0.153 NA
ATOM     16  N   UNL     1       0.744  -5.624   0.000  0.00  0.00    -0.153 NA
ATOM     17  C   UNL     1       1.157  -6.339   0.000  0.00  0.00    +0.082 A 
ATOM     18  C   UNL     1       0.821  -7.093   0.000  0.00  0.00    +0.054 C 
ATOM     19  C   UNL     1       1.964  -6.167   0.000  0.00  0.00    +0.033 A 
ENDBRANCH  13  14
ENDBRANCH  11  13
ENDBRANCH   1  11
TORSDOF 5
