REMARK  Name = 
REMARK  7 active torsions:
REMARK  status: ('A' for Active; 'I' for Inactive)
REMARK    1  A    between atoms: C_2  and  C_3
REMARK    2  A    between atoms: C_3  and  N_4
REMARK    3  A    between atoms: C_5  and  C_7
REMARK    4  A    between atoms: C_7  and  N_9
REMARK    5  A    between atoms: C_10  and  C_12
REMARK    6  A    between atoms: C_12  and  C_13
REMARK    7  A    between atoms: C_16  and  C_18
REMARK                            x       y       z     vdW  Elec       q    Type
REMARK                         _______ _______ _______ _____ _____    ______ ____
ROOT
ATOM      1  N   UNL     1       3.006  -5.233   0.000  0.00  0.00    -0.197 NA
ATOM      2  C   UNL     1       3.721  -4.820   0.000  0.00  0.00    +0.248 C 
ATOM      3  O   UNL     1       3.721  -3.995   0.000  0.00  0.00    -0.273 OA
ENDROOT
BRANCH   1   4
ATOM      4  C   UNL     1       2.292  -4.820   0.000  0.00  0.00    +0.173 C 
ATOM      5  C   UNL     1       2.292  -3.995   0.000  0.00  0.00    +0.033 C 
BRANCH   4   7
ATOM      6  N   UNL     1       0.863  -4.820   0.000  0.00  0.00    -0.204 NA
ATOM      7  C   UNL     1       1.577  -5.233   0.000  0.00  0.00    +0.261 C 
ATOM      8  O   UNL     1       1.577  -6.058   0.000  0.00  0.00    -0.271 OA
BRANCH   6   9
ATOM      9  C   UNL     1       0.148  -5.233   0.000  0.00  0.00    +0.115 C 
BRANCH   9  11
ATOM     10  C   UNL     1      -1.281  -5.233   0.000  0.00  0.00    +0.002 C 
ATOM     11  C   UNL     1      -0.566  -4.820   0.000  0.00  0.00    +0.023 C 
ENDBRANCH   9  11
ENDBRANCH   6   9
ENDBRANCH   4   7
ENDBRANCH   1   4
BRANCH   2  12
ATOM     12  C   UNL     1       4.435  -5.233   0.000  0.00  0.00    +0.133 C 
BRANCH  12  13
ATOM     13  C   UNL     1       5.150  -4.820   0.000  0.00  0.00    +0.075 A 
ATOM     14  N   UNL     1       5.903  -5.156   0.000  0.00  0.00    -0.247 NA
ATOM     15  C   UNL     1       6.455  -4.543   0.000  0.00  0.00    +0.087 A 
ATOM     16  S   UNL     1       6.043  -3.828   0.000  0.00  0.00    -0.071 S 
ATOM     17  C   UNL     1       5.236  -4.000   0.000  0.00  0.00    +0.052 A 
BRANCH  15  18
ATOM     18  C   UNL     1       7.276  -4.629   0.000  0.00  0.00    +0.047 C 
ATOM     19  C   UNL     1       7.611  -5.383   0.000  0.00  0.00    +0.007 C 
ATOM     20  C   UNL     1       7.761  -3.962   0.000  0.00  0.00    +0.007 C 
ENDBRANCH  15  18
ENDBRANCH  12  13
ENDBRANCH   2  12
TORSDOF 7
