REMARK  Name = 
REMARK  6 active torsions:
REMARK  status: ('A' for Active; 'I' for Inactive)
REMARK    1  A    between atoms: N_7  and  C_8
REMARK    2  A    between atoms: C_8  and  C_9
REMARK    3  A    between atoms: N_11  and  C_12
REMARK    4  A    between atoms: C_12  and  C_13
REMARK    5  A    between atoms: C_12  and  C_17
REMARK    6  A    between atoms: C_13  and  C_14
REMARK                            x       y       z     vdW  Elec       q    Type
REMARK                         _______ _______ _______ _____ _____    ______ ____
ROOT
ATOM      1  C   UNL     1      -0.715  -1.238   0.000  0.00  0.00    +0.265 C 
ATOM      2  N   UNL     1       0.000  -1.650   0.000  0.00  0.00    -0.205 NA
ATOM      3  O   UNL     1      -0.715  -0.412   0.000  0.00  0.00    -0.271 OA
ENDROOT
BRANCH   1   4
ATOM      4  C   UNL     1      -1.429  -1.650   0.000  0.00  0.00    +0.197 C 
BRANCH   4   9
ATOM      5  C   UNL     1      -4.287  -1.650   0.000  0.00  0.00    +0.138 C 
ATOM      6  N   UNL     1      -3.572  -1.238   0.000  0.00  0.00    -0.247 N 
ATOM      7  C   UNL     1      -2.858  -1.650   0.000  0.00  0.00    +0.334 A 
ATOM      8  O   UNL     1      -2.858  -2.475   0.000  0.00  0.00    -0.246 OA
ATOM      9  N   UNL     1      -2.143  -1.238   0.000  0.00  0.00    -0.271 N 
ATOM     10  C   UNL     1      -2.143  -0.412   0.000  0.00  0.00    +0.085 A 
ATOM     11  C   UNL     1      -2.858   0.000   0.000  0.00  0.00    +0.080 A 
ATOM     12  C   UNL     1      -3.572  -0.412   0.000  0.00  0.00    +0.266 A 
ATOM     13  O   UNL     1      -4.287   0.000   0.000  0.00  0.00    -0.267 OA
ENDBRANCH   4   9
ENDBRANCH   1   4
BRANCH   2  14
ATOM     14  C   UNL     1       0.715  -1.238   0.000  0.00  0.00    +0.104 C 
BRANCH  14  15
ATOM     15  C   UNL     1       0.715  -0.412   0.000  0.00  0.00    +0.021 C 
ATOM     16  C   UNL     1       1.429   0.000   0.000  0.00  0.00    +0.002 C 
ATOM     17  C   UNL     1       1.429   0.825   0.000  0.00  0.00    +0.000 C 
ATOM     18  C   UNL     1       0.715   1.238   0.000  0.00  0.00    +0.000 C 
ATOM     19  C   UNL     1       0.000   0.825   0.000  0.00  0.00    +0.000 C 
ATOM     20  C   UNL     1       0.000   0.000   0.000  0.00  0.00    +0.002 C 
ENDBRANCH  14  15
BRANCH  14  21
ATOM     21  C   UNL     1       1.429  -1.650   0.000  0.00  0.00    +0.110 C 
BRANCH  21  22
ATOM     22  C   UNL     1       2.143  -1.238   0.000  0.00  0.00    +0.262 C 
ATOM     23  N   UNL     1       2.143  -0.412   0.000  0.00  0.00    -0.088 NA
ATOM     24  O   UNL     1       2.858  -1.650   0.000  0.00  0.00    -0.272 OA
ENDBRANCH  21  22
ENDBRANCH  14  21
ENDBRANCH   2  14
TORSDOF 6
