REMARK  Name = 
REMARK  2 active torsions:
REMARK  status: ('A' for Active; 'I' for Inactive)
REMARK    1  A    between atoms: N_3  and  C_4
REMARK    2  A    between atoms: C_16  and  C_18
REMARK                            x       y       z     vdW  Elec       q    Type
REMARK                         _______ _______ _______ _____ _____    ______ ____
ROOT
ATOM      1  O   UNL     1       2.648  -1.610   0.000  0.00  0.00    -0.249 OA
ATOM      2  C   UNL     1       1.827  -1.696   0.000  0.00  0.00    +0.346 C 
ATOM      3  N   UNL     1       1.492  -2.450   0.000  0.00  0.00    -0.134 NA
ATOM      4  C   UNL     1       1.976  -3.117   0.000  0.00  0.00    +0.209 A 
ATOM      5  S   UNL     1       1.722  -3.902   0.000  0.00  0.00    -0.033 S 
ATOM      6  C   UNL     1       2.389  -4.387   0.000  0.00  0.00    +0.112 A 
ATOM      7  N   UNL     1       3.056  -3.902   0.000  0.00  0.00    -0.144 NA
ATOM      8  N   UNL     1       2.801  -3.117   0.000  0.00  0.00    -0.124 NA
ATOM      9  N   UNL     1       1.342  -1.029   0.000  0.00  0.00    -0.179 NA
ENDROOT
BRANCH   9  10
ATOM     10  C   UNL     1       1.678  -0.275   0.000  0.00  0.00    +0.174 C 
ATOM     11  C   UNL     1       2.502  -0.250   0.000  0.00  0.00    +0.261 C 
ATOM     12  O   UNL     1       2.882  -0.983   0.000  0.00  0.00    -0.271 OA
ATOM     13  N   UNL     1       2.997   0.410   0.000  0.00  0.00    -0.204 NA
ATOM     14  C   UNL     1       2.790   1.208   0.000  0.00  0.00    +0.115 C 
ATOM     15  C   UNL     1       2.036   1.544   0.000  0.00  0.00    +0.024 C 
ATOM     16  C   UNL     1       1.304   1.164   0.000  0.00  0.00    +0.004 C 
ATOM     17  C   UNL     1       1.144   0.354   0.000  0.00  0.00    +0.031 C 
ENDBRANCH   9  10
BRANCH   6  18
ATOM     18  C   UNL     1       2.389  -5.212   0.000  0.00  0.00    +0.048 C 
ATOM     19  C   UNL     1       1.976  -5.926   0.000  0.00  0.00    +0.007 C 
ATOM     20  C   UNL     1       2.801  -5.926   0.000  0.00  0.00    +0.007 C 
ENDBRANCH   6  18
TORSDOF 2
