REMARK  Name = 
REMARK  5 active torsions:
REMARK  status: ('A' for Active; 'I' for Inactive)
REMARK    1  A    between atoms: S_2  and  N_5
REMARK    2  A    between atoms: N_5  and  C_6
REMARK    3  A    between atoms: C_6  and  C_7
REMARK    4  A    between atoms: C_7  and  C_8
REMARK    5  A    between atoms: N_10  and  C_11
REMARK                            x       y       z     vdW  Elec       q    Type
REMARK                         _______ _______ _______ _____ _____    ______ ____
ROOT
ATOM      1  C   UNL     1       0.715  -1.238   0.000  0.00  0.00    +0.093 A 
ATOM      2  C   UNL     1       0.000  -1.650   0.000  0.00  0.00    +0.117 A 
ATOM      3  N   UNL     1       0.000  -2.475   0.000  0.00  0.00    -0.228 NA
ATOM      4  C   UNL     1       0.715  -2.888   0.000  0.00  0.00    +0.132 A 
ATOM      5  N   UNL     1       0.715  -3.712   0.000  0.00  0.00    -0.288 N 
ATOM      6  C   UNL     1       0.000  -4.125   0.000  0.00  0.00    +0.124 C 
ATOM      7  C   UNL     1       0.000  -4.950   0.000  0.00  0.00    +0.164 C 
ATOM      8  O   UNL     1       0.715  -5.362   0.000  0.00  0.00    -0.350 OA
ATOM      9  C   UNL     1       1.429  -4.950   0.000  0.00  0.00    +0.164 C 
ATOM     10  C   UNL     1       1.429  -4.125   0.000  0.00  0.00    +0.124 C 
ATOM     11  C   UNL     1       1.429  -2.475   0.000  0.00  0.00    +0.036 A 
ATOM     12  C   UNL     1       1.429  -1.650   0.000  0.00  0.00    +0.021 A 
ENDROOT
BRANCH   1  14
ATOM     13  C   UNL     1       0.000   0.000   0.000  0.00  0.00    +0.247 C 
ATOM     14  N   UNL     1       0.715  -0.412   0.000  0.00  0.00    -0.178 NA
ATOM     15  O   UNL     1      -0.715  -0.412   0.000  0.00  0.00    -0.273 OA
BRANCH  13  16
ATOM     16  C   UNL     1       0.000   0.825   0.000  0.00  0.00    +0.108 C 
BRANCH  16  17
ATOM     17  C   UNL     1      -0.715   1.238   0.000  0.00  0.00    +0.125 C 
BRANCH  17  18
ATOM     18  N   UNL     1      -0.715   2.062   0.000  0.00  0.00    -0.081 NA
BRANCH  18  20
ATOM     19  C   UNL     1      -2.143   2.888   0.000  0.00  0.00    +0.197 C 
ATOM     20  S   UNL     1      -1.429   2.475   0.000  0.00  0.00    +0.059 S 
ATOM     21  O   UNL     1      -1.016   3.189   0.000  0.00  0.00    -0.156 OA
ATOM     22  O   UNL     1      -1.841   1.760   0.000  0.00  0.00    -0.156 OA
ENDBRANCH  18  20
ENDBRANCH  17  18
ENDBRANCH  16  17
ENDBRANCH  13  16
ENDBRANCH   1  14
TORSDOF 5
