REMARK  Name = 
REMARK  5 active torsions:
REMARK  status: ('A' for Active; 'I' for Inactive)
REMARK    1  A    between atoms: N_3  and  C_4
REMARK    2  A    between atoms: C_4  and  C_5
REMARK    3  A    between atoms: C_5  and  C_6
REMARK    4  A    between atoms: N_12  and  C_13
REMARK    5  A    between atoms: C_13  and  C_14
REMARK                            x       y       z     vdW  Elec       q    Type
REMARK                         _______ _______ _______ _____ _____    ______ ____
ROOT
ATOM      1  O   UNL     1       1.429  -2.475   0.000  0.00  0.00    -0.249 OA
ATOM      2  C   UNL     1       1.429  -1.650   0.000  0.00  0.00    +0.339 C 
ATOM      3  N   UNL     1       2.143  -1.238   0.000  0.00  0.00    -0.187 NA
ATOM      4  N   UNL     1       0.715  -1.238   0.000  0.00  0.00    -0.187 NA
ENDROOT
BRANCH   3   5
ATOM      5  C   UNL     1       2.858  -1.650   0.000  0.00  0.00    +0.119 C 
BRANCH   5   6
ATOM      6  C   UNL     1       3.572  -1.238   0.000  0.00  0.00    +0.047 C 
ATOM      7  C   UNL     1       4.326  -1.573   0.000  0.00  0.00    +0.153 C 
ATOM      8  S   UNL     1       4.878  -0.960   0.000  0.00  0.00    -0.010 S 
ATOM      9  O   UNL     1       5.430  -1.573   0.000  0.00  0.00    -0.173 OA
ATOM     10  O   UNL     1       5.545  -0.475   0.000  0.00  0.00    -0.173 OA
ATOM     11  C   UNL     1       4.466  -0.245   0.000  0.00  0.00    +0.151 C 
ATOM     12  C   UNL     1       3.659  -0.417   0.000  0.00  0.00    +0.029 C 
ENDBRANCH   5   6
ENDBRANCH   3   5
BRANCH   4  13
ATOM     13  C   UNL     1       0.000  -1.650   0.000  0.00  0.00    +0.123 C 
BRANCH  13  14
ATOM     14  C   UNL     1      -0.715  -1.238   0.000  0.00  0.00    +0.069 C 
BRANCH  14  15
ATOM     15  C   UNL     1      -1.429  -1.650   0.000  0.00  0.00    +0.061 A 
ATOM     16  N   UNL     1      -2.143  -1.238   0.000  0.00  0.00    -0.248 NA
ATOM     17  C   UNL     1      -2.858  -1.650   0.000  0.00  0.00    +0.098 A 
ATOM     18  C   UNL     1      -2.858  -2.475   0.000  0.00  0.00    +0.021 A 
ATOM     19  C   UNL     1      -2.143  -2.888   0.000  0.00  0.00    +0.003 A 
ATOM     20  C   UNL     1      -1.429  -2.475   0.000  0.00  0.00    +0.015 A 
ENDBRANCH  14  15
ENDBRANCH  13  14
ENDBRANCH   4  13
TORSDOF 5
