REMARK  Name = 
REMARK  3 active torsions:
REMARK  status: ('A' for Active; 'I' for Inactive)
REMARK    1  A    between atoms: C_2  and  N_4
REMARK    2  A    between atoms: N_4  and  C_11
REMARK    3  A    between atoms: C_11  and  C_12
REMARK                            x       y       z     vdW  Elec       q    Type
REMARK                         _______ _______ _______ _____ _____    ______ ____
ROOT
ATOM      1  C   UNL     1       2.562   0.825   0.000  0.00  0.00    +0.069 A 
ATOM      2  C   UNL     1       1.779   1.083   0.000  0.00  0.00    +0.027 A 
ATOM      3  C   UNL     1       1.292   0.412   0.000  0.00  0.00    +0.101 A 
ATOM      4  N   UNL     1       1.779  -0.254   0.000  0.00  0.00    -0.225 NA
ATOM      5  C   UNL     1       2.562   0.000   0.000  0.00  0.00    +0.167 A 
ATOM      6  N   UNL     1       3.275  -0.412   0.000  0.00  0.00    -0.205 NA
ATOM      7  C   UNL     1       3.992   0.000   0.000  0.00  0.00    +0.201 A 
ATOM      8  N   UNL     1       3.992   0.825   0.000  0.00  0.00    -0.209 NA
ATOM      9  C   UNL     1       3.275   1.238   0.000  0.00  0.00    +0.136 A 
ENDROOT
BRANCH   9  10
ATOM     10  N   UNL     1       3.275   2.062   0.000  0.00  0.00    -0.291 N 
ATOM     11  C   UNL     1       3.992   2.475   0.000  0.00  0.00    +0.114 C 
BRANCH  10  12
ATOM     12  C   UNL     1       2.562   2.475   0.000  0.00  0.00    +0.092 C 
BRANCH  12  13
ATOM     13  C   UNL     1       2.562   3.300   0.000  0.00  0.00    +0.025 C 
ATOM     14  C   UNL     1       1.979   3.888   0.000  0.00  0.00    +0.035 C 
ATOM     15  C   UNL     1       2.562   4.467   0.000  0.00  0.00    +0.152 C 
ATOM     16  O   UNL     1       2.562   5.292   0.000  0.00  0.00    -0.223 OA
ATOM     17  C   UNL     1       3.146   3.888   0.000  0.00  0.00    +0.035 C 
ENDBRANCH  12  13
ENDBRANCH  10  12
ENDBRANCH   9  10
TORSDOF 3
