REMARK  Name = 
REMARK  4 active torsions:
REMARK  status: ('A' for Active; 'I' for Inactive)
REMARK    1  A    between atoms: N_3  and  C_4
REMARK    2  A    between atoms: C_4  and  C_5
REMARK    3  A    between atoms: C_5  and  N_6
REMARK    4  A    between atoms: C_15  and  N_17
REMARK                            x       y       z     vdW  Elec       q    Type
REMARK                         _______ _______ _______ _____ _____    ______ ____
ROOT
ATOM      1  O   UNL     1      -0.715  -0.412   0.000  0.00  0.00    -0.251 OA
ATOM      2  C   UNL     1      -0.715  -1.238   0.000  0.00  0.00    +0.323 C 
ATOM      3  N   UNL     1      -1.429  -1.650   0.000  0.00  0.00    -0.261 N 
ATOM      4  C   UNL     1      -2.143  -1.238   0.000  0.00  0.00    +0.111 C 
ATOM      5  C   UNL     1      -2.858  -1.650   0.000  0.00  0.00    +0.077 C 
ATOM      6  C   UNL     1      -2.858  -2.475   0.000  0.00  0.00    +0.019 C 
ATOM      7  C   UNL     1      -2.143  -2.888   0.000  0.00  0.00    +0.023 C 
ATOM      8  C   UNL     1      -1.429  -2.475   0.000  0.00  0.00    +0.095 C 
ATOM      9  N   UNL     1       0.000  -1.650   0.000  0.00  0.00    -0.186 NA
ENDROOT
BRANCH   5  10
ATOM     10  N   UNL     1      -3.572  -1.238   0.000  0.00  0.00    -0.272 NA
ATOM     11  C   UNL     1      -3.659  -0.417   0.000  0.00  0.00    +0.072 C 
ATOM     12  C   UNL     1      -4.466  -0.245   0.000  0.00  0.00    +0.019 C 
ATOM     13  C   UNL     1      -4.878  -0.960   0.000  0.00  0.00    +0.019 C 
ATOM     14  C   UNL     1      -4.326  -1.573   0.000  0.00  0.00    +0.072 C 
ENDBRANCH   5  10
BRANCH   9  15
ATOM     15  C   UNL     1       0.715  -1.238   0.000  0.00  0.00    +0.141 C 
BRANCH  15  16
ATOM     16  C   UNL     1       1.429  -1.650   0.000  0.00  0.00    +0.131 C 
BRANCH  16  17
ATOM     17  N   UNL     1       2.143  -1.238   0.000  0.00  0.00    -0.306 N 
ATOM     18  C   UNL     1       2.897  -1.573   0.000  0.00  0.00    +0.179 A 
ATOM     19  N   UNL     1       3.449  -0.960   0.000  0.00  0.00    -0.222 NA
ATOM     20  C   UNL     1       3.037  -0.245   0.000  0.00  0.00    +0.119 A 
ATOM     21  C   UNL     1       2.230  -0.417   0.000  0.00  0.00    +0.098 A 
ENDBRANCH  16  17
ENDBRANCH  15  16
ENDBRANCH   9  15
TORSDOF 4
