REMARK  Name = 
REMARK  4 active torsions:
REMARK  status: ('A' for Active; 'I' for Inactive)
REMARK    1  A    between atoms: C_5  and  C_6
REMARK    2  A    between atoms: C_6  and  C_7
REMARK    3  A    between atoms: C_7  and  N_8
REMARK    4  A    between atoms: N_11  and  C_12
REMARK                            x       y       z     vdW  Elec       q    Type
REMARK                         _______ _______ _______ _____ _____    ______ ____
ROOT
ATOM      1  N   UNL     1      -2.143  -0.412   0.000  0.00  0.00    -0.187 NA
ATOM      2  C   UNL     1      -1.429   0.000   0.000  0.00  0.00    +0.339 C 
ATOM      3  N   UNL     1      -0.715  -0.412   0.000  0.00  0.00    -0.189 NA
ATOM      4  O   UNL     1      -1.429   0.825   0.000  0.00  0.00    -0.249 OA
ENDROOT
BRANCH   3   5
ATOM      5  C   UNL     1       0.000   0.000   0.000  0.00  0.00    +0.097 C 
ATOM      6  C   UNL     1       0.000   0.825   0.000  0.00  0.00    +0.020 C 
ATOM      7  C   UNL     1       0.611   0.234   0.000  0.00  0.00    +0.002 C 
ATOM      8  C   UNL     1       1.429   0.000   0.000  0.00  0.00    +0.002 C 
ATOM      9  C   UNL     1       1.429   0.825   0.000  0.00  0.00    +0.000 C 
ATOM     10  C   UNL     1       0.715   1.238   0.000  0.00  0.00    +0.002 C 
ATOM     11  C   UNL     1       0.715  -0.412   0.000  0.00  0.00    +0.022 C 
ENDBRANCH   3   5
BRANCH   1  12
ATOM     12  C   UNL     1      -2.858   0.000   0.000  0.00  0.00    +0.122 C 
BRANCH  12  13
ATOM     13  C   UNL     1      -3.572  -0.412   0.000  0.00  0.00    +0.051 C 
BRANCH  13  18
ATOM     14  C   UNL     1      -6.430   1.238   0.000  0.00  0.00    +0.052 C 
ATOM     15  C   UNL     1      -5.716   0.825   0.000  0.00  0.00    +0.059 A 
ATOM     16  N   UNL     1      -5.716   0.000   0.000  0.00  0.00    -0.248 NA
ATOM     17  C   UNL     1      -5.001  -0.412   0.000  0.00  0.00    +0.094 A 
ATOM     18  C   UNL     1      -4.287   0.000   0.000  0.00  0.00    -0.001 A 
ATOM     19  C   UNL     1      -4.287   0.825   0.000  0.00  0.00    -0.001 A 
ATOM     20  C   UNL     1      -5.001   1.238   0.000  0.00  0.00    +0.014 A 
ENDBRANCH  13  18
ENDBRANCH  12  13
ENDBRANCH   1  12
TORSDOF 4
