REMARK  Name = 
REMARK  5 active torsions:
REMARK  status: ('A' for Active; 'I' for Inactive)
REMARK    1  A    between atoms: C_2  and  C_5
REMARK    2  A    between atoms: C_10  and  N_11
REMARK    3  A    between atoms: N_14  and  C_15
REMARK    4  A    between atoms: C_15  and  C_16
REMARK    5  A    between atoms: C_15  and  C_19
REMARK                            x       y       z     vdW  Elec       q    Type
REMARK                         _______ _______ _______ _____ _____    ______ ____
ROOT
ATOM      1  C   UNL     1      -0.715   2.062   0.000  0.00  0.00    +0.092 A 
ATOM      2  C   UNL     1       0.000   1.650   0.000  0.00  0.00    +0.027 A 
ATOM      3  C   UNL     1       0.715   2.062   0.000  0.00  0.00    +0.133 A 
ATOM      4  C   UNL     1       0.715   2.888   0.000  0.00  0.00    +0.295 A 
ATOM      5  O   UNL     1       1.429   3.300   0.000  0.00  0.00    -0.264 OA
ATOM      6  N   UNL     1       0.000   3.300   0.000  0.00  0.00    -0.205 NA
ATOM      7  C   UNL     1      -0.715   2.888   0.000  0.00  0.00    +0.106 A 
ENDROOT
BRANCH   1   9
ATOM      8  F   UNL     1      -2.143   1.238   0.000  0.00  0.00    -0.166 F 
ATOM      9  C   UNL     1      -1.429   1.650   0.000  0.00  0.00    +0.420 C 
ATOM     10  F   UNL     1      -1.841   2.365   0.000  0.00  0.00    -0.166 F 
ATOM     11  F   UNL     1      -1.016   0.935   0.000  0.00  0.00    -0.166 F 
ENDBRANCH   1   9
BRANCH   3  12
ATOM     12  N   UNL     1       1.429   1.650   0.000  0.00  0.00    -0.156 NA
ATOM     13  C   UNL     1       2.143   2.062   0.000  0.00  0.00    +0.344 C 
ATOM     14  N   UNL     1       2.858   1.650   0.000  0.00  0.00    -0.189 NA
ATOM     15  O   UNL     1       2.143   2.888   0.000  0.00  0.00    -0.249 OA
BRANCH  14  16
ATOM     16  C   UNL     1       3.572   2.062   0.000  0.00  0.00    +0.097 C 
BRANCH  16  17
ATOM     17  C   UNL     1       3.572   2.888   0.000  0.00  0.00    +0.020 C 
ATOM     18  C   UNL     1       3.985   3.602   0.000  0.00  0.00    +0.002 C 
ATOM     19  C   UNL     1       3.160   3.602   0.000  0.00  0.00    +0.002 C 
ENDBRANCH  16  17
BRANCH  16  20
ATOM     20  C   UNL     1       4.287   1.650   0.000  0.00  0.00    +0.020 C 
ATOM     21  C   UNL     1       4.699   0.935   0.000  0.00  0.00    +0.002 C 
ATOM     22  C   UNL     1       5.112   1.650   0.000  0.00  0.00    +0.002 C 
ENDBRANCH  16  20
ENDBRANCH  14  16
ENDBRANCH   3  12
TORSDOF 5
