REMARK  Name = 
REMARK  4 active torsions:
REMARK  status: ('A' for Active; 'I' for Inactive)
REMARK    1  A    between atoms: C_2  and  C_4
REMARK    2  A    between atoms: N_11  and  C_12
REMARK    3  A    between atoms: C_12  and  C_13
REMARK    4  A    between atoms: C_13  and  N_14
REMARK                            x       y       z     vdW  Elec       q    Type
REMARK                         _______ _______ _______ _____ _____    ______ ____
ROOT
ATOM      1  C   UNL     1       1.556  -4.356   0.000  0.00  0.00    +0.112 A 
ATOM      2  S   UNL     1       2.363  -4.185   0.000  0.00  0.00    -0.033 S 
ATOM      3  C   UNL     1       2.449  -3.364   0.000  0.00  0.00    +0.209 A 
ATOM      4  N   UNL     1       3.163  -2.952   0.000  0.00  0.00    -0.134 NA
ATOM      5  C   UNL     1       3.878  -3.364   0.000  0.00  0.00    +0.345 C 
ATOM      6  N   UNL     1       4.592  -2.952   0.000  0.00  0.00    -0.185 NA
ATOM      7  O   UNL     1       3.878  -4.189   0.000  0.00  0.00    -0.249 OA
ATOM      8  N   UNL     1       1.695  -3.029   0.000  0.00  0.00    -0.124 NA
ATOM      9  N   UNL     1       1.143  -3.642   0.000  0.00  0.00    -0.144 NA
ENDROOT
BRANCH   1  11
ATOM     10  C   UNL     1       0.400  -5.196   0.000  0.00  0.00    +0.007 C 
ATOM     11  C   UNL     1       1.220  -5.110   0.000  0.00  0.00    +0.048 C 
ATOM     12  C   UNL     1       1.705  -5.777   0.000  0.00  0.00    +0.007 C 
ENDBRANCH   1  11
BRANCH   6  13
ATOM     13  C   UNL     1       5.307  -3.364   0.000  0.00  0.00    +0.134 C 
BRANCH  13  14
ATOM     14  C   UNL     1       6.021  -2.952   0.000  0.00  0.00    +0.096 C 
BRANCH  14  15
ATOM     15  N   UNL     1       6.736  -3.364   0.000  0.00  0.00    -0.264 NA
ATOM     16  C   UNL     1       6.822  -4.185   0.000  0.00  0.00    +0.099 C 
ATOM     17  C   UNL     1       7.629  -4.356   0.000  0.00  0.00    -0.012 C 
ATOM     18  C   UNL     1       8.041  -3.642   0.000  0.00  0.00    -0.012 C 
ATOM     19  C   UNL     1       7.489  -3.029   0.000  0.00  0.00    +0.099 C 
ENDBRANCH  14  15
ENDBRANCH  13  14
ENDBRANCH   6  13
TORSDOF 4
