REMARK  Name = 
REMARK  6 active torsions:
REMARK  status: ('A' for Active; 'I' for Inactive)
REMARK    1  A    between atoms: C_2  and  C_4
REMARK    2  A    between atoms: C_6  and  C_7
REMARK    3  A    between atoms: C_7  and  C_8
REMARK    4  A    between atoms: N_10  and  C_11
REMARK    5  A    between atoms: C_11  and  C_12
REMARK    6  A    between atoms: C_12  and  N_13
REMARK                            x       y       z     vdW  Elec       q    Type
REMARK                         _______ _______ _______ _____ _____    ______ ____
ROOT
ATOM      1  C   UNL     1       2.858  -4.125   0.000  0.00  0.00    +0.247 C 
ATOM      2  N   UNL     1       3.572  -3.712   0.000  0.00  0.00    -0.204 NA
ATOM      3  O   UNL     1       2.858  -4.950   0.000  0.00  0.00    -0.273 OA
ENDROOT
BRANCH   1   4
ATOM      4  C   UNL     1       2.143  -3.712   0.000  0.00  0.00    +0.133 C 
BRANCH   4   8
ATOM      5  C   UNL     1       0.123  -4.402   0.000  0.00  0.00    +0.087 A 
ATOM      6  S   UNL     1       0.536  -5.117   0.000  0.00  0.00    -0.071 S 
ATOM      7  C   UNL     1       1.343  -4.946   0.000  0.00  0.00    +0.052 A 
ATOM      8  C   UNL     1       1.429  -4.125   0.000  0.00  0.00    +0.075 A 
ATOM      9  N   UNL     1       0.675  -3.789   0.000  0.00  0.00    -0.247 NA
BRANCH   5  11
ATOM     10  C   UNL     1      -1.182  -4.984   0.000  0.00  0.00    +0.007 C 
ATOM     11  C   UNL     1      -0.697  -4.316   0.000  0.00  0.00    +0.047 C 
ATOM     12  C   UNL     1      -1.033  -3.563   0.000  0.00  0.00    +0.007 C 
ENDBRANCH   5  11
ENDBRANCH   4   8
ENDBRANCH   1   4
BRANCH   2  13
ATOM     13  C   UNL     1       4.287  -4.125   0.000  0.00  0.00    +0.132 C 
BRANCH  13  14
ATOM     14  C   UNL     1       5.001  -3.712   0.000  0.00  0.00    +0.096 C 
BRANCH  14  15
ATOM     15  N   UNL     1       5.716  -4.125   0.000  0.00  0.00    -0.267 NA
ATOM     16  C   UNL     1       5.716  -4.950   0.000  0.00  0.00    +0.105 C 
ATOM     17  C   UNL     1       6.430  -5.362   0.000  0.00  0.00    +0.159 C 
ATOM     18  O   UNL     1       7.145  -4.950   0.000  0.00  0.00    -0.351 OA
ATOM     19  C   UNL     1       7.145  -4.125   0.000  0.00  0.00    +0.159 C 
ATOM     20  C   UNL     1       6.430  -3.712   0.000  0.00  0.00    +0.105 C 
ENDBRANCH  14  15
ENDBRANCH  13  14
ENDBRANCH   2  13
TORSDOF 6
