REMARK  Name = 
REMARK  4 active torsions:
REMARK  status: ('A' for Active; 'I' for Inactive)
REMARK    1  A    between atoms: C_6  and  N_7
REMARK    2  A    between atoms: C_8  and  C_10
REMARK    3  A    between atoms: C_10  and  N_11
REMARK    4  A    between atoms: C_13  and  N_18
REMARK                            x       y       z     vdW  Elec       q    Type
REMARK                         _______ _______ _______ _____ _____    ______ ____
ROOT
ATOM      1  N   UNL     1       1.429  -4.125   0.000  0.00  0.00    -0.206 NA
ATOM      2  C   UNL     1       0.715  -3.712   0.000  0.00  0.00    +0.264 C 
ATOM      3  O   UNL     1       0.715  -2.888   0.000  0.00  0.00    -0.271 OA
ENDROOT
BRANCH   1   8
ATOM      4  C   UNL     1       2.858  -1.650   0.000  0.00  0.00    +0.000 C 
ATOM      5  C   UNL     1       2.858  -2.475   0.000  0.00  0.00    +0.002 C 
ATOM      6  C   UNL     1       2.143  -2.888   0.000  0.00  0.00    +0.020 C 
ATOM      7  C   UNL     1       1.429  -2.475   0.000  0.00  0.00    +0.002 C 
ATOM      8  C   UNL     1       2.143  -3.712   0.000  0.00  0.00    +0.095 C 
ATOM      9  C   UNL     1       2.858  -4.125   0.000  0.00  0.00    +0.022 C 
ATOM     10  C   UNL     1       3.572  -3.712   0.000  0.00  0.00    +0.002 C 
ATOM     11  C   UNL     1       3.572  -2.888   0.000  0.00  0.00    +0.000 C 
ENDBRANCH   1   8
BRANCH   2  12
ATOM     12  C   UNL     1       0.000  -4.125   0.000  0.00  0.00    +0.196 C 
BRANCH  12  13
ATOM     13  N   UNL     1      -0.715  -3.712   0.000  0.00  0.00    -0.280 N 
ATOM     14  C   UNL     1      -0.715  -2.888   0.000  0.00  0.00    +0.262 A 
ATOM     15  O   UNL     1       0.000  -2.475   0.000  0.00  0.00    -0.267 OA
ATOM     16  C   UNL     1      -1.429  -2.475   0.000  0.00  0.00    +0.067 A 
ATOM     17  C   UNL     1      -2.143  -2.888   0.000  0.00  0.00    +0.082 A 
ATOM     18  C   UNL     1      -2.143  -3.712   0.000  0.00  0.00    +0.307 A 
ATOM     19  C   UNL     1      -1.429  -4.125   0.000  0.00  0.00    +0.155 A 
BRANCH  18  20
ATOM     20  N   UNL     1      -2.858  -4.125   0.000  0.00  0.00    +0.082 N 
ATOM     21  O   UNL     1      -3.572  -3.712   0.000  0.00  0.00    -0.576 OA
ATOM     22  O   UNL     1      -2.858  -4.950   0.000  0.00  0.00    +0.042 OA
ENDBRANCH  18  20
ENDBRANCH  12  13
ENDBRANCH   2  12
TORSDOF 4
