REMARK  Name = 
REMARK  4 active torsions:
REMARK  status: ('A' for Active; 'I' for Inactive)
REMARK    1  A    between atoms: C_2  and  C_3
REMARK    2  A    between atoms: C_2  and  N_10
REMARK    3  A    between atoms: C_3  and  N_4
REMARK    4  A    between atoms: N_10  and  C_11
REMARK                            x       y       z     vdW  Elec       q    Type
REMARK                         _______ _______ _______ _____ _____    ______ ____
ROOT
ATOM      1  C   UNL     1       4.992  -1.693   0.000  0.00  0.00    +0.021 C 
ATOM      2  C   UNL     1       4.778  -0.896   0.000  0.00  0.00    +0.097 C 
ENDROOT
BRANCH   2   3
ATOM      3  N   UNL     1       3.981  -0.683   0.000  0.00  0.00    -0.220 NA
BRANCH   3   4
ATOM      4  C   UNL     1       3.398  -1.266   0.000  0.00  0.00    +0.059 C 
ATOM      5  C   UNL     1       2.814  -1.849   0.000  0.00  0.00    +0.016 C 
ATOM      6  C   UNL     1       3.398  -2.433   0.000  0.00  0.00    +0.003 C 
ATOM      7  C   UNL     1       3.981  -1.849   0.000  0.00  0.00    +0.016 C 
ATOM      8  C   UNL     1       2.814  -0.683   0.000  0.00  0.00    +0.017 C 
ENDBRANCH   3   4
ENDBRANCH   2   3
BRANCH   2   9
ATOM      9  C   UNL     1       5.361  -0.313   0.000  0.00  0.00    +0.145 C 
BRANCH   9  10
ATOM     10  N   UNL     1       6.158  -0.526   0.000  0.00  0.00    -0.247 N 
ATOM     11  N   UNL     1       6.454  -1.297   0.000  0.00  0.00    -0.167 NA
ATOM     12  C   UNL     1       7.278  -1.254   0.000  0.00  0.00    +0.128 A 
ATOM     13  C   UNL     1       7.491  -0.457   0.000  0.00  0.00    +0.074 A 
ATOM     14 BR   UNL     1       8.261  -0.161   0.000  0.00  0.00    -0.046 Br
ATOM     15  C   UNL     1       6.799  -0.007   0.000  0.00  0.00    +0.103 A 
ENDBRANCH   9  10
ENDBRANCH   2   9
TORSDOF 4
