REMARK  Name = 
REMARK  5 active torsions:
REMARK  status: ('A' for Active; 'I' for Inactive)
REMARK    1  A    between atoms: N_7  and  C_8
REMARK    2  A    between atoms: C_8  and  C_9
REMARK    3  A    between atoms: N_11  and  C_12
REMARK    4  A    between atoms: C_12  and  C_13
REMARK    5  A    between atoms: C_12  and  C_16
REMARK                            x       y       z     vdW  Elec       q    Type
REMARK                         _______ _______ _______ _____ _____    ______ ____
ROOT
ATOM      1  C   UNL     1       2.507   1.127   0.000  0.00  0.00    +0.264 C 
ATOM      2  N   UNL     1       3.221   0.715   0.000  0.00  0.00    -0.206 NA
ATOM      3  O   UNL     1       2.507   1.952   0.000  0.00  0.00    -0.271 OA
ENDROOT
BRANCH   1   4
ATOM      4  C   UNL     1       1.793   0.715   0.000  0.00  0.00    +0.196 C 
BRANCH   4   7
ATOM      5  C   UNL     1       0.153  -0.016   0.000  0.00  0.00    +0.051 C 
ATOM      6  C   UNL     1       0.324   0.791   0.000  0.00  0.00    +0.048 A 
ATOM      7  N   UNL     1       1.078   1.127   0.000  0.00  0.00    -0.285 N 
ATOM      8  C   UNL     1       0.992   1.948   0.000  0.00  0.00    +0.292 A 
ATOM      9  O   UNL     1       1.605   2.499   0.000  0.00  0.00    -0.259 OA
ATOM     10  S   UNL     1       0.185   2.119   0.000  0.00  0.00    -0.026 S 
ATOM     11  C   UNL     1      -0.228   1.405   0.000  0.00  0.00    +0.053 A 
ENDBRANCH   4   7
ENDBRANCH   1   4
BRANCH   2  12
ATOM     12  C   UNL     1       3.936   1.127   0.000  0.00  0.00    +0.095 C 
BRANCH  12  13
ATOM     13  C   UNL     1       3.936   1.952   0.000  0.00  0.00    +0.020 C 
ATOM     14  C   UNL     1       4.348   2.666   0.000  0.00  0.00    +0.002 C 
ATOM     15  C   UNL     1       3.523   2.666   0.000  0.00  0.00    +0.002 C 
ENDBRANCH  12  13
BRANCH  12  16
ATOM     16  C   UNL     1       4.651   0.715   0.000  0.00  0.00    +0.020 C 
ATOM     17  C   UNL     1       5.063   0.000   0.000  0.00  0.00    +0.002 C 
ATOM     18  C   UNL     1       5.476   0.715   0.000  0.00  0.00    +0.002 C 
ENDBRANCH  12  16
ENDBRANCH   2  12
TORSDOF 5
