REMARK  Name = 
REMARK  4 active torsions:
REMARK  status: ('A' for Active; 'I' for Inactive)
REMARK    1  A    between atoms: CA_2  and  C_3
REMARK    2  A    between atoms: CA_2  and  N_5
REMARK    3  A    between atoms: N_8  and  C_9
REMARK    4  A    between atoms: C_14  and  N_15
REMARK                            x       y       z     vdW  Elec       q    Type
REMARK                         _______ _______ _______ _____ _____    ______ ____
ROOT
ATOM      1  C   UNK A   0       2.858  -3.300   0.000  0.00  0.00    +0.106 A 
ATOM      2  C   UNK A   0       3.572  -3.712   0.000  0.00  0.00    +0.147 A 
ATOM      3  N   UNK A   0       4.287  -3.300   0.000  0.00  0.00    -0.228 NA
ATOM      4  C   UNK A   0       4.287  -2.475   0.000  0.00  0.00    +0.100 A 
ATOM      5  C   UNK A   0       3.572  -2.062   0.000  0.00  0.00    +0.022 A 
ATOM      6  C   UNK A   0       2.858  -2.475   0.000  0.00  0.00    +0.021 A 
ENDROOT
BRANCH   2   7
ATOM      7  N   UNK A   0       3.572  -4.537   0.000  0.00  0.00    -0.292 N 
ATOM      8  C   UNK A   0       2.905  -5.022   0.000  0.00  0.00    +0.092 C 
ATOM      9  C   UNK A   0       3.160  -5.807   0.000  0.00  0.00    +0.023 C 
ATOM     10  C   UNK A   0       3.985  -5.807   0.000  0.00  0.00    +0.023 C 
ATOM     11  C   UNK A   0       4.240  -5.022   0.000  0.00  0.00    +0.092 C 
ENDBRANCH   2   7
BRANCH   1  14
ATOM     12  N   ALA A   1       0.715  -3.712   0.000  0.00  0.00    -0.186 NA
ATOM     13  C   UNK A   0       1.429  -3.300   0.000  0.00  0.00    +0.344 C 
ATOM     14  N   UNK A   0       2.143  -3.712   0.000  0.00  0.00    -0.158 NA
ATOM     15  O   UNK A   0       1.429  -2.475   0.000  0.00  0.00    -0.249 OA
BRANCH  12  17
ATOM     16  CB  ALA A   1       0.000  -2.475   0.000  0.00  0.00    +0.026 C 
ATOM     17  CA  ALA A   1       0.000  -3.300   0.000  0.00  0.00    +0.130 C 
BRANCH  17  18
ATOM     18  C   ALA A   1      -0.715  -3.712   0.000  0.00  0.00    +0.204 C 
ATOM     19  O   ALA A   1      -1.429  -3.300   0.000  0.00  0.00    -0.219 OA
ENDBRANCH  17  18
ENDBRANCH  12  17
ENDBRANCH   1  14
TORSDOF 4
