REMARK  Name = 
REMARK  3 active torsions:
REMARK  status: ('A' for Active; 'I' for Inactive)
REMARK    1  A    between atoms: C_2  and  C_3
REMARK    2  A    between atoms: C_2  and  N_10
REMARK    3  A    between atoms: C_3  and  N_4
REMARK                            x       y       z     vdW  Elec       q    Type
REMARK                         _______ _______ _______ _____ _____    ______ ____
ROOT
ATOM      1  N   UNL     1       3.572  -3.712   0.000  0.00  0.00    -0.187 NA
ATOM      2  C   UNL     1       4.287  -4.125   0.000  0.00  0.00    +0.345 C 
ATOM      3  N   UNL     1       5.001  -3.712   0.000  0.00  0.00    -0.142 NA
ATOM      4  C   UNL     1       5.716  -4.125   0.000  0.00  0.00    +0.156 A 
ATOM      5  N   UNL     1       5.716  -4.950   0.000  0.00  0.00    -0.227 NA
ATOM      6  C   UNL     1       6.430  -5.362   0.000  0.00  0.00    +0.100 A 
ATOM      7  C   UNL     1       7.145  -4.950   0.000  0.00  0.00    +0.021 A 
ATOM      8  C   UNL     1       7.145  -4.125   0.000  0.00  0.00    +0.005 A 
ATOM      9  C   UNL     1       6.430  -3.712   0.000  0.00  0.00    +0.036 A 
ATOM     10  O   UNL     1       4.287  -4.950   0.000  0.00  0.00    -0.249 OA
ENDROOT
BRANCH   1  12
ATOM     11  C   UNL     1       2.858  -4.950   0.000  0.00  0.00    +0.025 C 
ATOM     12  C   UNL     1       2.858  -4.125   0.000  0.00  0.00    +0.113 C 
BRANCH  12  13
ATOM     13  C   UNL     1       2.143  -3.712   0.000  0.00  0.00    +0.094 C 
BRANCH  13  14
ATOM     14  N   UNL     1       1.429  -4.125   0.000  0.00  0.00    -0.267 NA
ATOM     15  C   UNL     1       0.715  -3.712   0.000  0.00  0.00    +0.105 C 
ATOM     16  C   UNL     1       0.000  -4.125   0.000  0.00  0.00    +0.159 C 
ATOM     17  O   UNL     1       0.000  -4.950   0.000  0.00  0.00    -0.351 OA
ATOM     18  C   UNL     1       0.715  -5.362   0.000  0.00  0.00    +0.159 C 
ATOM     19  C   UNL     1       1.429  -4.950   0.000  0.00  0.00    +0.105 C 
ENDBRANCH  13  14
ENDBRANCH  12  13
ENDBRANCH   1  12
TORSDOF 3
