REMARK  Name = 
REMARK  4 active torsions:
REMARK  status: ('A' for Active; 'I' for Inactive)
REMARK    1  A    between atoms: C_2  and  C_4
REMARK    2  A    between atoms: C_4  and  N_6
REMARK    3  A    between atoms: C_7  and  C_9
REMARK    4  A    between atoms: C_9  and  C_10
REMARK                            x       y       z     vdW  Elec       q    Type
REMARK                         _______ _______ _______ _____ _____    ______ ____
ROOT
ATOM      1  C   UNL     1       5.001  -3.712   0.000  0.00  0.00    +0.119 C 
ENDROOT
BRANCH   1   2
ATOM      2  C   UNL     1       5.716  -4.125   0.000  0.00  0.00    +0.058 A 
ATOM      3  C   UNL     1       5.716  -4.950   0.000  0.00  0.00    +0.278 A 
ATOM      4  O   UNL     1       5.001  -5.362   0.000  0.00  0.00    -0.265 OA
ATOM      5  N   UNL     1       6.430  -5.362   0.000  0.00  0.00    -0.193 NA
ATOM      6  C   UNL     1       7.145  -4.950   0.000  0.00  0.00    +0.142 A 
ATOM      7  C   UNL     1       7.859  -5.362   0.000  0.00  0.00    +0.074 C 
ATOM      8  N   UNL     1       7.145  -4.125   0.000  0.00  0.00    -0.235 NA
ATOM      9  C   UNL     1       6.430  -3.712   0.000  0.00  0.00    +0.062 A 
ATOM     10  C   UNL     1       6.430  -2.888   0.000  0.00  0.00    +0.052 C 
ENDBRANCH   1   2
BRANCH   1  12
ATOM     11  N   UNL     1       3.572  -3.712   0.000  0.00  0.00    -0.207 NA
ATOM     12  C   UNL     1       4.287  -4.125   0.000  0.00  0.00    +0.246 C 
ATOM     13  O   UNL     1       4.287  -4.950   0.000  0.00  0.00    -0.273 OA
BRANCH  11  14
ATOM     14  C   UNL     1       2.858  -4.125   0.000  0.00  0.00    +0.095 C 
ATOM     15  C   UNL     1       2.858  -4.950   0.000  0.00  0.00    +0.023 C 
BRANCH  14  17
ATOM     16  C   UNL     1       1.429  -4.125   0.000  0.00  0.00    +0.002 C 
ATOM     17  C   UNL     1       2.143  -3.712   0.000  0.00  0.00    +0.020 C 
ATOM     18  C   UNL     1       2.143  -2.888   0.000  0.00  0.00    +0.002 C 
ENDBRANCH  14  17
ENDBRANCH  11  14
ENDBRANCH   1  12
TORSDOF 4
