REMARK  Name = 
REMARK  6 active torsions:
REMARK  status: ('A' for Active; 'I' for Inactive)
REMARK    1  A    between atoms: C_2  and  C_3
REMARK    2  A    between atoms: C_7  and  C_8
REMARK    3  A    between atoms: C_8  and  N_9
REMARK    4  A    between atoms: N_9  and  C_10
REMARK    5  A    between atoms: C_10  and  C_11
REMARK    6  A    between atoms: C_11  and  C_14
REMARK                            x       y       z     vdW  Elec       q    Type
REMARK                         _______ _______ _______ _____ _____    ______ ____
ROOT
ATOM      1  N   UNL     1       3.572   7.591   0.000  0.00  0.00    -0.215 NA
ENDROOT
BRANCH   1   2
ATOM      2  C   UNL     1       2.858   7.179   0.000  0.00  0.00    +0.123 C 
BRANCH   2   3
ATOM      3  C   UNL     1       2.858   6.354   0.000  0.00  0.00    +0.164 C 
ATOM      4  O   UNL     1       3.683   6.354   0.000  0.00  0.00    -0.220 OA
ATOM      5  C   UNL     1       2.033   6.354   0.000  0.00  0.00    +0.039 C 
BRANCH   3   6
ATOM      6  C   UNL     1       2.858   5.529   0.000  0.00  0.00    +0.046 A 
ATOM      7  C   UNL     1       2.190   5.044   0.000  0.00  0.00    +0.095 A 
ATOM      8  N   UNL     1       2.445   4.259   0.000  0.00  0.00    -0.248 N 
ATOM      9  C   UNL     1       1.960   3.592   0.000  0.00  0.00    +0.154 C 
ATOM     10  N   UNL     1       3.270   4.259   0.000  0.00  0.00    -0.168 NA
ATOM     11  C   UNL     1       3.525   5.044   0.000  0.00  0.00    +0.120 A 
ENDBRANCH   3   6
ENDBRANCH   2   3
ENDBRANCH   1   2
BRANCH   1  12
ATOM     12  C   UNL     1       3.572   8.416   0.000  0.00  0.00    +0.089 C 
BRANCH  12  15
ATOM     13  C   UNL     1       5.001  10.066   0.000  0.00  0.00    +0.000 C 
ATOM     14  C   UNL     1       4.287   9.654   0.000  0.00  0.00    +0.001 C 
ATOM     15  C   UNL     1       4.287   8.829   0.000  0.00  0.00    +0.017 C 
ATOM     16  C   UNL     1       5.001   8.416   0.000  0.00  0.00    +0.001 C 
ATOM     17  C   UNL     1       5.716   8.829   0.000  0.00  0.00    +0.000 C 
ATOM     18  C   UNL     1       5.716   9.654   0.000  0.00  0.00    +0.000 C 
BRANCH  13  20
ATOM     19  C   UNL     1       5.716  11.304   0.000  0.00  0.00    +0.000 C 
ATOM     20  C   UNL     1       5.001  10.891   0.000  0.00  0.00    +0.000 C 
ENDBRANCH  13  20
ENDBRANCH  12  15
ENDBRANCH   1  12
TORSDOF 6
