REMARK  Name = 
REMARK  4 active torsions:
REMARK  status: ('A' for Active; 'I' for Inactive)
REMARK    1  A    between atoms: C_2  and  C_3
REMARK    2  A    between atoms: C_6  and  C_7
REMARK    3  A    between atoms: C_7  and  C_8
REMARK    4  A    between atoms: C_8  and  N_9
REMARK                            x       y       z     vdW  Elec       q    Type
REMARK                         _______ _______ _______ _____ _____    ______ ____
ROOT
ATOM      1  N   UNL     1       0.204  -1.954   0.000  0.00  0.00    -0.188 NA
ATOM      2  C   UNL     1       0.918  -2.366   0.000  0.00  0.00    +0.323 C 
ATOM      3  N   UNL     1       1.633  -1.954   0.000  0.00  0.00    -0.261 N 
ATOM      4  C   UNL     1       2.315  -2.418   0.000  0.00  0.00    +0.105 C 
ATOM      5  C   UNL     1       3.103  -2.175   0.000  0.00  0.00    +0.108 C 
ATOM      6  C   UNL     1       3.404  -1.407   0.000  0.00  0.00    +0.243 C 
ATOM      7  O   UNL     1       4.227  -1.346   0.000  0.00  0.00    -0.273 OA
ATOM      8  N   UNL     1       2.992  -0.693   0.000  0.00  0.00    -0.204 NA
ATOM      9  C   UNL     1       2.176  -0.570   0.000  0.00  0.00    +0.137 C 
ATOM     10  C   UNL     1       1.571  -1.131   0.000  0.00  0.00    +0.118 C 
ATOM     11  O   UNL     1       0.918  -3.191   0.000  0.00  0.00    -0.251 OA
ENDROOT
BRANCH   1  12
ATOM     12  C   UNL     1      -0.510  -2.366   0.000  0.00  0.00    +0.124 C 
BRANCH  12  13
ATOM     13  C   UNL     1      -1.225  -1.954   0.000  0.00  0.00    +0.076 C 
BRANCH  13  16
ATOM     14  C   UNL     1      -2.833  -3.358   0.000  0.00  0.00    +0.027 A 
ATOM     15  S   UNL     1      -2.026  -3.187   0.000  0.00  0.00    -0.075 S 
ATOM     16  C   UNL     1      -1.939  -2.366   0.000  0.00  0.00    +0.090 A 
ATOM     17  N   UNL     1      -2.693  -2.031   0.000  0.00  0.00    -0.241 NA
ATOM     18  C   UNL     1      -3.245  -2.644   0.000  0.00  0.00    +0.101 A 
BRANCH  14  20
ATOM     19  C   UNL     1      -3.989  -4.198   0.000  0.00  0.00    +0.006 C 
ATOM     20  C   UNL     1      -3.168  -4.112   0.000  0.00  0.00    +0.035 C 
ENDBRANCH  14  20
ENDBRANCH  13  16
ENDBRANCH  12  13
ENDBRANCH   1  12
TORSDOF 4
