REMARK  Name = 
REMARK  3 active torsions:
REMARK  status: ('A' for Active; 'I' for Inactive)
REMARK    1  A    between atoms: N_7  and  C_8
REMARK    2  A    between atoms: C_8  and  C_9
REMARK    3  A    between atoms: N_11  and  C_12
REMARK                            x       y       z     vdW  Elec       q    Type
REMARK                         _______ _______ _______ _____ _____    ______ ____
ROOT
ATOM      1  C   UNL     1       1.429  -4.125   0.000  0.00  0.00    +0.197 C 
ENDROOT
BRANCH   1   6
ATOM      2  C   UNL     1       2.858  -1.650   0.000  0.00  0.00    +0.138 C 
ATOM      3  N   UNL     1       2.858  -2.475   0.000  0.00  0.00    -0.247 N 
ATOM      4  C   UNL     1       2.143  -2.888   0.000  0.00  0.00    +0.334 A 
ATOM      5  O   UNL     1       1.429  -2.475   0.000  0.00  0.00    -0.246 OA
ATOM      6  N   UNL     1       2.143  -3.712   0.000  0.00  0.00    -0.271 N 
ATOM      7  C   UNL     1       2.858  -4.125   0.000  0.00  0.00    +0.085 A 
ATOM      8  C   UNL     1       3.572  -3.712   0.000  0.00  0.00    +0.080 A 
ATOM      9  C   UNL     1       3.572  -2.888   0.000  0.00  0.00    +0.266 A 
ATOM     10  O   UNL     1       4.287  -2.475   0.000  0.00  0.00    -0.267 OA
ENDBRANCH   1   6
BRANCH   1  11
ATOM     11  C   UNL     1       0.715  -3.712   0.000  0.00  0.00    +0.265 C 
ATOM     12  N   UNL     1       0.000  -4.125   0.000  0.00  0.00    -0.206 NA
ATOM     13  O   UNL     1       0.715  -2.888   0.000  0.00  0.00    -0.271 OA
BRANCH  12  14
ATOM     14  C   UNL     1      -0.715  -3.712   0.000  0.00  0.00    +0.095 C 
ATOM     15  C   UNL     1      -0.715  -2.888   0.000  0.00  0.00    +0.022 C 
ATOM     16  C   UNL     1      -1.429  -2.475   0.000  0.00  0.00    +0.002 C 
ATOM     17  C   UNL     1      -2.143  -2.888   0.000  0.00  0.00    +0.000 C 
ATOM     18  C   UNL     1      -2.143  -3.712   0.000  0.00  0.00    +0.002 C 
ATOM     19  C   UNL     1      -1.429  -4.125   0.000  0.00  0.00    +0.022 C 
ENDBRANCH  12  14
ENDBRANCH   1  11
TORSDOF 3
