REMARK  Name = 
REMARK  2 active torsions:
REMARK  status: ('A' for Active; 'I' for Inactive)
REMARK    1  A    between atoms: C_2  and  C_3
REMARK    2  A    between atoms: C_2  and  N_6
REMARK                            x       y       z     vdW  Elec       q    Type
REMARK                         _______ _______ _______ _____ _____    ______ ____
ROOT
ATOM      1  N   UNL     1       0.715   1.238   0.000  0.00  0.00    -0.290 N 
ATOM      2  C   UNL     1       0.000   0.825   0.000  0.00  0.00    +0.264 A 
ATOM      3  O   UNL     1      -0.715   1.238   0.000  0.00  0.00    -0.267 OA
ATOM      4  C   UNL     1       0.000   0.000   0.000  0.00  0.00    +0.103 A 
ATOM      5  C   UNL     1       0.715  -0.412   0.000  0.00  0.00    +0.202 A 
ATOM      6  O   UNL     1       0.715  -1.238   0.000  0.00  0.00    -0.286 OA
ATOM      7  C   UNL     1       1.429   0.000   0.000  0.00  0.00    +0.055 A 
ATOM      8  C   UNL     1       1.429   0.825   0.000  0.00  0.00    +0.044 A 
ATOM      9  C   UNL     1       2.143   1.238   0.000  0.00  0.00    +0.050 C 
ENDROOT
BRANCH   1  11
ATOM     10  C   UNL     1       1.429   2.475   0.000  0.00  0.00    +0.037 C 
ATOM     11  C   UNL     1       0.715   2.062   0.000  0.00  0.00    +0.191 C 
BRANCH  11  12
ATOM     12  C   UNL     1       0.000   2.475   0.000  0.00  0.00    +0.385 C 
ATOM     13  O   UNL     1      -0.715   2.062   0.000  0.00  0.00    -0.244 OA
ATOM     14  O   UNL     1       0.000   3.300   0.000  0.00  0.00    -0.244 OA
ENDBRANCH  11  12
ENDBRANCH   1  11
TORSDOF 2
