REMARK  Name = 
REMARK  6 active torsions:
REMARK  status: ('A' for Active; 'I' for Inactive)
REMARK    1  A    between atoms: C_2  and  S_3
REMARK    2  A    between atoms: S_3  and  C_4
REMARK    3  A    between atoms: C_4  and  C_5
REMARK    4  A    between atoms: C_5  and  C_6
REMARK    5  A    between atoms: N_8  and  C_9
REMARK    6  A    between atoms: C_9  and  C_10
REMARK                            x       y       z     vdW  Elec       q    Type
REMARK                         _______ _______ _______ _____ _____    ______ ____
ROOT
ATOM      1  C   UNL     1       9.288  -6.188   0.000  0.00  0.00    +0.004 A 
ATOM      2  C   UNL     1      10.003  -6.600   0.000  0.00  0.00    +0.032 A 
ATOM      3  C   UNL     1      10.717  -6.188   0.000  0.00  0.00    +0.132 A 
ATOM      4  N   UNL     1      11.431  -6.600   0.000  0.00  0.00    -0.288 N 
ATOM      5  C   UNL     1      11.431  -7.425   0.000  0.00  0.00    +0.124 C 
ATOM      6  C   UNL     1      12.146  -7.838   0.000  0.00  0.00    +0.164 C 
ATOM      7  O   UNL     1      12.861  -7.425   0.000  0.00  0.00    -0.350 OA
ATOM      8  C   UNL     1      12.861  -6.600   0.000  0.00  0.00    +0.164 C 
ATOM      9  C   UNL     1      12.146  -6.188   0.000  0.00  0.00    +0.124 C 
ATOM     10  N   UNL     1      10.717  -5.362   0.000  0.00  0.00    -0.229 NA
ATOM     11  C   UNL     1      10.003  -4.950   0.000  0.00  0.00    +0.100 A 
ATOM     12  C   UNL     1       9.288  -5.362   0.000  0.00  0.00    +0.018 A 
ENDROOT
BRANCH   1  13
ATOM     13  C   UNL     1       8.574  -6.600   0.000  0.00  0.00    +0.142 C 
BRANCH  13  15
ATOM     14  C   UNL     1       7.145  -6.600   0.000  0.00  0.00    +0.243 C 
ATOM     15  N   UNL     1       7.859  -6.188   0.000  0.00  0.00    -0.201 NA
ATOM     16  O   UNL     1       7.145  -7.425   0.000  0.00  0.00    -0.273 OA
BRANCH  14  17
ATOM     17  C   UNL     1       6.430  -6.188   0.000  0.00  0.00    +0.098 C 
BRANCH  17  18
ATOM     18  C   UNL     1       5.716  -6.600   0.000  0.00  0.00    +0.067 C 
BRANCH  18  19
ATOM     19  S   UNL     1       5.001  -6.188   0.000  0.00  0.00    -0.140 S 
BRANCH  19  21
ATOM     20  C   UNL     1       3.572  -6.188   0.000  0.00  0.00    +0.013 C 
ATOM     21  C   UNL     1       4.287  -6.600   0.000  0.00  0.00    +0.058 C 
ENDBRANCH  19  21
ENDBRANCH  18  19
ENDBRANCH  17  18
ENDBRANCH  14  17
ENDBRANCH  13  15
ENDBRANCH   1  13
TORSDOF 6
