REMARK  Name = 
REMARK  5 active torsions:
REMARK  status: ('A' for Active; 'I' for Inactive)
REMARK    1  A    between atoms: C_2  and  C_4
REMARK    2  A    between atoms: C_6  and  N_13
REMARK    3  A    between atoms: C_8  and  C_10
REMARK    4  A    between atoms: C_17  and  C_18
REMARK    5  A    between atoms: C_18  and  N_19
REMARK                            x       y       z     vdW  Elec       q    Type
REMARK                         _______ _______ _______ _____ _____    ______ ____
ROOT
ATOM      1  C   UNL     1       0.715  -1.238   0.000  0.00  0.00    +0.063 A 
ATOM      2  N   UNL     1       0.000  -1.650   0.000  0.00  0.00    -0.235 NA
ATOM      3  C   UNL     1       0.000  -2.475   0.000  0.00  0.00    +0.140 A 
ATOM      4  N   UNL     1       0.715  -2.888   0.000  0.00  0.00    -0.216 NA
ATOM      5  C   UNL     1       1.429  -2.475   0.000  0.00  0.00    +0.134 A 
ATOM      6  C   UNL     1       1.429  -1.650   0.000  0.00  0.00    +0.049 A 
ENDROOT
BRANCH   5   7
ATOM      7  N   UNL     1       2.143  -2.888   0.000  0.00  0.00    -0.288 N 
ATOM      8  C   UNL     1       2.143  -3.712   0.000  0.00  0.00    +0.123 C 
ATOM      9  C   UNL     1       2.858  -4.125   0.000  0.00  0.00    +0.157 C 
ATOM     10  O   UNL     1       3.572  -3.712   0.000  0.00  0.00    -0.351 OA
ATOM     11  C   UNL     1       3.572  -2.888   0.000  0.00  0.00    +0.164 C 
ATOM     12  C   UNL     1       2.858  -2.475   0.000  0.00  0.00    +0.124 C 
BRANCH   9  13
ATOM     13  C   UNL     1       2.858  -4.950   0.000  0.00  0.00    +0.146 C 
BRANCH  13  14
ATOM     14  N   UNL     1       3.572  -5.362   0.000  0.00  0.00    -0.203 NA
ATOM     15  C   UNL     1       3.572  -6.188   0.000  0.00  0.00    +0.242 C 
ATOM     16  C   UNL     1       2.858  -6.600   0.000  0.00  0.00    +0.096 C 
ATOM     17  O   UNL     1       4.287  -6.600   0.000  0.00  0.00    -0.273 OA
ENDBRANCH  13  14
ENDBRANCH   9  13
ENDBRANCH   5   7
BRANCH   1  19
ATOM     18  C   UNL     1       0.000   0.000   0.000  0.00  0.00    +0.006 C 
ATOM     19  C   UNL     1       0.715  -0.412   0.000  0.00  0.00    +0.040 C 
ATOM     20  C   UNL     1       1.429   0.000   0.000  0.00  0.00    +0.006 C 
ENDBRANCH   1  19
BRANCH   3  21
ATOM     21  C   UNL     1      -0.715  -2.888   0.000  0.00  0.00    +0.059 C 
ATOM     22  C   UNL     1      -0.715  -3.712   0.000  0.00  0.00    +0.008 C 
ATOM     23  C   UNL     1      -1.429  -2.475   0.000  0.00  0.00    +0.008 C 
ENDBRANCH   3  21
TORSDOF 5
