REMARK  Name = 
REMARK  4 active torsions:
REMARK  status: ('A' for Active; 'I' for Inactive)
REMARK    1  A    between atoms: C_2  and  C_4
REMARK    2  A    between atoms: C_4  and  N_5
REMARK    3  A    between atoms: N_8  and  C_9
REMARK    4  A    between atoms: C_12  and  C_15
REMARK                            x       y       z     vdW  Elec       q    Type
REMARK                         _______ _______ _______ _____ _____    ______ ____
ROOT
ATOM      1  C   UNL     1       0.000  -5.775   0.000  0.00  0.00    +0.094 A 
ATOM      2  C   UNL     1       0.000  -6.600   0.000  0.00  0.00    +0.116 A 
ATOM      3  N   UNL     1       0.715  -7.013   0.000  0.00  0.00    -0.238 NA
ATOM      4  C   UNL     1       1.429  -6.600   0.000  0.00  0.00    +0.135 A 
ATOM      5  C   UNL     1       1.429  -5.775   0.000  0.00  0.00    +0.025 A 
ATOM      6  C   UNL     1       0.715  -5.362   0.000  0.00  0.00    +0.020 A 
ENDROOT
BRANCH   4   7
ATOM      7  C   UNL     1       2.143  -7.013   0.000  0.00  0.00    +0.267 C 
ATOM      8  N   UNL     1       2.858  -6.600   0.000  0.00  0.00    -0.275 N 
ATOM      9  C   UNL     1       3.572  -7.013   0.000  0.00  0.00    +0.094 C 
ATOM     10  C   UNL     1       4.287  -6.600   0.000  0.00  0.00    +0.022 C 
ATOM     11  C   UNL     1       4.287  -5.775   0.000  0.00  0.00    +0.004 C 
ATOM     12  C   UNL     1       3.572  -5.362   0.000  0.00  0.00    +0.022 C 
ATOM     13  C   UNL     1       2.858  -5.775   0.000  0.00  0.00    +0.094 C 
ATOM     14  O   UNL     1       2.143  -7.838   0.000  0.00  0.00    -0.268 OA
ENDBRANCH   4   7
BRANCH   1  17
ATOM     15  N   UNL     1      -2.143  -5.362   0.000  0.00  0.00    -0.182 NA
ATOM     16  C   UNL     1      -1.429  -5.775   0.000  0.00  0.00    +0.344 C 
ATOM     17  N   UNL     1      -0.715  -5.362   0.000  0.00  0.00    -0.159 NA
ATOM     18  O   UNL     1      -1.429  -6.600   0.000  0.00  0.00    -0.249 OA
BRANCH  15  19
ATOM     19  C   UNL     1      -2.858  -5.775   0.000  0.00  0.00    +0.139 C 
BRANCH  19  21
ATOM     20  C   UNL     1      -4.287  -5.775   0.000  0.00  0.00    +0.028 C 
ATOM     21  C   UNL     1      -3.572  -5.362   0.000  0.00  0.00    -0.022 C 
ATOM     22  C   UNL     1      -3.572  -4.537   0.000  0.00  0.00    -0.007 C 
ENDBRANCH  19  21
ENDBRANCH  15  19
ENDBRANCH   1  17
TORSDOF 4
