REMARK  Name = 
REMARK  5 active torsions:
REMARK  status: ('A' for Active; 'I' for Inactive)
REMARK    1  A    between atoms: C_2  and  N_3
REMARK    2  A    between atoms: C_2  and  C_13
REMARK    3  A    between atoms: N_3  and  C_4
REMARK    4  A    between atoms: C_4  and  C_5
REMARK    5  A    between atoms: C_13  and  N_15
REMARK                            x       y       z     vdW  Elec       q    Type
REMARK                         _______ _______ _______ _____ _____    ______ ____
ROOT
ATOM      1  N   UNL     1       4.592  -2.952   0.000  0.00  0.00    -0.208 NA
ENDROOT
BRANCH   1   3
ATOM      2  C   UNL     1       5.307  -4.189   0.000  0.00  0.00    +0.021 C 
ATOM      3  C   UNL     1       5.307  -3.364   0.000  0.00  0.00    +0.096 C 
BRANCH   3   4
ATOM      4  C   UNL     1       6.021  -2.952   0.000  0.00  0.00    +0.121 C 
ATOM      5  C   UNL     1       6.021  -2.127   0.000  0.00  0.00    +0.028 C 
BRANCH   4   6
ATOM      6  N   UNL     1       6.736  -3.364   0.000  0.00  0.00    -0.250 N 
ATOM      7  N   UNL     1       6.822  -4.185   0.000  0.00  0.00    -0.168 NA
ATOM      8  C   UNL     1       7.629  -4.356   0.000  0.00  0.00    +0.122 A 
ATOM      9  C   UNL     1       8.041  -3.642   0.000  0.00  0.00    +0.043 A 
ATOM     10  C   UNL     1       7.489  -3.029   0.000  0.00  0.00    +0.097 A 
ENDBRANCH   4   6
ENDBRANCH   3   4
ENDBRANCH   1   3
BRANCH   1  11
ATOM     11  C   UNL     1       3.878  -3.364   0.000  0.00  0.00    +0.174 C 
BRANCH  11  12
ATOM     12  C   UNL     1       3.163  -2.952   0.000  0.00  0.00    +0.250 C 
ATOM     13  N   UNL     1       2.449  -3.364   0.000  0.00  0.00    -0.210 N 
ATOM     14  C   UNL     1       1.695  -3.029   0.000  0.00  0.00    +0.329 C 
ATOM     15  O   UNL     1       1.524  -2.222   0.000  0.00  0.00    -0.250 OA
ATOM     16  N   UNL     1       1.143  -3.642   0.000  0.00  0.00    -0.186 NA
ATOM     17  C   UNL     1       1.556  -4.356   0.000  0.00  0.00    +0.139 C 
ATOM     18  C   UNL     1       2.363  -4.185   0.000  0.00  0.00    +0.126 C 
ATOM     19  O   UNL     1       3.163  -2.127   0.000  0.00  0.00    -0.273 OA
ENDBRANCH  11  12
ENDBRANCH   1  11
TORSDOF 5
