REMARK  Name = 
REMARK  7 active torsions:
REMARK  status: ('A' for Active; 'I' for Inactive)
REMARK    1  A    between atoms: C_4  and  C_5
REMARK    2  A    between atoms: N_7  and  C_8
REMARK    3  A    between atoms: C_8  and  C_9
REMARK    4  A    between atoms: C_9  and  C_10
REMARK    5  A    between atoms: N_12  and  C_13
REMARK    6  A    between atoms: C_13  and  C_14
REMARK    7  A    between atoms: C_14  and  C_15
REMARK                            x       y       z     vdW  Elec       q    Type
REMARK                         _______ _______ _______ _____ _____    ______ ____
ROOT
ATOM      1  C   UNL     1       5.001  -5.362   0.000  0.00  0.00    +0.243 C 
ATOM      2  N   UNL     1       5.716  -4.950   0.000  0.00  0.00    -0.205 NA
ATOM      3  O   UNL     1       5.001  -6.188   0.000  0.00  0.00    -0.273 OA
ENDROOT
BRANCH   1   4
ATOM      4  C   UNL     1       4.287  -4.950   0.000  0.00  0.00    +0.110 C 
BRANCH   4   5
ATOM      5  C   UNL     1       3.572  -5.362   0.000  0.00  0.00    +0.125 C 
BRANCH   5   7
ATOM      6  C   UNL     1       2.143  -5.362   0.000  0.00  0.00    +0.241 C 
ATOM      7  N   UNL     1       2.858  -4.950   0.000  0.00  0.00    -0.205 NA
ATOM      8  O   UNL     1       2.143  -6.188   0.000  0.00  0.00    -0.273 OA
BRANCH   6  11
ATOM      9  C   UNL     1      -0.111  -5.362   0.000  0.00  0.00    +0.001 C 
ATOM     10  C   UNL     1       0.604  -4.950   0.000  0.00  0.00    +0.009 C 
ATOM     11  C   UNL     1       1.429  -4.950   0.000  0.00  0.00    +0.078 C 
ATOM     12  C   UNL     1       1.016  -4.236   0.000  0.00  0.00    +0.010 C 
ENDBRANCH   6  11
ENDBRANCH   5   7
ENDBRANCH   4   5
ENDBRANCH   1   4
BRANCH   2  13
ATOM     13  C   UNL     1       6.430  -5.362   0.000  0.00  0.00    +0.121 C 
BRANCH  13  14
ATOM     14  C   UNL     1       7.145  -4.950   0.000  0.00  0.00    +0.069 C 
BRANCH  14  15
ATOM     15  C   UNL     1       7.859  -5.362   0.000  0.00  0.00    +0.061 A 
ATOM     16  N   UNL     1       7.859  -6.188   0.000  0.00  0.00    -0.248 NA
ATOM     17  C   UNL     1       8.574  -6.600   0.000  0.00  0.00    +0.098 A 
ATOM     18  C   UNL     1       9.288  -6.188   0.000  0.00  0.00    +0.021 A 
ATOM     19  C   UNL     1       9.288  -5.362   0.000  0.00  0.00    +0.003 A 
ATOM     20  C   UNL     1       8.574  -4.950   0.000  0.00  0.00    +0.015 A 
ENDBRANCH  14  15
ENDBRANCH  13  14
ENDBRANCH   2  13
TORSDOF 7
