REMARK  Name = 
REMARK  3 active torsions:
REMARK  status: ('A' for Active; 'I' for Inactive)
REMARK    1  A    between atoms: N_9  and  C_10
REMARK    2  A    between atoms: C_10  and  C_11
REMARK    3  A    between atoms: C_11  and  N_12
REMARK                            x       y       z     vdW  Elec       q    Type
REMARK                         _______ _______ _______ _____ _____    ______ ____
ROOT
ATOM      1  C   UNL     1       1.220  -5.110   0.000  0.00  0.00    +0.061 C 
ATOM      2  C   UNL     1       1.556  -4.356   0.000  0.00  0.00    +0.113 A 
ATOM      3  S   UNL     1       2.363  -4.185   0.000  0.00  0.00    -0.033 S 
ATOM      4  C   UNL     1       2.449  -3.364   0.000  0.00  0.00    +0.209 A 
ATOM      5  N   UNL     1       3.163  -2.952   0.000  0.00  0.00    -0.134 NA
ATOM      6  C   UNL     1       3.878  -3.364   0.000  0.00  0.00    +0.345 C 
ATOM      7  N   UNL     1       4.592  -2.952   0.000  0.00  0.00    -0.185 NA
ATOM      8  O   UNL     1       3.878  -4.189   0.000  0.00  0.00    -0.249 OA
ATOM      9  N   UNL     1       1.695  -3.029   0.000  0.00  0.00    -0.124 NA
ATOM     10  N   UNL     1       1.143  -3.642   0.000  0.00  0.00    -0.144 NA
ENDROOT
BRANCH   7  11
ATOM     11  C   UNL     1       5.307  -3.364   0.000  0.00  0.00    +0.134 C 
BRANCH  11  12
ATOM     12  C   UNL     1       6.021  -2.952   0.000  0.00  0.00    +0.096 C 
BRANCH  12  13
ATOM     13  N   UNL     1       6.736  -3.364   0.000  0.00  0.00    -0.271 NA
ATOM     14  C   UNL     1       6.822  -4.185   0.000  0.00  0.00    +0.072 C 
ATOM     15  C   UNL     1       7.629  -4.356   0.000  0.00  0.00    +0.019 C 
ATOM     16  C   UNL     1       8.041  -3.642   0.000  0.00  0.00    +0.019 C 
ATOM     17  C   UNL     1       7.489  -3.029   0.000  0.00  0.00    +0.072 C 
ENDBRANCH  12  13
ENDBRANCH  11  12
ENDBRANCH   7  11
TORSDOF 3
