REMARK  Name = 
REMARK  2 active torsions:
REMARK  status: ('A' for Active; 'I' for Inactive)
REMARK    1  A    between atoms: C_4  and  N_5
REMARK    2  A    between atoms: N_8  and  C_9
REMARK                            x       y       z     vdW  Elec       q    Type
REMARK                         _______ _______ _______ _____ _____    ______ ____
ROOT
ATOM      1  N   UNL     1       1.429  -3.776   0.000  0.00  0.00    -0.189 NA
ATOM      2  C   UNL     1       0.715  -3.364   0.000  0.00  0.00    +0.343 C 
ATOM      3  N   UNL     1       0.000  -3.776   0.000  0.00  0.00    -0.160 NA
ATOM      4  O   UNL     1       0.715  -2.539   0.000  0.00  0.00    -0.249 OA
ENDROOT
BRANCH   3   5
ATOM      5  C   UNL     1      -0.715  -3.364   0.000  0.00  0.00    +0.088 A 
ATOM      6  C   UNL     1      -0.715  -2.539   0.000  0.00  0.00    +0.087 A 
ATOM      7 CL   UNL     1       0.000  -2.126   0.000  0.00  0.00    -0.080 Cl
ATOM      8  C   UNL     1      -1.429  -2.126   0.000  0.00  0.00    +0.071 A 
ATOM      9  C   UNL     1      -1.429  -1.301   0.000  0.00  0.00    +0.053 C 
ATOM     10  N   UNL     1      -2.143  -2.539   0.000  0.00  0.00    -0.247 NA
ATOM     11  C   UNL     1      -2.143  -3.364   0.000  0.00  0.00    +0.100 A 
ATOM     12  C   UNL     1      -1.429  -3.776   0.000  0.00  0.00    +0.038 A 
ENDBRANCH   3   5
BRANCH   1  15
ATOM     13  C   UNL     1       2.556  -1.824   0.000  0.00  0.00    +0.002 C 
ATOM     14  C   UNL     1       2.556  -2.649   0.000  0.00  0.00    +0.022 C 
ATOM     15  C   UNL     1       2.143  -3.364   0.000  0.00  0.00    +0.097 C 
ATOM     16  C   UNL     1       2.968  -3.364   0.000  0.00  0.00    +0.023 C 
ENDBRANCH   1  15
TORSDOF 2
