REMARK  Name = 
REMARK  5 active torsions:
REMARK  status: ('A' for Active; 'I' for Inactive)
REMARK    1  A    between atoms: N_2  and  C_8
REMARK    2  A    between atoms: C_4  and  N_5
REMARK    3  A    between atoms: C_10  and  C_13
REMARK    4  A    between atoms: C_14  and  C_23
REMARK    5  A    between atoms: C_14  and  C_24
REMARK                            x       y       z     vdW  Elec       q    Type
REMARK                         _______ _______ _______ _____ _____    ______ ____
ROOT
ATOM      1  C   UNL     1       2.567   0.826   0.000  0.00  0.00    +0.149 A 
ATOM      2  N   UNL     1       1.782   1.085   0.000  0.00  0.00    -0.219 NA
ATOM      3  C   UNL     1       1.294   0.413   0.000  0.00  0.00    +0.180 A 
ATOM      4  N   UNL     1       1.782  -0.255   0.000  0.00  0.00    -0.296 N 
ATOM      5  C   UNL     1       3.280   1.240   0.000  0.00  0.00    +0.154 A 
ATOM      6  N   UNL     1       3.998   0.826   0.000  0.00  0.00    -0.207 NA
ATOM      7  C   UNL     1       3.998   0.000   0.000  0.00  0.00    +0.201 A 
ATOM      8  N   UNL     1       3.280  -0.413   0.000  0.00  0.00    -0.205 NA
ATOM      9  C   UNL     1       2.567   0.000   0.000  0.00  0.00    +0.167 A 
ENDROOT
BRANCH   5  10
ATOM     10  N   UNL     1       3.280   2.066   0.000  0.00  0.00    -0.293 N 
ATOM     11  C   UNL     1       2.567   2.479   0.000  0.00  0.00    +0.074 C 
ATOM     12  C   UNL     1       1.853   2.066   0.000  0.00  0.00    +0.021 C 
ATOM     13  C   UNL     1       2.567   3.305   0.000  0.00  0.00    +0.020 C 
ATOM     14  C   UNL     1       3.280   3.719   0.000  0.00  0.00    +0.013 C 
ATOM     15  C   UNL     1       3.998   3.305   0.000  0.00  0.00    +0.100 C 
ATOM     16  C   UNL     1       3.998   2.479   0.000  0.00  0.00    +0.101 C 
BRANCH  15  17
ATOM     17  C   UNL     1       4.712   3.719   0.000  0.00  0.00    +0.262 C 
ATOM     18  N   UNL     1       5.430   3.305   0.000  0.00  0.00    -0.088 NA
ATOM     19  O   UNL     1       4.712   4.541   0.000  0.00  0.00    -0.272 OA
ENDBRANCH  15  17
ENDBRANCH   5  10
BRANCH   4  20
ATOM     20  C   UNL     1       1.523  -1.039   0.000  0.00  0.00    +0.089 C 
ATOM     21  C   UNL     1       1.899  -1.774   0.000  0.00  0.00    +0.028 C 
ATOM     22  C   UNL     1       1.164  -2.149   0.000  0.00  0.00    +0.065 C 
ATOM     23  C   UNL     1       0.789  -1.415   0.000  0.00  0.00    +0.028 C 
BRANCH  22  24
ATOM     24  C   UNL     1       0.430  -2.525   0.000  0.00  0.00    +0.185 C 
ATOM     25  O   UNL     1      -0.267  -2.074   0.000  0.00  0.00    -0.220 OA
ENDBRANCH  22  24
BRANCH  22  26
ATOM     26  C   UNL     1       1.540  -2.888   0.000  0.00  0.00    +0.185 C 
ATOM     27  O   UNL     1       2.366  -2.930   0.000  0.00  0.00    -0.220 OA
ENDBRANCH  22  26
ENDBRANCH   4  20
TORSDOF 5
