REMARK  Name = 
REMARK  6 active torsions:
REMARK  status: ('A' for Active; 'I' for Inactive)
REMARK    1  A    between atoms: N_2  and  C_11
REMARK    2  A    between atoms: C_5  and  N_6
REMARK    3  A    between atoms: C_10  and  C_11
REMARK    4  A    between atoms: C_10  and  C_24
REMARK    5  A    between atoms: C_12  and  C_13
REMARK    6  A    between atoms: C_13  and  C_15
REMARK                            x       y       z     vdW  Elec       q    Type
REMARK                         _______ _______ _______ _____ _____    ______ ____
ROOT
ATOM      1  C   UNL     1       2.562   0.825   0.000  0.00  0.00    +0.149 A 
ATOM      2  C   UNL     1       3.275   1.238   0.000  0.00  0.00    +0.154 A 
ATOM      3  N   UNL     1       3.992   0.825   0.000  0.00  0.00    -0.207 NA
ATOM      4  C   UNL     1       3.992   0.000   0.000  0.00  0.00    +0.201 A 
ATOM      5  N   UNL     1       3.275  -0.412   0.000  0.00  0.00    -0.205 NA
ATOM      6  N   UNL     1       1.779   1.083   0.000  0.00  0.00    -0.219 NA
ATOM      7  C   UNL     1       1.292   0.412   0.000  0.00  0.00    +0.180 A 
ATOM      8  N   UNL     1       1.779  -0.254   0.000  0.00  0.00    -0.294 N 
ATOM      9  C   UNL     1       2.562   0.000   0.000  0.00  0.00    +0.167 A 
ENDROOT
BRANCH   2  10
ATOM     10  N   UNL     1       3.275   2.062   0.000  0.00  0.00    -0.289 N 
ATOM     11  C   UNL     1       3.992   2.475   0.000  0.00  0.00    +0.092 C 
ATOM     12  C   UNL     1       3.992   3.300   0.000  0.00  0.00    +0.024 C 
ATOM     13  C   UNL     1       3.275   3.712   0.000  0.00  0.00    +0.034 C 
ATOM     14  C   UNL     1       2.562   3.300   0.000  0.00  0.00    +0.153 C 
ATOM     15  O   UNL     1       1.750   3.158   0.000  0.00  0.00    -0.223 OA
ATOM     16  C   UNL     1       2.562   2.475   0.000  0.00  0.00    +0.123 C 
BRANCH  14  17
ATOM     17  C   UNL     1       2.279   4.075   0.000  0.00  0.00    +0.119 C 
BRANCH  17  18
ATOM     18  C   UNL     1       1.467   4.217   0.000  0.00  0.00    +0.244 C 
ATOM     19  N   UNL     1       1.188   4.992   0.000  0.00  0.00    -0.203 NA
ATOM     20  C   UNL     1       0.375   5.133   0.000  0.00  0.00    +0.138 C 
ATOM     21  O   UNL     1       0.938   3.587   0.000  0.00  0.00    -0.273 OA
ENDBRANCH  17  18
ENDBRANCH  14  17
ENDBRANCH   2  10
BRANCH   8  22
ATOM     22  C   UNL     1       1.521  -1.038   0.000  0.00  0.00    +0.116 C 
BRANCH  22  23
ATOM     23  C   UNL     1       2.075  -1.650   0.000  0.00  0.00    +0.106 C 
ATOM     24  C   UNL     1       2.688  -1.100   0.000  0.00  0.00    +0.149 C 
ATOM     25  O   UNL     1       3.242  -1.712   0.000  0.00  0.00    -0.353 OA
ATOM     26  C   UNL     1       2.625  -2.263   0.000  0.00  0.00    +0.149 C 
BRANCH  23  27
ATOM     27  C   UNL     1       1.462  -2.204   0.000  0.00  0.00    +0.189 C 
ATOM     28  O   UNL     1       1.633  -3.008   0.000  0.00  0.00    -0.220 OA
ENDBRANCH  23  27
ENDBRANCH  22  23
ENDBRANCH   8  22
TORSDOF 6
