REMARK  Name = 
REMARK  4 active torsions:
REMARK  status: ('A' for Active; 'I' for Inactive)
REMARK    1  A    between atoms: C_2  and  C_4
REMARK    2  A    between atoms: C_6  and  C_7
REMARK    3  A    between atoms: C_7  and  C_8
REMARK    4  A    between atoms: C_8  and  N_9
REMARK                            x       y       z     vdW  Elec       q    Type
REMARK                         _______ _______ _______ _____ _____    ______ ____
ROOT
ATOM      1  C   UNL     1       1.429  -2.475   0.000  0.00  0.00    +0.123 C 
ENDROOT
BRANCH   1   2
ATOM      2  N   UNL     1       2.143  -2.888   0.000  0.00  0.00    -0.188 NA
ATOM      3  C   UNL     1       2.858  -2.475   0.000  0.00  0.00    +0.323 C 
ATOM      4  N   UNL     1       3.572  -2.888   0.000  0.00  0.00    -0.261 N 
ATOM      5  C   UNL     1       3.572  -3.712   0.000  0.00  0.00    +0.107 C 
ATOM      6  C   UNL     1       4.287  -4.125   0.000  0.00  0.00    +0.079 C 
ATOM      7  S   UNL     1       5.001  -3.712   0.000  0.00  0.00    -0.137 S 
ATOM      8  C   UNL     1       5.001  -2.888   0.000  0.00  0.00    +0.079 C 
ATOM      9  C   UNL     1       4.287  -2.475   0.000  0.00  0.00    +0.107 C 
ATOM     10  O   UNL     1       2.858  -1.650   0.000  0.00  0.00    -0.251 OA
ENDBRANCH   1   2
BRANCH   1  11
ATOM     11  C   UNL     1       0.715  -2.888   0.000  0.00  0.00    +0.070 C 
BRANCH  11  15
ATOM     12  C   UNL     1      -0.893  -1.483   0.000  0.00  0.00    +0.087 A 
ATOM     13  S   UNL     1      -1.306  -2.197   0.000  0.00  0.00    -0.071 S 
ATOM     14  C   UNL     1      -0.754  -2.811   0.000  0.00  0.00    +0.051 A 
ATOM     15  C   UNL     1       0.000  -2.475   0.000  0.00  0.00    +0.067 A 
ATOM     16  N   UNL     1      -0.086  -1.655   0.000  0.00  0.00    -0.247 NA
BRANCH  12  18
ATOM     17  C   UNL     1      -2.049  -0.643   0.000  0.00  0.00    +0.007 C 
ATOM     18  C   UNL     1      -1.229  -0.729   0.000  0.00  0.00    +0.047 C 
ATOM     19  C   UNL     1      -0.744  -0.062   0.000  0.00  0.00    +0.007 C 
ENDBRANCH  12  18
ENDBRANCH  11  15
ENDBRANCH   1  11
TORSDOF 4
