REMARK  Name = 
REMARK  5 active torsions:
REMARK  status: ('A' for Active; 'I' for Inactive)
REMARK    1  A    between atoms: C_2  and  N_3
REMARK    2  A    between atoms: N_6  and  C_7
REMARK    3  A    between atoms: C_7  and  C_8
REMARK    4  A    between atoms: C_8  and  C_10
REMARK    5  A    between atoms: C_10  and  N_11
REMARK                            x       y       z     vdW  Elec       q    Type
REMARK                         _______ _______ _______ _____ _____    ______ ____
ROOT
ATOM      1  N   UNL     1       1.139  -1.365   0.000  0.00  0.00    -0.280 N 
ATOM      2  C   UNL     1       1.923  -1.110   0.000  0.00  0.00    +0.080 A 
ATOM      3  C   UNL     1       1.923  -0.285   0.000  0.00  0.00    +0.080 A 
ATOM      4  C   UNL     1       2.638   0.127   0.000  0.00  0.00    +0.019 A 
ATOM      5  C   UNL     1       3.352  -0.285   0.000  0.00  0.00    +0.002 A 
ATOM      6  C   UNL     1       3.352  -1.110   0.000  0.00  0.00    +0.002 A 
ATOM      7  N   UNL     1       1.139  -0.030   0.000  0.00  0.00    -0.277 N 
ATOM      8  C   UNL     1       2.638  -1.523   0.000  0.00  0.00    +0.019 A 
ATOM      9  C   UNL     1       0.654  -0.698   0.000  0.00  0.00    +0.332 A 
ATOM     10  O   UNL     1      -0.171  -0.698   0.000  0.00  0.00    -0.246 OA
ENDROOT
BRANCH   1  12
ATOM     11  C   UNL     1       1.436  -2.763   0.000  0.00  0.00    +0.027 C 
ATOM     12  C   UNL     1       0.884  -2.150   0.000  0.00  0.00    +0.111 C 
ENDBRANCH   1  12
BRANCH   7  13
ATOM     13  C   UNL     1       0.884   0.754   0.000  0.00  0.00    +0.145 C 
BRANCH  13  14
ATOM     14  C   UNL     1       1.436   1.367   0.000  0.00  0.00    +0.190 C 
ATOM     15  O   UNL     1       2.243   1.196   0.000  0.00  0.00    -0.220 OA
BRANCH  14  16
ATOM     16  C   UNL     1       1.181   2.152   0.000  0.00  0.00    +0.108 C 
BRANCH  16  17
ATOM     17  N   UNL     1       1.733   2.765   0.000  0.00  0.00    -0.266 NA
ATOM     18  C   UNL     1       2.540   2.593   0.000  0.00  0.00    +0.105 C 
ATOM     19  C   UNL     1       3.092   3.207   0.000  0.00  0.00    +0.159 C 
ATOM     20  O   UNL     1       2.837   3.991   0.000  0.00  0.00    -0.351 OA
ATOM     21  C   UNL     1       2.030   4.163   0.000  0.00  0.00    +0.159 C 
ATOM     22  C   UNL     1       1.478   3.550   0.000  0.00  0.00    +0.105 C 
ENDBRANCH  16  17
ENDBRANCH  14  16
ENDBRANCH  13  14
ENDBRANCH   7  13
TORSDOF 5
