REMARK  Name = 
REMARK  4 active torsions:
REMARK  status: ('A' for Active; 'I' for Inactive)
REMARK    1  A    between atoms: C_2  and  C_3
REMARK    2  A    between atoms: C_5  and  C_6
REMARK    3  A    between atoms: C_6  and  C_7
REMARK    4  A    between atoms: C_7  and  N_8
REMARK                            x       y       z     vdW  Elec       q    Type
REMARK                         _______ _______ _______ _____ _____    ______ ____
ROOT
ATOM      1  C   UNL     1      -2.136   0.562   0.000  0.00  0.00    +0.076 C 
ENDROOT
BRANCH   1   6
ATOM      2  C   UNL     1      -3.743   1.966   0.000  0.00  0.00    +0.061 A 
ATOM      3  C   UNL     1      -4.156   1.252   0.000  0.00  0.00    +0.022 A 
ATOM      4  C   UNL     1      -4.976   1.166   0.000  0.00  0.00    +0.039 C 
ATOM      5  S   UNL     1      -3.604   0.639   0.000  0.00  0.00    -0.075 S 
ATOM      6  C   UNL     1      -2.850   0.974   0.000  0.00  0.00    +0.089 A 
ATOM      7  N   UNL     1      -2.936   1.795   0.000  0.00  0.00    -0.247 NA
BRANCH   2   9
ATOM      8  C   UNL     1      -4.899   2.806   0.000  0.00  0.00    +0.007 C 
ATOM      9  C   UNL     1      -4.079   2.720   0.000  0.00  0.00    +0.046 C 
ENDBRANCH   2   9
ENDBRANCH   1   6
BRANCH   1  10
ATOM     10  C   UNL     1      -1.421   0.974   0.000  0.00  0.00    +0.124 C 
BRANCH  10  11
ATOM     11  N   UNL     1      -0.707   0.562   0.000  0.00  0.00    -0.188 NA
ATOM     12  C   UNL     1       0.008   0.974   0.000  0.00  0.00    +0.323 C 
ATOM     13  N   UNL     1       0.722   0.562   0.000  0.00  0.00    -0.263 N 
ATOM     14  C   UNL     1       0.936  -0.235   0.000  0.00  0.00    +0.097 C 
ATOM     15  C   UNL     1       1.733  -0.021   0.000  0.00  0.00    +0.043 C 
ATOM     16  C   UNL     1       1.519   0.775   0.000  0.00  0.00    +0.097 C 
ATOM     17  O   UNL     1       0.008   1.799   0.000  0.00  0.00    -0.251 OA
ENDBRANCH  10  11
ENDBRANCH   1  10
TORSDOF 4
