REMARK  Name = 
REMARK  4 active torsions:
REMARK  status: ('A' for Active; 'I' for Inactive)
REMARK    1  A    between atoms: O_2  and  C_3
REMARK    2  A    between atoms: C_7  and  C_9
REMARK    3  A    between atoms: C_9  and  C_11
REMARK    4  A    between atoms: C_11  and  N_12
REMARK                            x       y       z     vdW  Elec       q    Type
REMARK                         _______ _______ _______ _____ _____    ______ ____
ROOT
ATOM      1  C   UNL     1       0.884  -2.150   0.000  0.00  0.00    +0.165 C 
ENDROOT
BRANCH   1   2
ATOM      2  N   UNL     1       1.139  -1.365   0.000  0.00  0.00    -0.243 N 
ATOM      3  C   UNL     1       1.923  -1.110   0.000  0.00  0.00    +0.138 A 
ATOM      4  C   UNL     1       1.923  -0.285   0.000  0.00  0.00    +0.064 A 
ATOM      5  C   UNL     1       2.638   0.127   0.000  0.00  0.00    +0.123 A 
ATOM      6  N   UNL     1       3.352  -0.285   0.000  0.00  0.00    -0.165 NA
ATOM      7  N   UNL     1       3.352  -1.110   0.000  0.00  0.00    -0.213 N 
ATOM      8  C   UNL     1       4.067  -1.523   0.000  0.00  0.00    +0.157 C 
ATOM      9  C   UNL     1       1.139  -0.030   0.000  0.00  0.00    +0.123 A 
ATOM     10  C   UNL     1       2.638  -1.523   0.000  0.00  0.00    +0.294 A 
ATOM     11  O   UNL     1       2.638  -2.348   0.000  0.00  0.00    -0.264 OA
ATOM     12  N   UNL     1       0.654  -0.698   0.000  0.00  0.00    -0.167 NA
ENDBRANCH   1   2
BRANCH   1  13
ATOM     13  C   UNL     1       0.077  -2.321   0.000  0.00  0.00    +0.199 C 
ATOM     14  O   UNL     1      -0.475  -1.708   0.000  0.00  0.00    -0.216 OA
BRANCH  13  17
ATOM     15  C   UNL     1       0.119  -4.504   0.000  0.00  0.00    +0.138 A 
ATOM     16  C   UNL     1       0.374  -3.719   0.000  0.00  0.00    +0.035 A 
ATOM     17  C   UNL     1      -0.178  -3.106   0.000  0.00  0.00    +0.013 A 
ATOM     18  C   UNL     1      -0.985  -3.278   0.000  0.00  0.00    -0.002 A 
ATOM     19  C   UNL     1      -1.240  -4.062   0.000  0.00  0.00    +0.003 A 
ATOM     20  C   UNL     1      -0.688  -4.675   0.000  0.00  0.00    +0.037 A 
BRANCH  15  22
ATOM     21  C   UNL     1       0.416  -5.902   0.000  0.00  0.00    +0.252 C 
ATOM     22  O   UNL     1       0.671  -5.117   0.000  0.00  0.00    -0.471 OA
ENDBRANCH  15  22
ENDBRANCH  13  17
ENDBRANCH   1  13
TORSDOF 4
