REMARK  Name = 
REMARK  6 active torsions:
REMARK  status: ('A' for Active; 'I' for Inactive)
REMARK    1  A    between atoms: C_7  and  O_8
REMARK    2  A    between atoms: O_8  and  C_9
REMARK    3  A    between atoms: C_9  and  C_10
REMARK    4  A    between atoms: C_10  and  N_11
REMARK    5  A    between atoms: C_12  and  C_14
REMARK    6  A    between atoms: C_14  and  C_15
REMARK                            x       y       z     vdW  Elec       q    Type
REMARK                         _______ _______ _______ _____ _____    ______ ____
ROOT
ATOM      1  N   UNL     1       4.287   0.000   0.000  0.00  0.00    -0.202 NA
ATOM      2  C   UNL     1       5.001  -0.412   0.000  0.00  0.00    +0.246 C 
ATOM      3  O   UNL     1       5.001  -1.238   0.000  0.00  0.00    -0.273 OA
ENDROOT
BRANCH   2   4
ATOM      4  C   UNL     1       5.716   0.000   0.000  0.00  0.00    +0.117 C 
BRANCH   4   5
ATOM      5  C   UNL     1       6.430  -0.412   0.000  0.00  0.00    +0.037 A 
ATOM      6  C   UNL     1       6.516  -1.233   0.000  0.00  0.00    +0.151 A 
ATOM      7  C   UNL     1       5.903  -1.785   0.000  0.00  0.00    +0.075 C 
ATOM      8  O   UNL     1       7.323  -1.405   0.000  0.00  0.00    -0.358 OA
ATOM      9  N   UNL     1       7.736  -0.690   0.000  0.00  0.00    -0.082 NA
ATOM     10  C   UNL     1       7.184  -0.077   0.000  0.00  0.00    +0.097 A 
ATOM     11  C   UNL     1       7.355   0.730   0.000  0.00  0.00    +0.055 C 
ENDBRANCH   4   5
ENDBRANCH   2   4
BRANCH   1  12
ATOM     12  C   UNL     1       3.572  -0.412   0.000  0.00  0.00    +0.147 C 
BRANCH  12  13
ATOM     13  C   UNL     1       2.858   0.000   0.000  0.00  0.00    +0.165 C 
BRANCH  13  14
ATOM     14  O   UNL     1       2.143  -0.412   0.000  0.00  0.00    -0.354 OA
BRANCH  14  17
ATOM     15  C   UNL     1       0.715  -1.238   0.000  0.00  0.00    +0.002 C 
ATOM     16  C   UNL     1       0.715  -0.412   0.000  0.00  0.00    +0.027 C 
ATOM     17  C   UNL     1       1.429   0.000   0.000  0.00  0.00    +0.115 C 
ATOM     18  C   UNL     1       1.429   0.825   0.000  0.00  0.00    +0.030 C 
ATOM     19  C   UNL     1       0.715   1.238   0.000  0.00  0.00    +0.002 C 
ATOM     20  C   UNL     1       0.000   0.825   0.000  0.00  0.00    +0.000 C 
ATOM     21  C   UNL     1       0.000   0.000   0.000  0.00  0.00    +0.002 C 
ENDBRANCH  14  17
ENDBRANCH  13  14
ENDBRANCH  12  13
ENDBRANCH   1  12
TORSDOF 6
