REMARK  Name = 
REMARK  5 active torsions:
REMARK  status: ('A' for Active; 'I' for Inactive)
REMARK    1  A    between atoms: N_2  and  C_9
REMARK    2  A    between atoms: C_8  and  C_9
REMARK    3  A    between atoms: C_12  and  C_20
REMARK    4  A    between atoms: C_16  and  O_22
REMARK    5  A    between atoms: C_20  and  O_22
REMARK                            x       y       z     vdW  Elec       q    Type
REMARK                         _______ _______ _______ _____ _____    ______ ____
ROOT
ATOM      1  C   UNL     1       1.921  -0.283   0.000  0.00  0.00    +0.149 A 
ATOM      2  C   UNL     1       2.638   0.129   0.000  0.00  0.00    +0.154 A 
ATOM      3  N   UNL     1       3.350  -0.283   0.000  0.00  0.00    -0.207 NA
ATOM      4  C   UNL     1       3.350  -1.108   0.000  0.00  0.00    +0.201 A 
ATOM      5  N   UNL     1       2.638  -1.521   0.000  0.00  0.00    -0.205 NA
ATOM      6  N   UNL     1       2.638   0.954   0.000  0.00  0.00    -0.287 N 
ATOM      7  C   UNL     1       2.054   1.538   0.000  0.00  0.00    +0.123 C 
ATOM      8  C   UNL     1       2.638   2.121   0.000  0.00  0.00    +0.155 C 
ATOM      9  C   UNL     1       3.221   1.538   0.000  0.00  0.00    +0.123 C 
ATOM     10  N   UNL     1       1.138  -0.029   0.000  0.00  0.00    -0.219 NA
ATOM     11  C   UNL     1       0.650  -0.696   0.000  0.00  0.00    +0.180 A 
ATOM     12  N   UNL     1       1.138  -1.363   0.000  0.00  0.00    -0.292 N 
ATOM     13  C   UNL     1       1.921  -1.108   0.000  0.00  0.00    +0.167 A 
ENDROOT
BRANCH   8  14
ATOM     14  O   UNL     1       2.638   2.946   0.000  0.00  0.00    -0.343 OA
BRANCH  14  15
ATOM     15  C   UNL     1       3.350   3.359   0.000  0.00  0.00    +0.227 C 
BRANCH  15  16
ATOM     16  C   UNL     1       3.350   4.180   0.000  0.00  0.00    +0.256 C 
ATOM     17  O   UNL     1       2.638   4.592   0.000  0.00  0.00    -0.272 OA
ATOM     18  N   UNL     1       4.067   4.592   0.000  0.00  0.00    -0.274 N 
ATOM     19  C   UNL     1       4.780   4.180   0.000  0.00  0.00    +0.115 C 
ATOM     20  C   UNL     1       4.067   5.417   0.000  0.00  0.00    +0.115 C 
ENDBRANCH  15  16
ENDBRANCH  14  15
ENDBRANCH   8  14
BRANCH  12  21
ATOM     21  C   UNL     1       0.883  -2.150   0.000  0.00  0.00    +0.142 C 
BRANCH  21  22
ATOM     22  C   UNL     1       0.075  -2.321   0.000  0.00  0.00    +0.174 C 
ATOM     23  O   UNL     1       0.346  -1.542   0.000  0.00  0.00    -0.221 OA
ATOM     24  C   UNL     1      -0.729  -2.138   0.000  0.00  0.00    +0.067 C 
ATOM     25  C   UNL     1      -1.150  -2.850   0.000  0.00  0.00    +0.145 C 
ATOM     26  O   UNL     1      -0.604  -3.467   0.000  0.00  0.00    -0.354 OA
ATOM     27  C   UNL     1       0.154  -3.142   0.000  0.00  0.00    +0.145 C 
ATOM     28  C   UNL     1       0.863  -3.563   0.000  0.00  0.00    +0.035 C 
ENDBRANCH  21  22
ENDBRANCH  12  21
TORSDOF 5
