REMARK  Name = 
REMARK  11 active torsions:
REMARK  status: ('A' for Active; 'I' for Inactive)
REMARK    1  A    between atoms: N_2  and  C_9
REMARK    2  A    between atoms: C_5  and  N_11
REMARK    3  A    between atoms: C_9  and  C_12
REMARK    4  A    between atoms: N_11  and  C_15
REMARK    5  A    between atoms: N_11  and  C_20
REMARK    6  A    between atoms: C_12  and  C_17
REMARK    7  A    between atoms: C_12  and  C_21
REMARK    8  A    between atoms: C_13  and  C_18
REMARK    9  A    between atoms: C_15  and  C_19
REMARK   10  A    between atoms: C_18  and  C_20
REMARK   11  A    between atoms: C_19  and  C_25
REMARK                            x       y       z     vdW  Elec       q    Type
REMARK                         _______ _______ _______ _____ _____    ______ ____
ROOT
ATOM      1  C   UNL     1       2.255  -0.859   0.000  0.00  0.00    +0.149 A 
ATOM      2  C   UNL     1       1.446  -1.013   0.000  0.00  0.00    +0.154 A 
ATOM      3  N   UNL     1       0.904  -0.392   0.000  0.00  0.00    -0.207 NA
ATOM      4  C   UNL     1       1.175   0.388   0.000  0.00  0.00    +0.201 A 
ATOM      5  N   UNL     1       1.984   0.546   0.000  0.00  0.00    -0.205 NA
ATOM      6  N   UNL     1       2.913  -1.359   0.000  0.00  0.00    -0.219 NA
ATOM      7  C   UNL     1       3.588  -0.883   0.000  0.00  0.00    +0.180 A 
ATOM      8  N   UNL     1       3.351  -0.096   0.000  0.00  0.00    -0.294 N 
ATOM      9  C   UNL     1       2.526  -0.079   0.000  0.00  0.00    +0.167 A 
ENDROOT
BRANCH   2  10
ATOM     10  N   UNL     1       1.175  -1.796   0.000  0.00  0.00    -0.291 N 
BRANCH  10  11
ATOM     11  C   UNL     1       0.363  -1.950   0.000  0.00  0.00    +0.092 C 
BRANCH  11  12
ATOM     12  C   UNL     1       0.092  -2.730   0.000  0.00  0.00    +0.021 C 
BRANCH  12  13
ATOM     13  C   UNL     1      -0.717  -2.888   0.000  0.00  0.00    +0.002 C 
ATOM     14  C   UNL     1      -0.988  -3.667   0.000  0.00  0.00    +0.000 C 
ATOM     15  C   UNL     1      -1.259  -2.263   0.000  0.00  0.00    +0.000 C 
ENDBRANCH  12  13
ENDBRANCH  11  12
ENDBRANCH  10  11
BRANCH  10  16
ATOM     16  C   UNL     1       1.713  -2.417   0.000  0.00  0.00    +0.108 C 
BRANCH  16  17
ATOM     17  C   UNL     1       2.526  -2.263   0.000  0.00  0.00    +0.127 C 
BRANCH  17  18
ATOM     18  C   UNL     1       3.063  -2.888   0.000  0.00  0.00    +0.075 C 
ATOM     19  N   UNL     1       3.605  -3.509   0.000  0.00  0.00    -0.196 NA
ENDBRANCH  17  18
ENDBRANCH  16  17
ENDBRANCH  10  16
ENDBRANCH   2  10
BRANCH   8  20
ATOM     20  C   UNL     1       3.847   0.563   0.000  0.00  0.00    +0.112 C 
BRANCH  20  21
ATOM     21  C   UNL     1       3.526   1.325   0.000  0.00  0.00    +0.058 C 
BRANCH  21  22
ATOM     22  C   UNL     1       4.026   1.980   0.000  0.00  0.00    +0.037 C 
ATOM     23  C   UNL     1       3.784   2.771   0.000  0.00  0.00    +0.035 C 
ATOM     24  C   UNL     1       4.459   3.242   0.000  0.00  0.00    +0.142 C 
ATOM     25  O   UNL     1       5.118   2.746   0.000  0.00  0.00    -0.354 OA
ATOM     26  C   UNL     1       4.851   1.967   0.000  0.00  0.00    +0.142 C 
ENDBRANCH  21  22
BRANCH  21  27
ATOM     27  C   UNL     1       2.709   1.425   0.000  0.00  0.00    +0.184 C 
ATOM     28  O   UNL     1       2.388   2.184   0.000  0.00  0.00    -0.220 OA
ENDBRANCH  21  27
ENDBRANCH  20  21
ENDBRANCH   8  20
TORSDOF 11
