REMARK  Name = 
REMARK  2 active torsions:
REMARK  status: ('A' for Active; 'I' for Inactive)
REMARK    1  A    between atoms: C_4  and  C_6
REMARK    2  A    between atoms: N_8  and  C_11
REMARK                            x       y       z     vdW  Elec       q    Type
REMARK                         _______ _______ _______ _____ _____    ______ ____
ROOT
ATOM      1 CL   UNL     1       0.000   0.000   0.000  0.00  0.00    +0.000 Cl
ENDROOT
TORSDOF 0
REMARK  Name = 
REMARK  2 active torsions:
REMARK  status: ('A' for Active; 'I' for Inactive)
REMARK    1  A    between atoms: C_4  and  C_6
REMARK    2  A    between atoms: N_8  and  C_11
REMARK                            x       y       z     vdW  Elec       q    Type
REMARK                         _______ _______ _______ _____ _____    ______ ____
ROOT
ATOM      1 CL   UNL     1       2.004   0.000   0.000  0.00  0.00    +0.000 Cl
ENDROOT
TORSDOF 0
REMARK  Name = 
REMARK  2 active torsions:
REMARK  status: ('A' for Active; 'I' for Inactive)
REMARK    1  A    between atoms: C_4  and  C_6
REMARK    2  A    between atoms: N_8  and  C_11
REMARK                            x       y       z     vdW  Elec       q    Type
REMARK                         _______ _______ _______ _____ _____    ______ ____
ROOT
ATOM      1  C   UNL     1       0.148  -3.071   0.000  0.00  0.00    +0.131 A 
ATOM      2  N   UNL     1      -0.677  -3.071   0.000  0.00  0.00    -0.131 NA
ATOM      3  N   UNL     1      -0.932  -3.856   0.000  0.00  0.00    -0.064 NA
ATOM      4  N   UNL     1      -0.265  -4.341   0.000  0.00  0.00    -0.230 N 
ATOM      5  C   UNL     1       0.403  -3.856   0.000  0.00  0.00    +0.116 A 
ENDROOT
BRANCH   4   6
ATOM      6  C   UNL     1      -0.265  -5.166   0.000  0.00  0.00    +0.142 C 
ATOM      7  C   UNL     1      -0.848  -5.749   0.000  0.00  0.00    +0.115 C 
ATOM      8  N   UNL     1      -0.265  -6.332   0.000  0.00  0.00    -0.214 NA
ATOM      9  C   UNL     1       0.319  -5.749   0.000  0.00  0.00    +0.115 C 
ENDBRANCH   4   6
BRANCH   1  11
ATOM     10  C   UNL     1       0.297  -1.650   0.000  0.00  0.00    +0.042 C 
ATOM     11  C   UNL     1       0.633  -2.404   0.000  0.00  0.00    +0.195 C 
ATOM     12  O   UNL     1       1.453  -2.490   0.000  0.00  0.00    -0.217 OA
ENDBRANCH   1  11
TORSDOF 2
