REMARK  Name = 
REMARK  3 active torsions:
REMARK  status: ('A' for Active; 'I' for Inactive)
REMARK    1  A    between atoms: N_1  and  C_8
REMARK    2  A    between atoms: C_12  and  C_24
REMARK    3  A    between atoms: C_12  and  C_25
REMARK                            x       y       z     vdW  Elec       q    Type
REMARK                         _______ _______ _______ _____ _____    ______ ____
ROOT
ATOM      1  N   UNL     1      -2.758  -0.146   0.000  0.00  0.00    -0.296 N 
ATOM      2  C   UNL     1      -2.504   0.637   0.000  0.00  0.00    +0.180 A 
ATOM      3  N   UNL     1      -1.679   0.637   0.000  0.00  0.00    -0.219 NA
ATOM      4  C   UNL     1      -1.425  -0.146   0.000  0.00  0.00    +0.149 A 
ATOM      5  C   UNL     1      -0.671  -0.483   0.000  0.00  0.00    +0.154 A 
ATOM      6  N   UNL     1      -0.583  -1.304   0.000  0.00  0.00    -0.207 NA
ATOM      7  C   UNL     1      -1.250  -1.788   0.000  0.00  0.00    +0.201 A 
ATOM      8  N   UNL     1      -2.004  -1.454   0.000  0.00  0.00    -0.205 NA
ATOM      9  N   UNL     1       0.000   0.000   0.000  0.00  0.00    -0.292 N 
ATOM     10  C   UNL     1       0.000   0.825   0.000  0.00  0.00    +0.092 C 
ATOM     11  C   UNL     1       0.783   1.083   0.000  0.00  0.00    +0.025 C 
ATOM     12  C   UNL     1       1.267   0.412   0.000  0.00  0.00    +0.049 C 
ATOM     13  C   UNL     1       1.754   1.083   0.000  0.00  0.00    +0.117 C 
ATOM     14  N   UNL     1       2.538   0.825   0.000  0.00  0.00    -0.205 NA
ATOM     15  C   UNL     1       2.538   0.000   0.000  0.00  0.00    +0.241 C 
ATOM     16  O   UNL     1       3.204  -0.483   0.000  0.00  0.00    -0.273 OA
ATOM     17  C   UNL     1       1.754  -0.254   0.000  0.00  0.00    +0.090 C 
ATOM     18  C   UNL     1       0.783  -0.254   0.000  0.00  0.00    +0.094 C 
ATOM     19  C   UNL     1      -2.092  -0.633   0.000  0.00  0.00    +0.167 A 
ENDROOT
BRANCH   1  20
ATOM     20  C   UNL     1      -3.542  -0.404   0.000  0.00  0.00    +0.089 C 
ATOM     21  C   UNL     1      -4.279  -0.029   0.000  0.00  0.00    +0.028 C 
ATOM     22  C   UNL     1      -4.654  -0.762   0.000  0.00  0.00    +0.065 C 
ATOM     23  C   UNL     1      -3.917  -1.137   0.000  0.00  0.00    +0.028 C 
BRANCH  22  24
ATOM     24  C   UNL     1      -5.025  -1.496   0.000  0.00  0.00    +0.185 C 
ATOM     25  O   UNL     1      -4.579  -2.192   0.000  0.00  0.00    -0.220 OA
ENDBRANCH  22  24
BRANCH  22  26
ATOM     26  C   UNL     1      -5.388  -0.388   0.000  0.00  0.00    +0.185 C 
ATOM     27  O   UNL     1      -5.429   0.438   0.000  0.00  0.00    -0.220 OA
ENDBRANCH  22  26
ENDBRANCH   1  20
TORSDOF 3
