REMARK  Name = 
REMARK  6 active torsions:
REMARK  status: ('A' for Active; 'I' for Inactive)
REMARK    1  A    between atoms: C_2  and  C_4
REMARK    2  A    between atoms: C_4  and  C_5
REMARK    3  A    between atoms: C_4  and  C_13
REMARK    4  A    between atoms: C_5  and  N_6
REMARK    5  A    between atoms: C_7  and  C_9
REMARK    6  A    between atoms: C_9  and  C_10
REMARK                            x       y       z     vdW  Elec       q    Type
REMARK                         _______ _______ _______ _____ _____    ______ ____
ROOT
ATOM      1  C   UNL     1       1.040  -1.040   0.000  0.00  0.00    +0.062 C 
ENDROOT
BRANCH   1   2
ATOM      2  C   UNL     1       0.325  -0.627   0.000  0.00  0.00    +0.059 A 
ATOM      3  N   UNL     1       0.239   0.193   0.000  0.00  0.00    -0.253 N 
ATOM      4  C   UNL     1       0.852   0.746   0.000  0.00  0.00    +0.153 C 
ATOM      5  N   UNL     1      -0.568   0.365   0.000  0.00  0.00    -0.168 NA
ATOM      6  C   UNL     1      -0.981  -0.349   0.000  0.00  0.00    +0.121 A 
ATOM      7  C   UNL     1      -0.429  -0.963   0.000  0.00  0.00    +0.037 A 
ENDBRANCH   1   2
BRANCH   1   9
ATOM      8  C   UNL     1       1.754  -2.277   0.000  0.00  0.00    +0.000 C 
ATOM      9  C   UNL     1       1.040  -1.865   0.000  0.00  0.00    +0.007 C 
ATOM     10  C   UNL     1       0.325  -2.277   0.000  0.00  0.00    +0.000 C 
ENDBRANCH   1   9
BRANCH   1  11
ATOM     11  C   UNL     1       1.754  -0.627   0.000  0.00  0.00    +0.121 C 
BRANCH  11  12
ATOM     12  N   UNL     1       2.469  -1.040   0.000  0.00  0.00    -0.205 NA
ATOM     13  C   UNL     1       3.183  -0.627   0.000  0.00  0.00    +0.241 C 
ATOM     14  O   UNL     1       3.183   0.198   0.000  0.00  0.00    -0.273 OA
BRANCH  13  15
ATOM     15  C   UNL     1       3.897  -1.040   0.000  0.00  0.00    +0.087 C 
BRANCH  15  16
ATOM     16  C   UNL     1       4.612  -0.627   0.000  0.00  0.00    +0.009 C 
ATOM     17  C   UNL     1       5.437  -0.627   0.000  0.00  0.00    +0.001 C 
ATOM     18  C   UNL     1       5.024   0.087   0.000  0.00  0.00    +0.001 C 
ENDBRANCH  15  16
ENDBRANCH  13  15
ENDBRANCH  11  12
ENDBRANCH   1  11
TORSDOF 6
