REMARK  Name = 
REMARK  1 active torsions:
REMARK  status: ('A' for Active; 'I' for Inactive)
REMARK    1  A    between atoms: C_5  and  C_8
REMARK                            x       y       z     vdW  Elec       q    Type
REMARK                         _______ _______ _______ _____ _____    ______ ____
ROOT
ATOM      1 CL   UNL     1       0.000   0.000   0.000  0.00  0.00    +0.000 Cl
ENDROOT
TORSDOF 0
REMARK  Name = 
REMARK  1 active torsions:
REMARK  status: ('A' for Active; 'I' for Inactive)
REMARK    1  A    between atoms: C_5  and  C_8
REMARK                            x       y       z     vdW  Elec       q    Type
REMARK                         _______ _______ _______ _____ _____    ______ ____
ROOT
ATOM      1  C   UNL     1       2.435   2.351   0.000  0.00  0.00    +0.098 C 
ATOM      2  C   UNL     1       2.435   1.526   0.000  0.00  0.00    +0.237 A 
ATOM      3  O   UNL     1       1.768   1.041   0.000  0.00  0.00    -0.337 OA
ATOM      4  N   UNL     1       2.023   0.256   0.000  0.00  0.00    -0.061 NA
ATOM      5  C   UNL     1       2.848   0.256   0.000  0.00  0.00    +0.181 A 
ATOM      6  N   UNL     1       3.103   1.041   0.000  0.00  0.00    -0.195 NA
ENDROOT
BRANCH   5   7
ATOM      7  C   UNL     1       3.333  -0.411   0.000  0.00  0.00    +0.079 C 
ATOM      8  C   UNL     1       2.997  -1.165   0.000  0.00  0.00    +0.096 C 
ATOM      9  N   UNL     1       3.482  -1.832   0.000  0.00  0.00    -0.218 NA
ATOM     10  C   UNL     1       4.303  -1.746   0.000  0.00  0.00    +0.089 C 
ATOM     11  C   UNL     1       4.638  -0.992   0.000  0.00  0.00    +0.019 C 
ATOM     12  C   UNL     1       4.153  -0.325   0.000  0.00  0.00    +0.011 C 
ENDBRANCH   5   7
TORSDOF 1
