REMARK  Name = 
REMARK  5 active torsions:
REMARK  status: ('A' for Active; 'I' for Inactive)
REMARK    1  A    between atoms: C_6  and  C_7
REMARK    2  A    between atoms: C_7  and  C_8
REMARK    3  A    between atoms: C_8  and  N_9
REMARK    4  A    between atoms: C_10  and  C_12
REMARK    5  A    between atoms: C_12  and  C_13
REMARK                            x       y       z     vdW  Elec       q    Type
REMARK                         _______ _______ _______ _____ _____    ______ ____
ROOT
ATOM      1  C   UNL     1       2.809   0.000   0.000  0.00  0.00    +0.121 C 
ENDROOT
BRANCH   1   2
ATOM      2  N   UNL     1       3.523   0.412   0.000  0.00  0.00    -0.205 NA
ATOM      3  C   UNL     1       4.238   0.000   0.000  0.00  0.00    +0.241 C 
ATOM      4  O   UNL     1       4.238  -0.825   0.000  0.00  0.00    -0.273 OA
BRANCH   3   5
ATOM      5  C   UNL     1       4.952   0.412   0.000  0.00  0.00    +0.087 C 
BRANCH   5   6
ATOM      6  C   UNL     1       5.667   0.000   0.000  0.00  0.00    +0.009 C 
ATOM      7  C   UNL     1       6.079  -0.715   0.000  0.00  0.00    +0.001 C 
ATOM      8  C   UNL     1       6.492   0.000   0.000  0.00  0.00    +0.001 C 
ENDBRANCH   5   6
ENDBRANCH   3   5
ENDBRANCH   1   2
BRANCH   1   9
ATOM      9  C   UNL     1       2.095   0.412   0.000  0.00  0.00    +0.069 C 
BRANCH   9  12
ATOM     10  C   UNL     1       1.907  -1.373   0.000  0.00  0.00    +0.132 C 
ATOM     11  N   UNL     1       1.294  -0.821   0.000  0.00  0.00    -0.310 N 
ATOM     12  C   UNL     1       1.380   0.000   0.000  0.00  0.00    +0.059 A 
ATOM     13  C   UNL     1       0.626   0.336   0.000  0.00  0.00    +0.113 A 
ATOM     14  N   UNL     1       0.074  -0.278   0.000  0.00  0.00    -0.223 NA
ATOM     15  C   UNL     1       0.487  -0.992   0.000  0.00  0.00    +0.178 A 
ENDBRANCH   9  12
ENDBRANCH   1   9
TORSDOF 5
