REMARK  Name = 
REMARK  5 active torsions:
REMARK  status: ('A' for Active; 'I' for Inactive)
REMARK    1  A    between atoms: N_4  and  C_5
REMARK    2  A    between atoms: C_5  and  C_6
REMARK    3  A    between atoms: N_15  and  C_16
REMARK    4  A    between atoms: C_16  and  C_17
REMARK    5  A    between atoms: C_17  and  C_20
REMARK                            x       y       z     vdW  Elec       q    Type
REMARK                         _______ _______ _______ _____ _____    ______ ____
ROOT
ATOM      1  C   UNL     1       2.858  -2.475   0.000  0.00  0.00    +0.023 C 
ATOM      2  C   UNL     1       2.858  -3.300   0.000  0.00  0.00    +0.093 C 
ATOM      3  N   UNL     1       2.143  -3.712   0.000  0.00  0.00    -0.262 N 
ATOM      4  C   UNL     1       1.429  -3.300   0.000  0.00  0.00    +0.323 C 
ATOM      5  N   UNL     1       1.429  -2.475   0.000  0.00  0.00    -0.188 NA
ATOM      6  O   UNL     1       0.715  -3.712   0.000  0.00  0.00    -0.251 OA
ATOM      7  C   UNL     1       2.143  -4.537   0.000  0.00  0.00    +0.112 C 
ATOM      8  C   UNL     1       2.858  -4.950   0.000  0.00  0.00    +0.094 C 
ATOM      9  N   UNL     1       3.572  -4.537   0.000  0.00  0.00    -0.268 NA
ATOM     10  C   UNL     1       3.572  -3.712   0.000  0.00  0.00    +0.092 C 
ENDROOT
BRANCH   5  11
ATOM     11  C   UNL     1       0.715  -2.062   0.000  0.00  0.00    +0.121 C 
BRANCH  11  12
ATOM     12  C   UNL     1       0.715  -1.238   0.000  0.00  0.00    +0.039 C 
ATOM     13  C   UNL     1      -0.111  -1.238   0.000  0.00  0.00    +0.006 C 
ATOM     14  C   UNL     1       1.540  -1.238   0.000  0.00  0.00    +0.006 C 
BRANCH  12  15
ATOM     15  C   UNL     1       0.715  -0.412   0.000  0.00  0.00    -0.018 A 
ATOM     16  C   UNL     1       1.429   0.000   0.000  0.00  0.00    +0.016 A 
ATOM     17  C   UNL     1       1.429   0.825   0.000  0.00  0.00    +0.099 A 
ATOM     18  N   UNL     1       0.715   1.238   0.000  0.00  0.00    -0.242 NA
ATOM     19  C   UNL     1       0.000   0.825   0.000  0.00  0.00    +0.099 A 
ATOM     20  C   UNL     1       0.000   0.000   0.000  0.00  0.00    +0.016 A 
ENDBRANCH  12  15
ENDBRANCH  11  12
ENDBRANCH   5  11
BRANCH   9  21
ATOM     21  C   UNL     1       4.287  -4.950   0.000  0.00  0.00    +0.103 C 
BRANCH  21  22
ATOM     22  C   UNL     1       4.287  -5.775   0.000  0.00  0.00    +0.141 C 
ATOM     23  O   UNL     1       3.462  -5.775   0.000  0.00  0.00    -0.224 OA
ATOM     24  C   UNL     1       5.112  -5.775   0.000  0.00  0.00    +0.034 C 
ATOM     25  C   UNL     1       4.287  -6.600   0.000  0.00  0.00    +0.034 C 
ENDBRANCH  21  22
ENDBRANCH   9  21
TORSDOF 5
