REMARK  Name = 
REMARK  5 active torsions:
REMARK  status: ('A' for Active; 'I' for Inactive)
REMARK    1  A    between atoms: C_2  and  C_3
REMARK    2  A    between atoms: C_6  and  C_7
REMARK    3  A    between atoms: C_7  and  N_8
REMARK    4  A    between atoms: C_9  and  C_11
REMARK    5  A    between atoms: C_11  and  C_12
REMARK                            x       y       z     vdW  Elec       q    Type
REMARK                         _______ _______ _______ _____ _____    ______ ____
ROOT
ATOM      1  N   UNL     1       1.429   2.475   0.000  0.00  0.00    -0.205 NA
ATOM      2  C   UNL     1       2.143   2.888   0.000  0.00  0.00    +0.246 C 
ATOM      3  O   UNL     1       2.143   3.712   0.000  0.00  0.00    -0.273 OA
ENDROOT
BRANCH   1   4
ATOM      4  C   UNL     1       0.715   2.888   0.000  0.00  0.00    +0.115 C 
BRANCH   4   8
ATOM      5  C   UNL     1      -1.429   1.650   0.000  0.00  0.00    +0.000 C 
ATOM      6  C   UNL     1      -0.715   1.238   0.000  0.00  0.00    +0.000 C 
ATOM      7  C   UNL     1       0.000   1.650   0.000  0.00  0.00    +0.002 C 
ATOM      8  C   UNL     1       0.000   2.475   0.000  0.00  0.00    +0.022 C 
ATOM      9  C   UNL     1      -0.715   2.888   0.000  0.00  0.00    +0.002 C 
ATOM     10  C   UNL     1      -1.429   2.475   0.000  0.00  0.00    +0.000 C 
BRANCH   5  12
ATOM     11  C   UNL     1      -2.143   0.412   0.000  0.00  0.00    +0.000 C 
ATOM     12  C   UNL     1      -2.143   1.238   0.000  0.00  0.00    +0.000 C 
ENDBRANCH   5  12
ENDBRANCH   4   8
ENDBRANCH   1   4
BRANCH   2  13
ATOM     13  C   UNL     1       2.858   2.475   0.000  0.00  0.00    +0.115 C 
BRANCH  13  14
ATOM     14  C   UNL     1       3.572   2.888   0.000  0.00  0.00    +0.015 A 
ATOM     15  C   UNL     1       4.326   2.552   0.000  0.00  0.00    +0.054 A 
ATOM     16  C   UNL     1       4.498   1.745   0.000  0.00  0.00    +0.051 C 
ATOM     17  N   UNL     1       4.878   3.165   0.000  0.00  0.00    -0.253 N 
ATOM     18  C   UNL     1       5.699   3.079   0.000  0.00  0.00    +0.153 C 
ATOM     19  N   UNL     1       4.466   3.880   0.000  0.00  0.00    -0.174 NA
ATOM     20  C   UNL     1       3.659   3.708   0.000  0.00  0.00    +0.077 A 
ATOM     21  C   UNL     1       3.046   4.260   0.000  0.00  0.00    +0.054 C 
ENDBRANCH  13  14
ENDBRANCH   2  13
TORSDOF 5
