REMARK  Name = 
REMARK  5 active torsions:
REMARK  status: ('A' for Active; 'I' for Inactive)
REMARK    1  A    between atoms: N_11  and  C_12
REMARK    2  A    between atoms: C_12  and  C_13
REMARK    3  A    between atoms: N_15  and  C_16
REMARK    4  A    between atoms: C_16  and  C_17
REMARK    5  A    between atoms: C_17  and  C_18
REMARK                            x       y       z     vdW  Elec       q    Type
REMARK                         _______ _______ _______ _____ _____    ______ ____
ROOT
ATOM      1  C   UNL     1       0.737  -0.121   0.000  0.00  0.00    +0.002 C 
ATOM      2  C   UNL     1      -0.083  -0.207   0.000  0.00  0.00    +0.027 C 
ATOM      3  C   UNL     1      -0.568   0.460   0.000  0.00  0.00    +0.149 C 
ATOM      4  C   UNL     1       0.239   0.632   0.000  0.00  0.00    +0.251 C 
ATOM      5  O   UNL     1       0.993   0.296   0.000  0.00  0.00    -0.273 OA
ATOM      6  N   UNL     1       0.325   1.452   0.000  0.00  0.00    -0.202 N 
ATOM      7  C   UNL     1      -0.429   1.788   0.000  0.00  0.00    +0.330 C 
ATOM      8  O   UNL     1      -0.600   2.595   0.000  0.00  0.00    -0.250 OA
ATOM      9  N   UNL     1      -0.981   1.175   0.000  0.00  0.00    -0.183 NA
ATOM     10  C   UNL     1      -1.389   0.374   0.000  0.00  0.00    +0.029 C 
ATOM     11  C   UNL     1      -1.724  -0.380   0.000  0.00  0.00    +0.002 C 
ATOM     12  C   UNL     1      -1.239  -1.047   0.000  0.00  0.00    +0.000 C 
ATOM     13  C   UNL     1      -0.419  -0.961   0.000  0.00  0.00    +0.002 C 
ENDROOT
BRANCH   6  14
ATOM     14  C   UNL     1       1.040   1.865   0.000  0.00  0.00    +0.189 C 
BRANCH  14  15
ATOM     15  C   UNL     1       1.754   1.452   0.000  0.00  0.00    +0.262 C 
ATOM     16  N   UNL     1       2.469   1.865   0.000  0.00  0.00    -0.204 NA
ATOM     17  O   UNL     1       1.754   0.627   0.000  0.00  0.00    -0.271 OA
BRANCH  16  18
ATOM     18  C   UNL     1       3.183   1.452   0.000  0.00  0.00    +0.121 C 
BRANCH  18  19
ATOM     19  C   UNL     1       3.897   1.865   0.000  0.00  0.00    +0.069 C 
BRANCH  19  20
ATOM     20  C   UNL     1       4.612   1.452   0.000  0.00  0.00    +0.061 A 
ATOM     21  N   UNL     1       4.612   0.627   0.000  0.00  0.00    -0.248 NA
ATOM     22  C   UNL     1       5.326   0.215   0.000  0.00  0.00    +0.098 A 
ATOM     23  C   UNL     1       6.041   0.627   0.000  0.00  0.00    +0.021 A 
ATOM     24  C   UNL     1       6.041   1.452   0.000  0.00  0.00    +0.003 A 
ATOM     25  C   UNL     1       5.326   1.865   0.000  0.00  0.00    +0.015 A 
ENDBRANCH  19  20
ENDBRANCH  18  19
ENDBRANCH  16  18
ENDBRANCH  14  15
ENDBRANCH   6  14
TORSDOF 5
