REMARK  Name = 
REMARK  6 active torsions:
REMARK  status: ('A' for Active; 'I' for Inactive)
REMARK    1  A    between atoms: N_2  and  C_9
REMARK    2  A    between atoms: C_5  and  N_8
REMARK    3  A    between atoms: C_7  and  C_9
REMARK    4  A    between atoms: N_8  and  C_14
REMARK    5  A    between atoms: N_8  and  C_21
REMARK    6  A    between atoms: C_14  and  C_19
REMARK                            x       y       z     vdW  Elec       q    Type
REMARK                         _______ _______ _______ _____ _____    ______ ____
ROOT
ATOM      1  C   UNL     1       2.562   0.825   0.000  0.00  0.00    +0.149 A 
ATOM      2  C   UNL     1       3.275   1.238   0.000  0.00  0.00    +0.154 A 
ATOM      3  N   UNL     1       3.992   0.825   0.000  0.00  0.00    -0.207 NA
ATOM      4  C   UNL     1       3.992   0.000   0.000  0.00  0.00    +0.201 A 
ATOM      5  N   UNL     1       3.275  -0.412   0.000  0.00  0.00    -0.205 NA
ATOM      6  N   UNL     1       1.779   1.083   0.000  0.00  0.00    -0.219 NA
ATOM      7  C   UNL     1       1.292   0.412   0.000  0.00  0.00    +0.180 A 
ATOM      8  N   UNL     1       1.779  -0.254   0.000  0.00  0.00    -0.292 N 
ATOM      9  C   UNL     1       2.562   0.000   0.000  0.00  0.00    +0.167 A 
ENDROOT
BRANCH   2  10
ATOM     10  N   UNL     1       3.275   2.062   0.000  0.00  0.00    -0.289 N 
BRANCH  10  11
ATOM     11  C   UNL     1       3.992   2.475   0.000  0.00  0.00    +0.092 C 
ATOM     12  C   UNL     1       4.704   2.062   0.000  0.00  0.00    +0.023 C 
ENDBRANCH  10  11
BRANCH  10  13
ATOM     13  C   UNL     1       2.562   2.475   0.000  0.00  0.00    +0.122 C 
BRANCH  13  14
ATOM     14  C   UNL     1       2.562   3.300   0.000  0.00  0.00    +0.135 C 
ATOM     15  C   UNL     1       3.229   3.788   0.000  0.00  0.00    +0.034 C 
ATOM     16  C   UNL     1       2.975   4.567   0.000  0.00  0.00    +0.035 C 
ATOM     17  C   UNL     1       2.150   4.567   0.000  0.00  0.00    +0.142 C 
ATOM     18  O   UNL     1       1.896   3.788   0.000  0.00  0.00    -0.355 OA
ENDBRANCH  13  14
ENDBRANCH  10  13
ENDBRANCH   2  10
BRANCH   8  19
ATOM     19  C   UNL     1       1.521  -1.038   0.000  0.00  0.00    +0.142 C 
BRANCH  19  20
ATOM     20  C   UNL     1       2.075  -1.650   0.000  0.00  0.00    +0.174 C 
ATOM     21  O   UNL     1       1.408  -2.138   0.000  0.00  0.00    -0.221 OA
ATOM     22  C   UNL     1       2.625  -1.038   0.000  0.00  0.00    +0.067 C 
ATOM     23  C   UNL     1       3.379  -1.375   0.000  0.00  0.00    +0.145 C 
ATOM     24  O   UNL     1       3.296  -2.192   0.000  0.00  0.00    -0.354 OA
ATOM     25  C   UNL     1       2.487  -2.367   0.000  0.00  0.00    +0.145 C 
ATOM     26  C   UNL     1       2.150  -3.117   0.000  0.00  0.00    +0.035 C 
ENDBRANCH  19  20
ENDBRANCH   8  19
TORSDOF 6
