REMARK  Name = 
REMARK  1 active torsions:
REMARK  status: ('A' for Active; 'I' for Inactive)
REMARK    1  A    between atoms: C_6  and  C_7
REMARK                            x       y       z     vdW  Elec       q    Type
REMARK                         _______ _______ _______ _____ _____    ______ ____
ROOT
ATOM      1  C   UNL     1      -0.023  -2.705   0.000  0.00  0.00    +0.274 C 
ATOM      2  N   UNL     1      -0.636  -3.257   0.000  0.00  0.00    -0.157 NA
ATOM      3  C   UNL     1      -1.421  -3.002   0.000  0.00  0.00    +0.174 A 
ATOM      4  N   UNL     1      -1.592  -2.195   0.000  0.00  0.00    -0.224 NA
ATOM      5  C   UNL     1      -2.377  -1.940   0.000  0.00  0.00    +0.121 A 
ATOM      6  C   UNL     1      -2.990  -2.492   0.000  0.00  0.00    +0.120 A 
ATOM      7  N   UNL     1      -2.819  -3.299   0.000  0.00  0.00    -0.238 NA
ATOM      8  C   UNL     1      -2.034  -3.554   0.000  0.00  0.00    +0.135 A 
ATOM      9  O   UNL     1      -0.195  -1.898   0.000  0.00  0.00    -0.270 OA
ENDROOT
BRANCH   1  12
ATOM     10  C   UNL     1       1.429  -1.650   0.000  0.00  0.00    +0.003 C 
ATOM     11  C   UNL     1       1.429  -2.475   0.000  0.00  0.00    +0.039 C 
ATOM     12  C   UNL     1       0.761  -2.960   0.000  0.00  0.00    +0.193 C 
ATOM     13  O   UNL     1       1.016  -3.744   0.000  0.00  0.00    -0.347 OA
ATOM     14  C   UNL     1       1.841  -3.744   0.000  0.00  0.00    +0.143 C 
ATOM     15  C   UNL     1       2.096  -2.960   0.000  0.00  0.00    +0.035 C 
ENDBRANCH   1  12
TORSDOF 1
