REMARK  Name = 
REMARK  5 active torsions:
REMARK  status: ('A' for Active; 'I' for Inactive)
REMARK    1  A    between atoms: C_2  and  C_4
REMARK    2  A    between atoms: C_4  and  N_5
REMARK    3  A    between atoms: C_4  and  C_9
REMARK    4  A    between atoms: N_11  and  C_12
REMARK    5  A    between atoms: C_12  and  C_13
REMARK                            x       y       z     vdW  Elec       q    Type
REMARK                         _______ _______ _______ _____ _____    ______ ____
ROOT
ATOM      1  C   UNL     1       5.001  -6.188   0.000  0.00  0.00    +0.143 C 
ENDROOT
BRANCH   1   2
ATOM      2  C   UNL     1       5.716  -6.600   0.000  0.00  0.00    +0.019 A 
ATOM      3  C   UNL     1       5.716  -7.425   0.000  0.00  0.00    +0.098 A 
ATOM      4  N   UNL     1       6.430  -7.838   0.000  0.00  0.00    -0.229 NA
ATOM      5  C   UNL     1       7.145  -7.425   0.000  0.00  0.00    +0.132 A 
ATOM      6  N   UNL     1       7.859  -7.838   0.000  0.00  0.00    -0.288 N 
ATOM      7  C   UNL     1       7.859  -8.662   0.000  0.00  0.00    +0.124 C 
ATOM      8  C   UNL     1       8.574  -9.075   0.000  0.00  0.00    +0.164 C 
ATOM      9  O   UNL     1       9.288  -8.662   0.000  0.00  0.00    -0.350 OA
ATOM     10  C   UNL     1       9.288  -7.838   0.000  0.00  0.00    +0.164 C 
ATOM     11  C   UNL     1       8.574  -7.425   0.000  0.00  0.00    +0.124 C 
ATOM     12  C   UNL     1       7.145  -6.600   0.000  0.00  0.00    +0.034 A 
ATOM     13  C   UNL     1       6.430  -6.188   0.000  0.00  0.00    +0.002 A 
ENDBRANCH   1   2
BRANCH   1  15
ATOM     14  C   UNL     1       3.572  -6.188   0.000  0.00  0.00    +0.262 C 
ATOM     15  N   UNL     1       4.287  -6.600   0.000  0.00  0.00    -0.199 NA
ATOM     16  O   UNL     1       3.572  -5.362   0.000  0.00  0.00    -0.271 OA
BRANCH  14  17
ATOM     17  C   UNL     1       2.858  -6.600   0.000  0.00  0.00    +0.173 C 
BRANCH  17  18
ATOM     18  N   UNL     1       2.143  -6.188   0.000  0.00  0.00    -0.198 NA
ATOM     19  C   UNL     1       1.429  -6.600   0.000  0.00  0.00    +0.242 C 
ATOM     20  C   UNL     1       1.429  -7.425   0.000  0.00  0.00    +0.096 C 
ATOM     21  O   UNL     1       0.715  -6.188   0.000  0.00  0.00    -0.273 OA
ENDBRANCH  17  18
BRANCH  17  23
ATOM     22  C   UNL     1       3.572  -7.838   0.000  0.00  0.00    +0.002 C 
ATOM     23  C   UNL     1       2.858  -7.425   0.000  0.00  0.00    +0.029 C 
ATOM     24  C   UNL     1       2.143  -7.838   0.000  0.00  0.00    +0.002 C 
ENDBRANCH  17  23
ENDBRANCH  14  17
ENDBRANCH   1  15
TORSDOF 5
