REMARK  Name = 
REMARK  4 active torsions:
REMARK  status: ('A' for Active; 'I' for Inactive)
REMARK    1  A    between atoms: N_3  and  C_4
REMARK    2  A    between atoms: N_7  and  C_8
REMARK    3  A    between atoms: C_8  and  C_9
REMARK    4  A    between atoms: N_16  and  C_17
REMARK                            x       y       z     vdW  Elec       q    Type
REMARK                         _______ _______ _______ _____ _____    ______ ____
ROOT
ATOM      1  C   UNL     1       2.143  -2.888   0.000  0.00  0.00    +0.100 C 
ATOM      2  C   UNL     1       2.143  -3.712   0.000  0.00  0.00    +0.039 C 
ATOM      3  C   UNL     1       2.858  -4.125   0.000  0.00  0.00    +0.074 C 
ATOM      4  N   UNL     1       3.572  -3.712   0.000  0.00  0.00    -0.273 NA
ATOM      5  C   UNL     1       3.572  -2.888   0.000  0.00  0.00    +0.074 C 
ATOM      6  C   UNL     1       2.858  -2.475   0.000  0.00  0.00    +0.039 C 
ENDROOT
BRANCH   1  10
ATOM      7  O   UNL     1       2.143  -1.238   0.000  0.00  0.00    -0.249 OA
ATOM      8  C   UNL     1       1.429  -1.650   0.000  0.00  0.00    +0.343 C 
ATOM      9  N   UNL     1       0.715  -1.238   0.000  0.00  0.00    -0.161 NA
ATOM     10  N   UNL     1       1.429  -2.475   0.000  0.00  0.00    -0.189 NA
BRANCH   9  11
ATOM     11  C   UNL     1       0.715  -0.412   0.000  0.00  0.00    +0.078 A 
ATOM     12  C   UNL     1       1.429   0.000   0.000  0.00  0.00    +0.037 A 
ATOM     13  C   UNL     1       1.429   0.825   0.000  0.00  0.00    +0.100 A 
ATOM     14  N   UNL     1       0.715   1.238   0.000  0.00  0.00    -0.242 NA
ATOM     15  C   UNL     1       0.000   0.825   0.000  0.00  0.00    +0.100 A 
ATOM     16  C   UNL     1       0.000   0.000   0.000  0.00  0.00    +0.037 A 
ENDBRANCH   9  11
ENDBRANCH   1  10
BRANCH   4  17
ATOM     17  C   UNL     1       4.287  -4.125   0.000  0.00  0.00    +0.072 C 
BRANCH  17  18
ATOM     18  C   UNL     1       4.287  -4.950   0.000  0.00  0.00    +0.016 C 
ATOM     19  C   UNL     1       3.619  -5.435   0.000  0.00  0.00    +0.001 C 
ATOM     20  C   UNL     1       3.874  -6.220   0.000  0.00  0.00    +0.000 C 
ATOM     21  C   UNL     1       4.699  -6.220   0.000  0.00  0.00    +0.000 C 
ATOM     22  C   UNL     1       4.954  -5.435   0.000  0.00  0.00    +0.001 C 
ENDBRANCH  17  18
ENDBRANCH   4  17
TORSDOF 4
