REMARK  Name = 
REMARK  4 active torsions:
REMARK  status: ('A' for Active; 'I' for Inactive)
REMARK    1  A    between atoms: N_3  and  C_12
REMARK    2  A    between atoms: C_7  and  C_9
REMARK    3  A    between atoms: C_12  and  C_13
REMARK    4  A    between atoms: C_13  and  C_23
REMARK                            x       y       z     vdW  Elec       q    Type
REMARK                         _______ _______ _______ _____ _____    ______ ____
ROOT
ATOM      1  C   UNL     1       1.921  -0.283   0.000  0.00  0.00    +0.149 A 
ATOM      2  N   UNL     1       1.137  -0.029   0.000  0.00  0.00    -0.219 NA
ATOM      3  C   UNL     1       0.650  -0.696   0.000  0.00  0.00    +0.180 A 
ATOM      4  N   UNL     1       1.137  -1.362   0.000  0.00  0.00    -0.294 N 
ATOM      5  C   UNL     1       1.921  -1.108   0.000  0.00  0.00    +0.167 A 
ATOM      6  N   UNL     1       2.637  -1.521   0.000  0.00  0.00    -0.205 NA
ATOM      7  C   UNL     1       3.350  -1.108   0.000  0.00  0.00    +0.201 A 
ATOM      8  N   UNL     1       3.350  -0.283   0.000  0.00  0.00    -0.207 NA
ATOM      9  C   UNL     1       2.637   0.129   0.000  0.00  0.00    +0.154 A 
ATOM     10  N   UNL     1       2.637   0.954   0.000  0.00  0.00    -0.293 N 
ATOM     11  C   UNL     1       1.966   1.437   0.000  0.00  0.00    +0.092 C 
ATOM     12  C   UNL     1       2.225   2.225   0.000  0.00  0.00    +0.023 C 
ATOM     13  C   UNL     1       3.050   2.225   0.000  0.00  0.00    +0.022 C 
ATOM     14  C   UNL     1       3.304   1.437   0.000  0.00  0.00    +0.079 C 
ENDROOT
BRANCH  14  15
ATOM     15  C   UNL     1       4.087   1.183   0.000  0.00  0.00    +0.078 C 
ATOM     16  C   UNL     1       4.258   0.379   0.000  0.00  0.00    +0.146 C 
ATOM     17  O   UNL     1       5.045   0.121   0.000  0.00  0.00    -0.354 OA
ATOM     18  C   UNL     1       5.658   0.675   0.000  0.00  0.00    +0.145 C 
ATOM     19  C   UNL     1       5.487   1.479   0.000  0.00  0.00    +0.065 C 
ATOM     20  C   UNL     1       4.699   1.737   0.000  0.00  0.00    +0.158 C 
ATOM     21  O   UNL     1       4.529   2.541   0.000  0.00  0.00    -0.223 OA
ENDBRANCH  14  15
BRANCH   4  22
ATOM     22  C   UNL     1       0.883  -2.150   0.000  0.00  0.00    +0.112 C 
BRANCH  22  23
ATOM     23  C   UNL     1       1.433  -2.762   0.000  0.00  0.00    +0.056 C 
ATOM     24  C   UNL     1       0.733  -3.200   0.000  0.00  0.00    +0.037 C 
ATOM     25  C   UNL     1       0.762  -4.020   0.000  0.00  0.00    +0.142 C 
ATOM     26  O   UNL     1       1.492  -4.408   0.000  0.00  0.00    -0.354 OA
ATOM     27  C   UNL     1       2.191  -3.970   0.000  0.00  0.00    +0.142 C 
ATOM     28  C   UNL     1       2.162  -3.150   0.000  0.00  0.00    +0.037 C 
BRANCH  23  29
ATOM     29  C   UNL     1       1.942  -2.112   0.000  0.00  0.00    +0.184 C 
ATOM     30  O   UNL     1       2.758  -2.225   0.000  0.00  0.00    -0.220 OA
ENDBRANCH  23  29
ENDBRANCH  22  23
ENDBRANCH   4  22
TORSDOF 4
