REMARK  Name = 
REMARK  2 active torsions:
REMARK  status: ('A' for Active; 'I' for Inactive)
REMARK    1  A    between atoms: C_3  and  C_4
REMARK    2  A    between atoms: C_3  and  C_7
REMARK                            x       y       z     vdW  Elec       q    Type
REMARK                         _______ _______ _______ _____ _____    ______ ____
ROOT
ATOM      1 CL   UNL     1       0.000   0.000   0.000  0.00  0.00    +0.000 Cl
ENDROOT
TORSDOF 0
REMARK  Name = 
REMARK  2 active torsions:
REMARK  status: ('A' for Active; 'I' for Inactive)
REMARK    1  A    between atoms: C_3  and  C_4
REMARK    2  A    between atoms: C_3  and  C_7
REMARK                            x       y       z     vdW  Elec       q    Type
REMARK                         _______ _______ _______ _____ _____    ______ ____
ROOT
ATOM      1  C   UNL     1       3.315  -0.113   0.000  0.00  0.00    +0.038 A 
ATOM      2  C   UNL     1       2.600  -0.525   0.000  0.00  0.00    +0.098 A 
ATOM      3  N   UNL     1       2.600  -1.350   0.000  0.00  0.00    -0.243 NA
ATOM      4  C   UNL     1       3.315  -1.762   0.000  0.00  0.00    +0.099 A 
ATOM      5  C   UNL     1       4.029  -1.350   0.000  0.00  0.00    +0.020 A 
ATOM      6  C   UNL     1       4.029  -0.525   0.000  0.00  0.00    +0.002 A 
ENDROOT
BRANCH   1   8
ATOM      7  O   UNL     1       4.029   1.125   0.000  0.00  0.00    -0.206 OA
ATOM      8  C   UNL     1       3.315   0.713   0.000  0.00  0.00    +0.278 C 
BRANCH   8   9
ATOM      9  C   UNL     1       2.600   1.125   0.000  0.00  0.00    +0.399 C 
ATOM     10  O   UNL     1       1.886   0.713   0.000  0.00  0.00    -0.242 OA
ATOM     11  O   UNL     1       2.600   1.950   0.000  0.00  0.00    -0.242 OA
ENDBRANCH   8   9
ENDBRANCH   1   8
TORSDOF 2
