REMARK  Name = 
REMARK  3 active torsions:
REMARK  status: ('A' for Active; 'I' for Inactive)
REMARK    1  A    between atoms: N_8  and  C_9
REMARK    2  A    between atoms: C_9  and  C_10
REMARK    3  A    between atoms: C_9  and  C_13
REMARK                            x       y       z     vdW  Elec       q    Type
REMARK                         _______ _______ _______ _____ _____    ______ ____
ROOT
ATOM      1  C   UNL     1      -4.079   2.720   0.000  0.00  0.00    +0.075 C 
ATOM      2  C   UNL     1      -3.743   1.966   0.000  0.00  0.00    +0.156 A 
ATOM      3  O   UNL     1      -4.156   1.252   0.000  0.00  0.00    -0.356 OA
ATOM      4  N   UNL     1      -3.604   0.639   0.000  0.00  0.00    -0.060 NA
ATOM      5  C   UNL     1      -2.850   0.974   0.000  0.00  0.00    +0.197 A 
ATOM      6  N   UNL     1      -2.136   0.562   0.000  0.00  0.00    -0.139 NA
ATOM      7  C   UNL     1      -1.421   0.974   0.000  0.00  0.00    +0.345 C 
ATOM      8  N   UNL     1      -0.707   0.562   0.000  0.00  0.00    -0.189 NA
ATOM      9  O   UNL     1      -1.421   1.799   0.000  0.00  0.00    -0.249 OA
ATOM     10  C   UNL     1      -2.936   1.795   0.000  0.00  0.00    +0.075 A 
ENDROOT
BRANCH   8  11
ATOM     11  C   UNL     1       0.008   0.974   0.000  0.00  0.00    +0.097 C 
BRANCH  11  12
ATOM     12  C   UNL     1       0.008   1.799   0.000  0.00  0.00    +0.020 C 
ATOM     13  C   UNL     1       0.420   2.514   0.000  0.00  0.00    +0.002 C 
ATOM     14  C   UNL     1      -0.405   2.514   0.000  0.00  0.00    +0.002 C 
ENDBRANCH  11  12
BRANCH  11  15
ATOM     15  C   UNL     1       0.722   0.562   0.000  0.00  0.00    +0.020 C 
ATOM     16  C   UNL     1       1.135  -0.153   0.000  0.00  0.00    +0.002 C 
ATOM     17  C   UNL     1       1.547   0.562   0.000  0.00  0.00    +0.002 C 
ENDBRANCH  11  15
ENDBRANCH   8  11
TORSDOF 3
