REMARK  Name = 
REMARK  3 active torsions:
REMARK  status: ('A' for Active; 'I' for Inactive)
REMARK    1  A    between atoms: C_2  and  C_5
REMARK    2  A    between atoms: C_10  and  N_11
REMARK    3  A    between atoms: C_12  and  C_14
REMARK                            x       y       z     vdW  Elec       q    Type
REMARK                         _______ _______ _______ _____ _____    ______ ____
ROOT
ATOM      1  C   UNL     1       1.429  -2.475   0.000  0.00  0.00    +0.092 A 
ATOM      2  C   UNL     1       0.715  -2.888   0.000  0.00  0.00    +0.027 A 
ATOM      3  C   UNL     1       0.715  -3.712   0.000  0.00  0.00    +0.131 A 
ATOM      4  C   UNL     1       1.429  -4.125   0.000  0.00  0.00    +0.295 A 
ATOM      5  O   UNL     1       1.429  -4.950   0.000  0.00  0.00    -0.264 OA
ATOM      6  N   UNL     1       2.143  -3.712   0.000  0.00  0.00    -0.205 NA
ATOM      7  C   UNL     1       2.143  -2.888   0.000  0.00  0.00    +0.106 A 
ENDROOT
BRANCH   1   9
ATOM      8  F   UNL     1       1.429  -0.825   0.000  0.00  0.00    -0.166 F 
ATOM      9  C   UNL     1       1.429  -1.650   0.000  0.00  0.00    +0.420 C 
ATOM     10  F   UNL     1       2.254  -1.650   0.000  0.00  0.00    -0.166 F 
ATOM     11  F   UNL     1       0.604  -1.650   0.000  0.00  0.00    -0.166 F 
ENDBRANCH   1   9
BRANCH   3  12
ATOM     12  N   UNL     1       0.000  -4.125   0.000  0.00  0.00    -0.172 NA
ATOM     13  C   UNL     1       0.000  -4.950   0.000  0.00  0.00    +0.275 C 
ATOM     14  O   UNL     1       0.715  -5.362   0.000  0.00  0.00    -0.270 OA
BRANCH  13  15
ATOM     15  C   UNL     1      -0.715  -5.362   0.000  0.00  0.00    +0.223 C 
ATOM     16  O   UNL     1      -1.429  -4.950   0.000  0.00  0.00    -0.342 OA
ATOM     17  C   UNL     1      -2.143  -5.362   0.000  0.00  0.00    +0.175 C 
ATOM     18  C   UNL     1      -2.143  -6.188   0.000  0.00  0.00    +0.174 C 
ATOM     19  O   UNL     1      -1.429  -6.600   0.000  0.00  0.00    -0.348 OA
ATOM     20  C   UNL     1      -0.715  -6.188   0.000  0.00  0.00    +0.181 C 
ENDBRANCH  13  15
ENDBRANCH   3  12
TORSDOF 3
