REMARK  Name = 
REMARK  5 active torsions:
REMARK  status: ('A' for Active; 'I' for Inactive)
REMARK    1  A    between atoms: C_2  and  C_3
REMARK    2  A    between atoms: C_3  and  C_4
REMARK    3  A    between atoms: C_4  and  N_7
REMARK    4  A    between atoms: C_8  and  C_10
REMARK    5  A    between atoms: C_10  and  N_11
REMARK                            x       y       z     vdW  Elec       q    Type
REMARK                         _______ _______ _______ _____ _____    ______ ____
ROOT
ATOM      1  N   UNL     1       0.000   3.300   0.000  0.00  0.00    -0.207 NA
ATOM      2  C   UNL     1       0.000   2.475   0.000  0.00  0.00    +0.264 C 
ATOM      3  O   UNL     1      -0.715   2.062   0.000  0.00  0.00    -0.271 OA
ENDROOT
BRANCH   1   4
ATOM      4  C   UNL     1      -0.715   3.712   0.000  0.00  0.00    +0.079 C 
ATOM      5  C   UNL     1      -0.302   4.427   0.000  0.00  0.00    +0.022 C 
ATOM      6  C   UNL     1      -1.127   2.998   0.000  0.00  0.00    +0.022 C 
BRANCH   4   7
ATOM      7  C   UNL     1      -1.429   4.125   0.000  0.00  0.00    +0.020 C 
BRANCH   7   9
ATOM      8  C   UNL     1      -2.143   5.362   0.000  0.00  0.00    +0.000 C 
ATOM      9  C   UNL     1      -1.429   4.950   0.000  0.00  0.00    +0.002 C 
ENDBRANCH   7   9
ENDBRANCH   4   7
ENDBRANCH   1   4
BRANCH   2  10
ATOM     10  C   UNL     1       0.715   2.062   0.000  0.00  0.00    +0.197 C 
BRANCH  10  11
ATOM     11  N   UNL     1       0.715   1.238   0.000  0.00  0.00    -0.269 N 
ATOM     12  C   UNL     1       0.000   0.825   0.000  0.00  0.00    +0.353 A 
ATOM     13  O   UNL     1      -0.715   1.238   0.000  0.00  0.00    -0.244 OA
ATOM     14  N   UNL     1       0.000   0.000   0.000  0.00  0.00    -0.153 NA
ATOM     15  C   UNL     1       0.715  -0.412   0.000  0.00  0.00    +0.285 A 
ATOM     16  O   UNL     1       0.715  -1.238   0.000  0.00  0.00    -0.265 OA
ATOM     17  C   UNL     1       1.429   0.000   0.000  0.00  0.00    +0.081 A 
ATOM     18  C   UNL     1       1.429   0.825   0.000  0.00  0.00    +0.085 A 
ENDBRANCH  10  11
ENDBRANCH   2  10
TORSDOF 5
