REMARK  Name = 
REMARK  6 active torsions:
REMARK  status: ('A' for Active; 'I' for Inactive)
REMARK    1  A    between atoms: C_2  and  N_4
REMARK    2  A    between atoms: C_5  and  C_7
REMARK    3  A    between atoms: C_7  and  C_8
REMARK    4  A    between atoms: C_8  and  N_9
REMARK    5  A    between atoms: C_13  and  C_14
REMARK    6  A    between atoms: C_14  and  N_15
REMARK                            x       y       z     vdW  Elec       q    Type
REMARK                         _______ _______ _______ _____ _____    ______ ____
ROOT
ATOM      1  N   UNL     1       7.859  -6.188   0.000  0.00  0.00    -0.268 NA
ATOM      2  C   UNL     1       8.574  -6.600   0.000  0.00  0.00    +0.104 C 
ATOM      3  C   UNL     1       9.288  -6.188   0.000  0.00  0.00    +0.153 C 
ATOM      4  O   UNL     1       9.288  -5.362   0.000  0.00  0.00    -0.352 OA
ATOM      5  C   UNL     1       8.574  -4.950   0.000  0.00  0.00    +0.159 C 
ATOM      6  C   UNL     1       7.859  -5.362   0.000  0.00  0.00    +0.105 C 
ENDROOT
BRANCH   3   7
ATOM      7  C   UNL     1      10.003  -6.600   0.000  0.00  0.00    +0.145 C 
BRANCH   7   8
ATOM      8  N   UNL     1      10.717  -6.188   0.000  0.00  0.00    -0.216 NA
ATOM      9  C   UNL     1      11.431  -6.600   0.000  0.00  0.00    +0.169 A 
ATOM     10  N   UNL     1      11.431  -7.425   0.000  0.00  0.00    -0.131 NA
ATOM     11  N   UNL     1      12.146  -7.838   0.000  0.00  0.00    -0.145 NA
ATOM     12  C   UNL     1      12.861  -7.425   0.000  0.00  0.00    +0.122 A 
ATOM     13  C   UNL     1      12.861  -6.600   0.000  0.00  0.00    +0.025 A 
ATOM     14  C   UNL     1      12.146  -6.188   0.000  0.00  0.00    +0.039 A 
ENDBRANCH   7   8
ENDBRANCH   3   7
BRANCH   1  15
ATOM     15  C   UNL     1       7.145  -6.600   0.000  0.00  0.00    +0.082 C 
BRANCH  15  16
ATOM     16  C   UNL     1       6.430  -6.188   0.000  0.00  0.00    +0.104 C 
BRANCH  16  18
ATOM     17  N   UNL     1       5.001  -6.188   0.000  0.00  0.00    -0.207 NA
ATOM     18  C   UNL     1       5.716  -6.600   0.000  0.00  0.00    +0.243 C 
ATOM     19  O   UNL     1       5.716  -7.425   0.000  0.00  0.00    -0.273 OA
BRANCH  17  21
ATOM     20  C   UNL     1       3.572  -6.188   0.000  0.00  0.00    +0.023 C 
ATOM     21  C   UNL     1       4.287  -6.600   0.000  0.00  0.00    +0.095 C 
ATOM     22  C   UNL     1       4.287  -7.425   0.000  0.00  0.00    +0.023 C 
ENDBRANCH  17  21
ENDBRANCH  16  18
ENDBRANCH  15  16
ENDBRANCH   1  15
TORSDOF 6
