REMARK  Name = 
REMARK  6 active torsions:
REMARK  status: ('A' for Active; 'I' for Inactive)
REMARK    1  A    between atoms: C_2  and  O_3
REMARK    2  A    between atoms: O_3  and  C_4
REMARK    3  A    between atoms: C_6  and  N_7
REMARK    4  A    between atoms: N_7  and  C_8
REMARK    5  A    between atoms: C_8  and  C_10
REMARK    6  A    between atoms: C_10  and  N_11
REMARK                            x       y       z     vdW  Elec       q    Type
REMARK                         _______ _______ _______ _____ _____    ______ ____
ROOT
ATOM      1  C   UNL     1       0.412  -0.171   0.000  0.00  0.00    +0.118 C 
ATOM      2  C   UNL     1       0.996   0.412   0.000  0.00  0.00    +0.040 C 
ATOM      3  C   UNL     1       1.481  -0.255   0.000  0.00  0.00    +0.004 C 
ATOM      4  C   UNL     1       2.265   0.000   0.000  0.00  0.00    +0.000 C 
ATOM      5  C   UNL     1       2.265   0.825   0.000  0.00  0.00    +0.000 C 
ATOM      6  C   UNL     1       1.481   1.080   0.000  0.00  0.00    +0.004 C 
ATOM      7  C   UNL     1       0.412   0.996   0.000  0.00  0.00    +0.077 C 
ATOM      8  C   UNL     1      -0.171   0.412   0.000  0.00  0.00    +0.047 C 
ENDROOT
BRANCH   1   9
ATOM      9  O   UNL     1       0.412  -0.996   0.000  0.00  0.00    -0.356 OA
BRANCH   9  11
ATOM     10  C   UNL     1       1.127  -2.233   0.000  0.00  0.00    +0.035 C 
ATOM     11  C   UNL     1       1.127  -1.408   0.000  0.00  0.00    +0.142 C 
ENDBRANCH   9  11
ENDBRANCH   1   9
BRANCH   7  12
ATOM     12  N   UNL     1       0.412   1.821   0.000  0.00  0.00    -0.219 NA
BRANCH  12  13
ATOM     13  C   UNL     1       1.127   2.233   0.000  0.00  0.00    +0.097 C 
ATOM     14  C   UNL     1       1.841   1.821   0.000  0.00  0.00    +0.021 C 
BRANCH  13  15
ATOM     15  C   UNL     1       1.127   3.058   0.000  0.00  0.00    +0.146 C 
BRANCH  15  16
ATOM     16  N   UNL     1       1.841   3.471   0.000  0.00  0.00    -0.229 N 
ATOM     17  N   UNL     1       2.595   3.135   0.000  0.00  0.00    -0.145 NA
ATOM     18  C   UNL     1       3.147   3.748   0.000  0.00  0.00    +0.221 A 
ATOM     19  N   UNL     1       2.735   4.463   0.000  0.00  0.00    -0.201 NA
ATOM     20  C   UNL     1       1.928   4.291   0.000  0.00  0.00    +0.197 A 
ENDBRANCH  15  16
ENDBRANCH  13  15
ENDBRANCH  12  13
ENDBRANCH   7  12
TORSDOF 6
