REMARK  Name = 
REMARK  3 active torsions:
REMARK  status: ('A' for Active; 'I' for Inactive)
REMARK    1  A    between atoms: N_9  and  C_10
REMARK    2  A    between atoms: C_10  and  C_11
REMARK    3  A    between atoms: C_11  and  C_13
REMARK                            x       y       z     vdW  Elec       q    Type
REMARK                         _______ _______ _______ _____ _____    ______ ____
ROOT
ATOM      1  C   UNL     1       3.279   2.062   0.000  0.00  0.00    +0.137 C 
ATOM      2  N   UNL     1       3.279   1.238   0.000  0.00  0.00    -0.261 N 
ATOM      3  C   UNL     1       2.564   0.825   0.000  0.00  0.00    +0.171 A 
ATOM      4  C   UNL     1       2.564   0.000   0.000  0.00  0.00    +0.155 A 
ATOM      5  N   UNL     1       1.780  -0.255   0.000  0.00  0.00    -0.292 N 
ATOM      6  C   UNL     1       1.295   0.412   0.000  0.00  0.00    +0.203 A 
ATOM      7  N   UNL     1       0.470   0.412   0.000  0.00  0.00    -0.279 N 
ATOM      8  C   UNL     1       0.057   1.127   0.000  0.00  0.00    +0.094 C 
ATOM      9  C   UNL     1      -0.768   1.127   0.000  0.00  0.00    +0.022 C 
ATOM     10  C   UNL     1      -1.180   0.412   0.000  0.00  0.00    +0.004 C 
ATOM     11  C   UNL     1      -0.768  -0.302   0.000  0.00  0.00    +0.022 C 
ATOM     12  C   UNL     1       0.057  -0.302   0.000  0.00  0.00    +0.094 C 
ATOM     13  C   UNL     1       3.279  -0.412   0.000  0.00  0.00    +0.302 A 
ATOM     14  O   UNL     1       3.279  -1.238   0.000  0.00  0.00    -0.263 OA
ATOM     15  N   UNL     1       3.993   0.000   0.000  0.00  0.00    -0.152 NA
ATOM     16  N   UNL     1       1.780   1.080   0.000  0.00  0.00    -0.196 NA
ATOM     17  C   UNL     1       3.993   0.825   0.000  0.00  0.00    +0.354 A 
ATOM     18  O   UNL     1       4.708   1.238   0.000  0.00  0.00    -0.244 OA
ENDROOT
BRANCH   5  19
ATOM     19  C   UNL     1       1.525  -1.040   0.000  0.00  0.00    +0.144 C 
BRANCH  19  20
ATOM     20  C   UNL     1       2.077  -1.653   0.000  0.00  0.00    +0.207 C 
ATOM     21  O   UNL     1       2.884  -1.481   0.000  0.00  0.00    -0.218 OA
BRANCH  20  22
ATOM     22  C   UNL     1       1.822  -2.437   0.000  0.00  0.00    +0.217 C 
ATOM     23  O   UNL     1       2.374  -3.050   0.000  0.00  0.00    -0.218 OA
ENDBRANCH  20  22
ENDBRANCH  19  20
ENDBRANCH   5  19
TORSDOF 3
