REMARK  Name = 
REMARK  4 active torsions:
REMARK  status: ('A' for Active; 'I' for Inactive)
REMARK    1  A    between atoms: C_2  and  N_3
REMARK    2  A    between atoms: C_2  and  C_13
REMARK    3  A    between atoms: C_4  and  C_6
REMARK    4  A    between atoms: C_6  and  N_8
REMARK                            x       y       z     vdW  Elec       q    Type
REMARK                         _______ _______ _______ _____ _____    ______ ____
ROOT
ATOM      1  N   UNL     1       2.469  -1.040   0.000  0.00  0.00    -0.196 NA
ATOM      2  C   UNL     1       1.754  -0.627   0.000  0.00  0.00    +0.264 C 
ATOM      3  O   UNL     1       1.754   0.198   0.000  0.00  0.00    -0.271 OA
ENDROOT
BRANCH   1   5
ATOM      4  C   UNL     1       3.183   0.198   0.000  0.00  0.00    +0.033 C 
ATOM      5  C   UNL     1       3.183  -0.627   0.000  0.00  0.00    +0.174 C 
BRANCH   5   6
ATOM      6  C   UNL     1       3.897  -1.040   0.000  0.00  0.00    +0.281 C 
ATOM      7  N   UNL     1       3.897  -1.865   0.000  0.00  0.00    -0.086 NA
ATOM      8  O   UNL     1       4.612  -0.627   0.000  0.00  0.00    -0.270 OA
ENDBRANCH   5   6
ENDBRANCH   1   5
BRANCH   2   9
ATOM      9  C   UNL     1       1.040  -1.040   0.000  0.00  0.00    +0.183 C 
ATOM     10  C   UNL     1       1.040  -1.865   0.000  0.00  0.00    +0.036 C 
BRANCH   9  11
ATOM     11  N   UNL     1       0.325  -0.627   0.000  0.00  0.00    -0.242 N 
ATOM     12  N   UNL     1       0.239   0.193   0.000  0.00  0.00    -0.167 NA
ATOM     13  C   UNL     1      -0.568   0.365   0.000  0.00  0.00    +0.122 A 
ATOM     14  C   UNL     1      -0.981  -0.349   0.000  0.00  0.00    +0.043 A 
ATOM     15  C   UNL     1      -0.429  -0.963   0.000  0.00  0.00    +0.097 A 
ENDBRANCH   9  11
ENDBRANCH   2   9
TORSDOF 4
