REMARK  Name = 
REMARK  4 active torsions:
REMARK  status: ('A' for Active; 'I' for Inactive)
REMARK    1  A    between atoms: C_2  and  C_4
REMARK    2  A    between atoms: C_6  and  C_7
REMARK    3  A    between atoms: C_7  and  C_8
REMARK    4  A    between atoms: N_10  and  C_11
REMARK                            x       y       z     vdW  Elec       q    Type
REMARK                         _______ _______ _______ _____ _____    ______ ____
ROOT
ATOM      1  C   UNL     1       2.564  -5.712   0.000  0.00  0.00    +0.248 C 
ATOM      2  N   UNL     1       3.049  -6.379   0.000  0.00  0.00    -0.197 NA
ATOM      3  O   UNL     1       1.743  -5.798   0.000  0.00  0.00    -0.273 OA
ENDROOT
BRANCH   2   4
ATOM      4  C   UNL     1       2.713  -7.133   0.000  0.00  0.00    +0.173 C 
ATOM      5  C   UNL     1       1.888  -7.157   0.000  0.00  0.00    +0.261 C 
ATOM      6  O   UNL     1       1.508  -6.425   0.000  0.00  0.00    -0.271 OA
ATOM      7  N   UNL     1       1.394  -7.817   0.000  0.00  0.00    -0.204 NA
ATOM      8  C   UNL     1       1.601  -8.616   0.000  0.00  0.00    +0.115 C 
ATOM      9  C   UNL     1       2.355  -8.951   0.000  0.00  0.00    +0.024 C 
ATOM     10  C   UNL     1       3.087  -8.571   0.000  0.00  0.00    +0.004 C 
ATOM     11  C   UNL     1       3.247  -7.762   0.000  0.00  0.00    +0.031 C 
ENDBRANCH   2   4
BRANCH   1  12
ATOM     12  C   UNL     1       2.899  -4.958   0.000  0.00  0.00    +0.133 C 
BRANCH  12  16
ATOM     13  C   UNL     1       2.002  -3.021   0.000  0.00  0.00    +0.087 A 
ATOM     14  S   UNL     1       1.334  -3.506   0.000  0.00  0.00    -0.071 S 
ATOM     15  C   UNL     1       1.589  -4.290   0.000  0.00  0.00    +0.052 A 
ATOM     16  C   UNL     1       2.414  -4.290   0.000  0.00  0.00    +0.075 A 
ATOM     17  N   UNL     1       2.669  -3.506   0.000  0.00  0.00    -0.247 NA
BRANCH  13  19
ATOM     18  C   UNL     1       1.287  -1.783   0.000  0.00  0.00    +0.007 C 
ATOM     19  C   UNL     1       2.002  -2.196   0.000  0.00  0.00    +0.047 C 
ATOM     20  C   UNL     1       2.716  -1.783   0.000  0.00  0.00    +0.007 C 
ENDBRANCH  13  19
ENDBRANCH  12  16
ENDBRANCH   1  12
TORSDOF 4
