REMARK  Name = 
REMARK  4 active torsions:
REMARK  status: ('A' for Active; 'I' for Inactive)
REMARK    1  A    between atoms: C_2  and  CA_3
REMARK    2  A    between atoms: CA_3  and  C_4
REMARK    3  A    between atoms: CA_3  and  N_6
REMARK    4  A    between atoms: N_9  and  C_10
REMARK                            x       y       z     vdW  Elec       q    Type
REMARK                         _______ _______ _______ _____ _____    ______ ____
ROOT
ATOM      1  C   UNL     1       5.745  -3.189   0.000  0.00  0.00    +0.094 A 
ATOM      2  C   UNL     1       5.333  -3.904   0.000  0.00  0.00    +0.117 A 
ATOM      3  N   UNL     1       5.745  -4.618   0.000  0.00  0.00    -0.228 NA
ATOM      4  C   UNL     1       6.570  -4.618   0.000  0.00  0.00    +0.132 A 
ATOM      5  N   UNL     1       6.983  -5.333   0.000  0.00  0.00    -0.293 N 
ATOM      6  C   UNL     1       6.647  -6.087   0.000  0.00  0.00    +0.092 C 
ATOM      7  C   UNL     1       7.260  -6.639   0.000  0.00  0.00    +0.023 C 
ATOM      8  C   UNL     1       7.975  -6.226   0.000  0.00  0.00    +0.023 C 
ATOM      9  C   UNL     1       7.803  -5.419   0.000  0.00  0.00    +0.092 C 
ATOM     10  C   UNL     1       6.983  -3.904   0.000  0.00  0.00    +0.036 A 
ATOM     11  C   UNL     1       6.570  -3.189   0.000  0.00  0.00    +0.021 A 
ENDROOT
BRANCH   1  14
ATOM     12  N   UNL     1       4.095  -1.760   0.000  0.00  0.00    -0.186 NA
ATOM     13  C   UNL     1       4.508  -2.475   0.000  0.00  0.00    +0.344 C 
ATOM     14  N   UNL     1       5.333  -2.475   0.000  0.00  0.00    -0.159 NA
ATOM     15  O   UNL     1       4.095  -3.189   0.000  0.00  0.00    -0.249 OA
BRANCH  12  16
ATOM     16  CA  UNL     1       3.270  -1.760   0.000  0.00  0.00    +0.130 C 
BRANCH  16  18
ATOM     17  C   UNL     1       2.033  -1.046   0.000  0.00  0.00    +0.002 C 
ATOM     18  C   UNL     1       2.858  -1.046   0.000  0.00  0.00    +0.024 C 
ENDBRANCH  16  18
BRANCH  16  19
ATOM     19  C   UNL     1       2.858  -2.475   0.000  0.00  0.00    +0.204 C 
ATOM     20  O   UNL     1       2.033  -2.475   0.000  0.00  0.00    -0.219 OA
ENDBRANCH  16  19
ENDBRANCH  12  16
ENDBRANCH   1  14
TORSDOF 4
