REMARK  Name = 
REMARK  4 active torsions:
REMARK  status: ('A' for Active; 'I' for Inactive)
REMARK    1  A    between atoms: C_2  and  C_3
REMARK    2  A    between atoms: C_3  and  C_4
REMARK    3  A    between atoms: N_15  and  C_16
REMARK    4  A    between atoms: C_16  and  C_17
REMARK                            x       y       z     vdW  Elec       q    Type
REMARK                         _______ _______ _______ _____ _____    ______ ____
ROOT
ATOM      1  C   UNL     1       1.816  -2.269   0.000  0.00  0.00    +0.077 A 
ATOM      2  N   UNL     1       1.730  -1.448   0.000  0.00  0.00    -0.228 NA
ATOM      3  C   UNL     1       0.923  -1.277   0.000  0.00  0.00    +0.168 A 
ATOM      4  N   UNL     1       0.588  -0.523   0.000  0.00  0.00    -0.239 N 
ATOM      5  C   UNL     1       1.000   0.191   0.000  0.00  0.00    +0.231 C 
ATOM      6  O   UNL     1       1.821   0.278   0.000  0.00  0.00    -0.274 OA
ATOM      7  C   UNL     1       0.448   0.804   0.000  0.00  0.00    +0.087 C 
ATOM      8  C   UNL     1      -0.306   0.469   0.000  0.00  0.00    +0.032 C 
ATOM      9  C   UNL     1      -0.219  -0.352   0.000  0.00  0.00    +0.101 C 
ATOM     10  S   UNL     1       0.511  -1.991   0.000  0.00  0.00    -0.051 S 
ATOM     11  C   UNL     1       1.063  -2.604   0.000  0.00  0.00    +0.053 A 
ENDROOT
BRANCH   1  12
ATOM     12  C   UNL     1       2.531  -2.681   0.000  0.00  0.00    +0.133 C 
BRANCH  12  14
ATOM     13  O   UNL     1       3.245  -1.444   0.000  0.00  0.00    -0.273 OA
ATOM     14  C   UNL     1       3.245  -2.269   0.000  0.00  0.00    +0.247 C 
ATOM     15  N   UNL     1       3.960  -2.681   0.000  0.00  0.00    -0.205 NA
BRANCH  15  16
ATOM     16  C   UNL     1       4.674  -2.269   0.000  0.00  0.00    +0.115 C 
BRANCH  16  17
ATOM     17  C   UNL     1       5.389  -2.681   0.000  0.00  0.00    +0.022 C 
ATOM     18  C   UNL     1       5.602  -3.478   0.000  0.00  0.00    +0.002 C 
ATOM     19  C   UNL     1       6.399  -3.265   0.000  0.00  0.00    +0.000 C 
ATOM     20  C   UNL     1       6.186  -2.468   0.000  0.00  0.00    +0.002 C 
ENDBRANCH  16  17
ENDBRANCH  15  16
ENDBRANCH  12  14
ENDBRANCH   1  12
TORSDOF 4
