REMARK  Name = 
REMARK  7 active torsions:
REMARK  status: ('A' for Active; 'I' for Inactive)
REMARK    1  A    between atoms: C_2  and  C_4
REMARK    2  A    between atoms: C_9  and  O_10
REMARK    3  A    between atoms: O_10  and  C_11
REMARK    4  A    between atoms: C_11  and  C_12
REMARK    5  A    between atoms: C_12  and  C_14
REMARK    6  A    between atoms: C_14  and  N_15
REMARK    7  A    between atoms: C_21  and  C_22
REMARK                            x       y       z     vdW  Elec       q    Type
REMARK                         _______ _______ _______ _____ _____    ______ ____
ROOT
ATOM      1  C   UNL     1       2.143  -2.888   0.000  0.00  0.00    +0.220 C 
ATOM      2  O   UNL     1       2.143  -3.712   0.000  0.00  0.00    -0.217 OA
ENDROOT
BRANCH   1   3
ATOM      3  C   UNL     1       1.429  -2.475   0.000  0.00  0.00    +0.240 C 
BRANCH   3   4
ATOM      4  O   UNL     1       0.715  -2.888   0.000  0.00  0.00    -0.473 OA
BRANCH   4   6
ATOM      5  C   UNL     1      -0.715  -2.888   0.000  0.00  0.00    +0.011 A 
ATOM      6  C   UNL     1       0.000  -2.475   0.000  0.00  0.00    +0.135 A 
ATOM      7  C   UNL     1       0.000  -1.650   0.000  0.00  0.00    +0.037 A 
ATOM      8  C   UNL     1      -0.715  -1.238   0.000  0.00  0.00    +0.003 A 
ATOM      9  C   UNL     1      -1.429  -1.650   0.000  0.00  0.00    -0.000 A 
ATOM     10  C   UNL     1      -1.429  -2.475   0.000  0.00  0.00    -0.001 A 
BRANCH   5  12
ATOM     11  C   UNL     1      -1.429  -4.125   0.000  0.00  0.00    +0.005 C 
ATOM     12  C   UNL     1      -0.715  -3.712   0.000  0.00  0.00    +0.025 C 
ATOM     13  C   UNL     1       0.000  -4.125   0.000  0.00  0.00    +0.005 C 
ENDBRANCH   5  12
ENDBRANCH   4   6
ENDBRANCH   3   4
ENDBRANCH   1   3
BRANCH   1  14
ATOM     14  C   UNL     1       2.858  -2.475   0.000  0.00  0.00    +0.167 C 
BRANCH  14  15
ATOM     15  N   UNL     1       3.572  -2.888   0.000  0.00  0.00    -0.214 N 
ATOM     16  C   UNL     1       3.572  -3.712   0.000  0.00  0.00    +0.286 A 
ATOM     17  O   UNL     1       2.858  -4.125   0.000  0.00  0.00    -0.265 OA
ATOM     18  C   UNL     1       4.287  -4.125   0.000  0.00  0.00    +0.123 A 
ATOM     19  C   UNL     1       5.001  -3.712   0.000  0.00  0.00    +0.008 A 
ATOM     20  C   UNL     1       5.716  -4.125   0.000  0.00  0.00    +0.033 C 
ATOM     21  C   UNL     1       5.001  -2.888   0.000  0.00  0.00    +0.076 A 
ATOM     22  C   UNL     1       5.716  -2.475   0.000  0.00  0.00    +0.054 C 
ATOM     23  N   UNL     1       4.287  -2.475   0.000  0.00  0.00    -0.171 NA
BRANCH  18  24
ATOM     24  C   UNL     1       4.287  -4.950   0.000  0.00  0.00    +0.105 C 
ATOM     25  N   UNL     1       4.287  -5.775   0.000  0.00  0.00    -0.191 NA
ENDBRANCH  18  24
ENDBRANCH  14  15
ENDBRANCH   1  14
TORSDOF 7
