REMARK  Name = 
REMARK  4 active torsions:
REMARK  status: ('A' for Active; 'I' for Inactive)
REMARK    1  A    between atoms: C_2  and  C_4
REMARK    2  A    between atoms: C_4  and  N_5
REMARK    3  A    between atoms: C_8  and  N_11
REMARK    4  A    between atoms: N_14  and  C_15
REMARK                            x       y       z     vdW  Elec       q    Type
REMARK                         _______ _______ _______ _____ _____    ______ ____
ROOT
ATOM      1  N   UNL     1       2.037   6.828   0.000  0.00  0.00    -0.189 NA
ATOM      2  C   UNL     1       2.037   6.003   0.000  0.00  0.00    +0.344 C 
ATOM      3  N   UNL     1       2.751   5.590   0.000  0.00  0.00    -0.157 NA
ATOM      4  O   UNL     1       1.322   5.590   0.000  0.00  0.00    -0.249 OA
ENDROOT
BRANCH   3   5
ATOM      5  C   UNL     1       2.751   4.765   0.000  0.00  0.00    +0.124 A 
ATOM      6  C   UNL     1       2.084   4.280   0.000  0.00  0.00    +0.170 A 
ATOM      7  C   UNL     1       1.299   4.535   0.000  0.00  0.00    +0.077 C 
ATOM      8  O   UNL     1       2.339   3.496   0.000  0.00  0.00    -0.357 OA
ATOM      9  N   UNL     1       3.164   3.496   0.000  0.00  0.00    -0.080 NA
ATOM     10  C   UNL     1       3.419   4.280   0.000  0.00  0.00    +0.116 A 
ATOM     11  C   UNL     1       4.203   4.535   0.000  0.00  0.00    +0.057 C 
ENDBRANCH   3   5
BRANCH   1  15
ATOM     12  N   UNL     1      -0.107   8.065   0.000  0.00  0.00    -0.269 NA
ATOM     13  C   UNL     1      -0.107   7.240   0.000  0.00  0.00    +0.074 C 
ATOM     14  C   UNL     1       0.608   6.828   0.000  0.00  0.00    +0.039 C 
ATOM     15  C   UNL     1       1.322   7.240   0.000  0.00  0.00    +0.100 C 
ATOM     16  C   UNL     1       1.322   8.065   0.000  0.00  0.00    +0.039 C 
ATOM     17  C   UNL     1       0.608   8.478   0.000  0.00  0.00    +0.074 C 
BRANCH  12  18
ATOM     18  C   UNL     1      -0.821   8.478   0.000  0.00  0.00    +0.095 C 
BRANCH  18  20
ATOM     19  C   UNL     1      -2.250   8.478   0.000  0.00  0.00    +0.028 C 
ATOM     20  C   UNL     1      -1.536   8.065   0.000  0.00  0.00    -0.028 C 
ATOM     21  C   UNL     1      -1.536   7.240   0.000  0.00  0.00    -0.008 C 
ENDBRANCH  18  20
ENDBRANCH  12  18
ENDBRANCH   1  15
TORSDOF 4
