REMARK  Name = 
REMARK  7 active torsions:
REMARK  status: ('A' for Active; 'I' for Inactive)
REMARK    1  A    between atoms: C_2  and  C_3
REMARK    2  A    between atoms: C_3  and  N_4
REMARK    3  A    between atoms: C_7  and  N_8
REMARK    4  A    between atoms: N_8  and  C_9
REMARK    5  A    between atoms: C_9  and  C_10
REMARK    6  A    between atoms: C_10  and  O_11
REMARK    7  A    between atoms: C_13  and  C_15
REMARK                            x       y       z     vdW  Elec       q    Type
REMARK                         _______ _______ _______ _____ _____    ______ ____
ROOT
ATOM      1  N   UNL     1       0.715   1.238   0.000  0.00  0.00    -0.264 N 
ATOM      2  C   UNL     1       0.000   0.825   0.000  0.00  0.00    +0.354 A 
ATOM      3  O   UNL     1      -0.715   1.238   0.000  0.00  0.00    -0.244 OA
ATOM      4  N   UNL     1       0.000   0.000   0.000  0.00  0.00    -0.152 NA
ATOM      5  C   UNL     1       0.715  -0.412   0.000  0.00  0.00    +0.300 A 
ATOM      6  O   UNL     1       0.715  -1.238   0.000  0.00  0.00    -0.264 OA
ATOM      7  C   UNL     1       1.429   0.000   0.000  0.00  0.00    +0.146 A 
ATOM      8  C   UNL     1       1.429   0.825   0.000  0.00  0.00    +0.173 A 
ATOM      9  N   UNL     1       2.143   1.238   0.000  0.00  0.00    -0.107 NA
ENDROOT
BRANCH   7  10
ATOM     10  N   UNL     1       2.143  -0.412   0.000  0.00  0.00    -0.250 N 
ATOM     11  C   UNL     1       2.858   0.000   0.000  0.00  0.00    +0.229 C 
ATOM     12  O   UNL     1       2.858   0.825   0.000  0.00  0.00    -0.275 OA
BRANCH  11  13
ATOM     13  C   UNL     1       3.572  -0.412   0.000  0.00  0.00    +0.069 C 
ATOM     14  C   UNL     1       4.287  -0.825   0.000  0.00  0.00    +0.009 C 
ATOM     15  C   UNL     1       3.985   0.302   0.000  0.00  0.00    +0.009 C 
ATOM     16  C   UNL     1       3.160  -1.127   0.000  0.00  0.00    +0.009 C 
ENDBRANCH  11  13
BRANCH  10  17
ATOM     17  C   UNL     1       2.143  -1.238   0.000  0.00  0.00    +0.130 C 
BRANCH  17  18
ATOM     18  C   UNL     1       2.858  -1.650   0.000  0.00  0.00    +0.164 C 
BRANCH  18  19
ATOM     19  O   UNL     1       2.858  -2.475   0.000  0.00  0.00    -0.349 OA
ATOM     20  C   UNL     1       3.572  -2.888   0.000  0.00  0.00    +0.174 C 
ENDBRANCH  18  19
ENDBRANCH  17  18
ENDBRANCH  10  17
ENDBRANCH   7  10
BRANCH   1  21
ATOM     21  C   UNL     1       0.715   2.062   0.000  0.00  0.00    +0.112 C 
BRANCH  21  23
ATOM     22  C   UNL     1       0.000   3.300   0.000  0.00  0.00    +0.002 C 
ATOM     23  C   UNL     1       0.000   2.475   0.000  0.00  0.00    +0.025 C 
ENDBRANCH  21  23
ENDBRANCH   1  21
TORSDOF 7
