REMARK  Name = 
REMARK  3 active torsions:
REMARK  status: ('A' for Active; 'I' for Inactive)
REMARK    1  A    between atoms: S_2  and  C_3
REMARK    2  A    between atoms: C_3  and  C_5
REMARK    3  A    between atoms: N_7  and  C_8
REMARK                            x       y       z     vdW  Elec       q    Type
REMARK                         _______ _______ _______ _____ _____    ______ ____
ROOT
ATOM      1  C   UNL     1       3.572  -5.362   0.000  0.00  0.00    +0.093 A 
ATOM      2  C   UNL     1       3.572  -6.188   0.000  0.00  0.00    +0.117 A 
ATOM      3  N   UNL     1       4.287  -6.600   0.000  0.00  0.00    -0.228 NA
ATOM      4  C   UNL     1       5.001  -6.188   0.000  0.00  0.00    +0.132 A 
ATOM      5  N   UNL     1       5.716  -6.600   0.000  0.00  0.00    -0.288 N 
ATOM      6  C   UNL     1       5.716  -7.425   0.000  0.00  0.00    +0.122 C 
ATOM      7  C   UNL     1       6.430  -7.838   0.000  0.00  0.00    +0.135 C 
ATOM      8  C   UNL     1       6.430  -8.662   0.000  0.00  0.00    +0.034 C 
ATOM      9  O   UNL     1       7.145  -7.425   0.000  0.00  0.00    -0.355 OA
ATOM     10  C   UNL     1       7.145  -6.600   0.000  0.00  0.00    +0.135 C 
ATOM     11  C   UNL     1       7.859  -6.188   0.000  0.00  0.00    +0.034 C 
ATOM     12  C   UNL     1       6.430  -6.188   0.000  0.00  0.00    +0.122 C 
ATOM     13  C   UNL     1       5.001  -5.362   0.000  0.00  0.00    +0.036 A 
ATOM     14  C   UNL     1       4.287  -4.950   0.000  0.00  0.00    +0.021 A 
ENDROOT
BRANCH   1  16
ATOM     15  C   UNL     1       2.143  -5.362   0.000  0.00  0.00    +0.255 C 
ATOM     16  N   UNL     1       2.858  -4.950   0.000  0.00  0.00    -0.177 NA
ATOM     17  O   UNL     1       2.143  -6.188   0.000  0.00  0.00    -0.272 OA
BRANCH  15  18
ATOM     18  C   UNL     1       1.429  -4.950   0.000  0.00  0.00    +0.126 C 
ATOM     19  C   UNL     1       1.429  -4.125   0.000  0.00  0.00    +0.021 C 
BRANCH  18  21
ATOM     20  C   UNL     1       0.000  -4.950   0.000  0.00  0.00    +0.070 C 
ATOM     21  S   UNL     1       0.715  -5.362   0.000  0.00  0.00    -0.131 S 
ENDBRANCH  18  21
ENDBRANCH  15  18
ENDBRANCH   1  16
TORSDOF 3
