REMARK  Name = 
REMARK  2 active torsions:
REMARK  status: ('A' for Active; 'I' for Inactive)
REMARK    1  A    between atoms: N_8  and  C_9
REMARK    2  A    between atoms: C_9  and  C_10
REMARK                            x       y       z     vdW  Elec       q    Type
REMARK                         _______ _______ _______ _____ _____    ______ ____
ROOT
ATOM      1 CL   UNL     1       0.000   0.000   0.000  0.00  0.00    +0.000 Cl
ENDROOT
TORSDOF 0
REMARK  Name = 
REMARK  2 active torsions:
REMARK  status: ('A' for Active; 'I' for Inactive)
REMARK    1  A    between atoms: N_8  and  C_9
REMARK    2  A    between atoms: C_9  and  C_10
REMARK                            x       y       z     vdW  Elec       q    Type
REMARK                         _______ _______ _______ _____ _____    ______ ____
ROOT
ATOM      1 CL   UNL     1       2.004   0.000   0.000  0.00  0.00    +0.000 Cl
ENDROOT
TORSDOF 0
REMARK  Name = 
REMARK  2 active torsions:
REMARK  status: ('A' for Active; 'I' for Inactive)
REMARK    1  A    between atoms: N_8  and  C_9
REMARK    2  A    between atoms: C_9  and  C_10
REMARK                            x       y       z     vdW  Elec       q    Type
REMARK                         _______ _______ _______ _____ _____    ______ ____
ROOT
ATOM      1  C   UNL     1       0.929  -1.650   0.000  0.00  0.00    +0.054 C 
ATOM      2  C   UNL     1       0.929  -2.475   0.000  0.00  0.00    +0.080 A 
ATOM      3  N   UNL     1       0.262  -2.960   0.000  0.00  0.00    -0.174 NA
ATOM      4  N   UNL     1       0.517  -3.744   0.000  0.00  0.00    -0.254 N 
ATOM      5  C   UNL     1       1.342  -3.744   0.000  0.00  0.00    +0.057 A 
ATOM      6  C   UNL     1       1.827  -4.412   0.000  0.00  0.00    +0.052 C 
ATOM      7  C   UNL     1       1.597  -2.960   0.000  0.00  0.00    +0.031 A 
ENDROOT
BRANCH   4   8
ATOM      8  C   UNL     1       0.032  -4.412   0.000  0.00  0.00    +0.144 C 
BRANCH   8   9
ATOM      9  C   UNL     1      -0.789  -4.326   0.000  0.00  0.00    +0.097 C 
ATOM     10  N   UNL     1      -1.201  -3.611   0.000  0.00  0.00    -0.217 NA
ATOM     11  C   UNL     1      -2.008  -3.783   0.000  0.00  0.00    +0.089 C 
ATOM     12  C   UNL     1      -2.094  -4.603   0.000  0.00  0.00    +0.020 C 
ATOM     13  C   UNL     1      -1.341  -4.939   0.000  0.00  0.00    +0.021 C 
ENDBRANCH   8   9
ENDBRANCH   4   8
TORSDOF 2
