REMARK  Name = 
REMARK  2 active torsions:
REMARK  status: ('A' for Active; 'I' for Inactive)
REMARK    1  A    between atoms: C_2  and  C_3
REMARK    2  A    between atoms: C_3  and  N_4
REMARK                            x       y       z     vdW  Elec       q    Type
REMARK                         _______ _______ _______ _____ _____    ______ ____
ROOT
ATOM      1  N   UNL     1       1.139  -1.365   0.000  0.00  0.00    -0.259 N 
ATOM      2  C   UNL     1       1.923  -1.110   0.000  0.00  0.00    +0.100 A 
ATOM      3  C   UNL     1       1.923  -0.285   0.000  0.00  0.00    +0.166 A 
ATOM      4  C   UNL     1       2.638   0.127   0.000  0.00  0.00    +0.039 A 
ATOM      5  C   UNL     1       3.352  -0.285   0.000  0.00  0.00    +0.003 A 
ATOM      6  C   UNL     1       3.352  -1.110   0.000  0.00  0.00    +0.002 A 
ATOM      7  O   UNL     1       1.139  -0.030   0.000  0.00  0.00    -0.407 OA
ATOM      8  C   UNL     1       2.638  -1.523   0.000  0.00  0.00    +0.020 A 
ATOM      9  C   UNL     1       0.654  -0.698   0.000  0.00  0.00    +0.422 A 
ATOM     10  O   UNL     1      -0.171  -0.698   0.000  0.00  0.00    -0.223 OA
ENDROOT
BRANCH   1  11
ATOM     11  C   UNL     1       0.884  -2.150   0.000  0.00  0.00    +0.148 C 
BRANCH  11  13
ATOM     12  O   UNL     1      -0.178  -3.106   0.000  0.00  0.00    -0.218 OA
ATOM     13  C   UNL     1       0.077  -2.321   0.000  0.00  0.00    +0.207 C 
ENDBRANCH  11  13
ENDBRANCH   1  11
TORSDOF 2
