REMARK  Name = 
REMARK  7 active torsions:
REMARK  status: ('A' for Active; 'I' for Inactive)
REMARK    1  A    between atoms: C_2  and  C_5
REMARK    2  A    between atoms: N_10  and  C_11
REMARK    3  A    between atoms: C_11  and  C_12
REMARK    4  A    between atoms: C_12  and  C_14
REMARK    5  A    between atoms: C_14  and  O_15
REMARK    6  A    between atoms: O_15  and  C_16
REMARK    7  A    between atoms: C_16  and  C_17
REMARK                            x       y       z     vdW  Elec       q    Type
REMARK                         _______ _______ _______ _____ _____    ______ ____
ROOT
ATOM      1  C   UNL     1       2.143  -3.712   0.000  0.00  0.00    +0.166 C 
ENDROOT
BRANCH   1   4
ATOM      2  C   UNL     1       0.715  -5.362   0.000  0.00  0.00    +0.078 A 
ATOM      3  N   UNL     1       1.429  -4.950   0.000  0.00  0.00    -0.171 NA
ATOM      4  N   UNL     1       1.429  -4.125   0.000  0.00  0.00    -0.214 N 
ATOM      5  C   UNL     1       0.715  -3.712   0.000  0.00  0.00    +0.277 A 
ATOM      6  O   UNL     1       0.715  -2.888   0.000  0.00  0.00    -0.266 OA
ATOM      7  C   UNL     1       0.000  -4.125   0.000  0.00  0.00    +0.063 A 
ATOM      8  C   UNL     1       0.000  -4.950   0.000  0.00  0.00    +0.021 A 
BRANCH   2  10
ATOM      9  C   UNL     1       0.715  -7.013   0.000  0.00  0.00    +0.006 C 
ATOM     10  C   UNL     1       0.715  -6.188   0.000  0.00  0.00    +0.037 C 
ATOM     11  C   UNL     1      -0.111  -6.188   0.000  0.00  0.00    +0.006 C 
ATOM     12  C   UNL     1       1.540  -6.188   0.000  0.00  0.00    +0.006 C 
ENDBRANCH   2  10
ENDBRANCH   1   4
BRANCH   1  13
ATOM     13  C   UNL     1       2.858  -4.125   0.000  0.00  0.00    +0.206 C 
ATOM     14  O   UNL     1       2.858  -4.950   0.000  0.00  0.00    -0.218 OA
BRANCH  13  15
ATOM     15  C   UNL     1       3.572  -3.712   0.000  0.00  0.00    +0.177 C 
BRANCH  15  16
ATOM     16  O   UNL     1       4.287  -4.125   0.000  0.00  0.00    -0.346 OA
BRANCH  16  17
ATOM     17  C   UNL     1       5.001  -3.712   0.000  0.00  0.00    +0.169 C 
BRANCH  17  18
ATOM     18  C   UNL     1       5.716  -4.125   0.000  0.00  0.00    +0.007 A 
ATOM     19  C   UNL     1       5.716  -4.950   0.000  0.00  0.00    -0.002 A 
ATOM     20  C   UNL     1       6.430  -5.362   0.000  0.00  0.00    -0.000 A 
ATOM     21  C   UNL     1       7.145  -4.950   0.000  0.00  0.00    -0.000 A 
ATOM     22  C   UNL     1       7.145  -4.125   0.000  0.00  0.00    -0.000 A 
ATOM     23  C   UNL     1       6.430  -3.712   0.000  0.00  0.00    -0.002 A 
ENDBRANCH  17  18
ENDBRANCH  16  17
ENDBRANCH  15  16
ENDBRANCH  13  15
ENDBRANCH   1  13
TORSDOF 7
