REMARK  Name = 
REMARK  5 active torsions:
REMARK  status: ('A' for Active; 'I' for Inactive)
REMARK    1  A    between atoms: C_2  and  N_6
REMARK    2  A    between atoms: N_3  and  C_14
REMARK    3  A    between atoms: C_8  and  C_13
REMARK    4  A    between atoms: C_14  and  C_16
REMARK    5  A    between atoms: C_16  and  C_23
REMARK                            x       y       z     vdW  Elec       q    Type
REMARK                         _______ _______ _______ _____ _____    ______ ____
ROOT
ATOM      1  C   UNL     1       2.562   0.825   0.000  0.00  0.00    +0.149 A 
ATOM      2  N   UNL     1       1.779   1.083   0.000  0.00  0.00    -0.219 NA
ATOM      3  C   UNL     1       1.292   0.412   0.000  0.00  0.00    +0.180 A 
ATOM      4  N   UNL     1       1.779  -0.254   0.000  0.00  0.00    -0.294 N 
ATOM      5  C   UNL     1       2.562   0.000   0.000  0.00  0.00    +0.167 A 
ATOM      6  N   UNL     1       3.275  -0.412   0.000  0.00  0.00    -0.205 NA
ATOM      7  C   UNL     1       3.992   0.000   0.000  0.00  0.00    +0.201 A 
ATOM      8  N   UNL     1       3.992   0.825   0.000  0.00  0.00    -0.207 NA
ATOM      9  C   UNL     1       3.275   1.238   0.000  0.00  0.00    +0.154 A 
ENDROOT
BRANCH   9  10
ATOM     10  N   UNL     1       3.275   2.062   0.000  0.00  0.00    -0.294 N 
ATOM     11  C   UNL     1       3.992   2.475   0.000  0.00  0.00    +0.092 C 
ATOM     12  C   UNL     1       3.992   3.300   0.000  0.00  0.00    +0.030 C 
ATOM     13  C   UNL     1       3.275   3.712   0.000  0.00  0.00    +0.098 C 
ATOM     14  C   UNL     1       2.562   3.300   0.000  0.00  0.00    +0.028 C 
ATOM     15  C   UNL     1       2.562   2.475   0.000  0.00  0.00    +0.075 C 
ATOM     16  C   UNL     1       1.850   2.062   0.000  0.00  0.00    +0.021 C 
BRANCH  13  17
ATOM     17  C   UNL     1       3.275   4.533   0.000  0.00  0.00    +0.398 C 
ATOM     18  F   UNL     1       2.450   4.533   0.000  0.00  0.00    -0.170 F 
ATOM     19  F   UNL     1       4.100   4.533   0.000  0.00  0.00    -0.170 F 
ATOM     20  F   UNL     1       3.275   5.358   0.000  0.00  0.00    -0.170 F 
ENDBRANCH  13  17
ENDBRANCH   9  10
BRANCH   4  21
ATOM     21  C   UNL     1       1.521  -1.038   0.000  0.00  0.00    +0.112 C 
BRANCH  21  22
ATOM     22  C   UNL     1       0.717  -1.208   0.000  0.00  0.00    +0.056 C 
ATOM     23  C   UNL     1       1.025  -1.975   0.000  0.00  0.00    +0.037 C 
ATOM     24  C   UNL     1       0.517  -2.625   0.000  0.00  0.00    +0.142 C 
ATOM     25  O   UNL     1      -0.300  -2.508   0.000  0.00  0.00    -0.354 OA
ATOM     26  C   UNL     1      -0.608  -1.746   0.000  0.00  0.00    +0.142 C 
ATOM     27  C   UNL     1      -0.100  -1.096   0.000  0.00  0.00    +0.037 C 
BRANCH  22  28
ATOM     28  C   UNL     1       0.688  -0.383   0.000  0.00  0.00    +0.184 C 
ATOM     29  O   UNL     1      -0.042   0.004   0.000  0.00  0.00    -0.220 OA
ENDBRANCH  22  28
ENDBRANCH  21  22
ENDBRANCH   4  21
TORSDOF 5
