REMARK  Name = 
REMARK  4 active torsions:
REMARK  status: ('A' for Active; 'I' for Inactive)
REMARK    1  A    between atoms: N_1  and  C_9
REMARK    2  A    between atoms: C_7  and  C_15
REMARK    3  A    between atoms: C_14  and  C_22
REMARK    4  A    between atoms: C_14  and  C_23
REMARK                            x       y       z     vdW  Elec       q    Type
REMARK                         _______ _______ _______ _____ _____    ______ ____
ROOT
ATOM      1  N   UNL     1       1.138  -1.363   0.000  0.00  0.00    -0.296 N 
ATOM      2  C   UNL     1       0.650  -0.696   0.000  0.00  0.00    +0.180 A 
ATOM      3  N   UNL     1       1.138  -0.029   0.000  0.00  0.00    -0.219 NA
ATOM      4  C   UNL     1       1.921  -0.283   0.000  0.00  0.00    +0.149 A 
ATOM      5  C   UNL     1       2.638   0.129   0.000  0.00  0.00    +0.154 A 
ATOM      6  N   UNL     1       3.350  -0.283   0.000  0.00  0.00    -0.207 NA
ATOM      7  C   UNL     1       3.350  -1.108   0.000  0.00  0.00    +0.201 A 
ATOM      8  N   UNL     1       2.638  -1.521   0.000  0.00  0.00    -0.205 NA
ATOM      9  N   UNL     1       2.638   0.954   0.000  0.00  0.00    -0.286 N 
ATOM     10  C   UNL     1       3.221   1.538   0.000  0.00  0.00    +0.130 C 
ATOM     11  C   UNL     1       2.638   2.121   0.000  0.00  0.00    +0.224 C 
ATOM     12  O   UNL     1       2.054   2.704   0.000  0.00  0.00    -0.216 OA
ATOM     13  C   UNL     1       2.054   1.538   0.000  0.00  0.00    +0.130 C 
ATOM     14  C   UNL     1       1.921  -1.108   0.000  0.00  0.00    +0.167 A 
ENDROOT
BRANCH   1  15
ATOM     15  C   UNL     1       0.883  -2.150   0.000  0.00  0.00    +0.089 C 
ATOM     16  C   UNL     1       0.146  -2.521   0.000  0.00  0.00    +0.028 C 
ATOM     17  C   UNL     1       0.521  -3.259   0.000  0.00  0.00    +0.065 C 
ATOM     18  C   UNL     1       1.254  -2.884   0.000  0.00  0.00    +0.028 C 
BRANCH  17  19
ATOM     19  C   UNL     1       0.896  -3.992   0.000  0.00  0.00    +0.185 C 
ATOM     20  O   UNL     1       1.721  -4.038   0.000  0.00  0.00    -0.220 OA
ENDBRANCH  17  19
BRANCH  17  21
ATOM     21  C   UNL     1      -0.212  -3.634   0.000  0.00  0.00    +0.185 C 
ATOM     22  O   UNL     1      -0.904  -3.184   0.000  0.00  0.00    -0.220 OA
ENDBRANCH  17  21
ENDBRANCH   1  15
BRANCH  11  23
ATOM     23  C   UNL     1       3.221   2.704   0.000  0.00  0.00    +0.349 C 
ATOM     24  F   UNL     1       4.017   2.492   0.000  0.00  0.00    -0.196 F 
ATOM     25  F   UNL     1       3.005   3.500   0.000  0.00  0.00    -0.196 F 
ENDBRANCH  11  23
TORSDOF 4
