REMARK  Name = 
REMARK  5 active torsions:
REMARK  status: ('A' for Active; 'I' for Inactive)
REMARK    1  A    between atoms: O_2  and  C_3
REMARK    2  A    between atoms: C_3  and  C_4
REMARK    3  A    between atoms: N_8  and  C_9
REMARK    4  A    between atoms: C_9  and  C_10
REMARK    5  A    between atoms: N_12  and  C_13
REMARK                            x       y       z     vdW  Elec       q    Type
REMARK                         _______ _______ _______ _____ _____    ______ ____
ROOT
ATOM      1  C   UNL     1      -2.143  -3.712   0.000  0.00  0.00    +0.197 C 
ENDROOT
BRANCH   1   5
ATOM      2  C   UNL     1      -2.143  -1.238   0.000  0.00  0.00    +0.095 A 
ATOM      3  N   UNL     1      -2.858  -1.650   0.000  0.00  0.00    -0.227 NA
ATOM      4  C   UNL     1      -2.858  -2.475   0.000  0.00  0.00    +0.181 A 
ATOM      5  N   UNL     1      -2.143  -2.888   0.000  0.00  0.00    -0.269 N 
ATOM      6  C   UNL     1      -1.429  -2.475   0.000  0.00  0.00    +0.264 A 
ATOM      7  O   UNL     1      -0.715  -2.888   0.000  0.00  0.00    -0.267 OA
ATOM      8  C   UNL     1      -1.429  -1.650   0.000  0.00  0.00    +0.078 A 
BRANCH   2   9
ATOM      9  C   UNL     1      -2.143  -0.412   0.000  0.00  0.00    +0.188 C 
BRANCH   9  11
ATOM     10  C   UNL     1      -2.858   0.825   0.000  0.00  0.00    +0.175 C 
ATOM     11  O   UNL     1      -2.858   0.000   0.000  0.00  0.00    -0.345 OA
ENDBRANCH   9  11
ENDBRANCH   2   9
ENDBRANCH   1   5
BRANCH   1  12
ATOM     12  C   UNL     1      -2.858  -4.125   0.000  0.00  0.00    +0.265 C 
ATOM     13  N   UNL     1      -2.858  -4.950   0.000  0.00  0.00    -0.206 NA
ATOM     14  O   UNL     1      -3.572  -3.712   0.000  0.00  0.00    -0.271 OA
BRANCH  13  15
ATOM     15  C   UNL     1      -2.143  -5.362   0.000  0.00  0.00    +0.095 C 
ATOM     16  C   UNL     1      -2.143  -6.188   0.000  0.00  0.00    +0.020 C 
ATOM     17  C   UNL     1      -2.858  -6.600   0.000  0.00  0.00    +0.002 C 
ATOM     18  C   UNL     1      -1.429  -6.600   0.000  0.00  0.00    +0.002 C 
ATOM     19  C   UNL     1      -1.429  -7.425   0.000  0.00  0.00    +0.000 C 
ATOM     20  C   UNL     1      -0.715  -6.188   0.000  0.00  0.00    +0.000 C 
ATOM     21  C   UNL     1      -0.715  -5.362   0.000  0.00  0.00    +0.002 C 
ATOM     22  C   UNL     1      -1.429  -4.950   0.000  0.00  0.00    +0.022 C 
ENDBRANCH  13  15
ENDBRANCH   1  12
TORSDOF 5
