REMARK  Name = 
REMARK  4 active torsions:
REMARK  status: ('A' for Active; 'I' for Inactive)
REMARK    1  A    between atoms: C_2  and  C_3
REMARK    2  A    between atoms: N_7  and  C_8
REMARK    3  A    between atoms: C_8  and  C_9
REMARK    4  A    between atoms: N_11  and  C_12
REMARK                            x       y       z     vdW  Elec       q    Type
REMARK                         _______ _______ _______ _____ _____    ______ ____
ROOT
ATOM      1  C   UNL     1      -0.240  -2.695   0.000  0.00  0.00    +0.266 C 
ATOM      2  N   UNL     1      -1.025  -2.440   0.000  0.00  0.00    -0.206 NA
ATOM      3  O   UNL     1       0.373  -2.143   0.000  0.00  0.00    -0.271 OA
ENDROOT
BRANCH   2   4
ATOM      4  C   UNL     1      -1.196  -1.633   0.000  0.00  0.00    +0.095 C 
ATOM      5  C   UNL     1      -0.516  -1.166   0.000  0.00  0.00    +0.022 C 
ATOM      6  C   UNL     1      -0.366  -0.354   0.000  0.00  0.00    +0.002 C 
ATOM      7  C   UNL     1      -0.833   0.326   0.000  0.00  0.00    +0.000 C 
ATOM      8  C   UNL     1      -1.644   0.476   0.000  0.00  0.00    +0.000 C 
ATOM      9  C   UNL     1      -2.324   0.009   0.000  0.00  0.00    +0.000 C 
ATOM     10  C   UNL     1      -2.475  -0.803   0.000  0.00  0.00    +0.002 C 
ATOM     11  C   UNL     1      -2.007  -1.482   0.000  0.00  0.00    +0.022 C 
ENDBRANCH   2   4
BRANCH   1  12
ATOM     12  C   UNL     1      -0.068  -3.502   0.000  0.00  0.00    +0.217 C 
BRANCH  12  14
ATOM     13  C   UNL     1       1.384  -3.272   0.000  0.00  0.00    +0.161 A 
ATOM     14  N   UNL     1       0.716  -3.757   0.000  0.00  0.00    -0.208 N 
ATOM     15  N   UNL     1       0.971  -4.541   0.000  0.00  0.00    -0.043 NA
ATOM     16  N   UNL     1       1.796  -4.541   0.000  0.00  0.00    -0.023 NA
ATOM     17  N   UNL     1       2.051  -3.757   0.000  0.00  0.00    -0.113 NA
BRANCH  13  19
ATOM     18  C   UNL     1       2.098  -2.034   0.000  0.00  0.00    +0.008 C 
ATOM     19  C   UNL     1       1.384  -2.447   0.000  0.00  0.00    +0.067 C 
ENDBRANCH  13  19
ENDBRANCH  12  14
ENDBRANCH   1  12
TORSDOF 4
