REMARK  Name = 
REMARK  5 active torsions:
REMARK  status: ('A' for Active; 'I' for Inactive)
REMARK    1  A    between atoms: C_2  and  C_3
REMARK    2  A    between atoms: C_2  and  N_9
REMARK    3  A    between atoms: C_3  and  N_4
REMARK    4  A    between atoms: N_12  and  C_14
REMARK    5  A    between atoms: C_14  and  C_15
REMARK                            x       y       z     vdW  Elec       q    Type
REMARK                         _______ _______ _______ _____ _____    ______ ____
ROOT
ATOM      1  N   UNL     1       2.858  -4.125   0.000  0.00  0.00    -0.188 NA
ATOM      2  C   UNL     1       3.572  -3.712   0.000  0.00  0.00    +0.323 C 
ATOM      3  N   UNL     1       4.287  -4.125   0.000  0.00  0.00    -0.261 N 
ATOM      4  C   UNL     1       4.287  -4.950   0.000  0.00  0.00    +0.116 C 
ATOM      5  O   UNL     1       3.572  -2.888   0.000  0.00  0.00    -0.251 OA
ENDROOT
BRANCH   1   7
ATOM      6  C   UNL     1       2.143  -2.888   0.000  0.00  0.00    +0.026 C 
ATOM      7  C   UNL     1       2.143  -3.712   0.000  0.00  0.00    +0.121 C 
BRANCH   7   8
ATOM      8  C   UNL     1       1.429  -4.125   0.000  0.00  0.00    +0.151 C 
BRANCH   8   9
ATOM      9  N   UNL     1       0.715  -3.712   0.000  0.00  0.00    -0.228 N 
ATOM     10  N   UNL     1       0.628  -2.892   0.000  0.00  0.00    -0.145 NA
ATOM     11  C   UNL     1      -0.179  -2.720   0.000  0.00  0.00    +0.221 A 
ATOM     12  N   UNL     1      -0.591  -3.435   0.000  0.00  0.00    -0.201 NA
ATOM     13  C   UNL     1      -0.039  -4.048   0.000  0.00  0.00    +0.197 A 
ENDBRANCH   8   9
ENDBRANCH   7   8
ENDBRANCH   1   7
BRANCH   3  14
ATOM     14  C   UNL     1       5.001  -3.712   0.000  0.00  0.00    +0.098 C 
BRANCH  14  15
ATOM     15  C   UNL     1       5.716  -4.125   0.000  0.00  0.00    +0.050 C 
ATOM     16  C   UNL     1       5.716  -4.950   0.000  0.00  0.00    +0.154 C 
ATOM     17  O   UNL     1       5.001  -5.362   0.000  0.00  0.00    -0.223 OA
ATOM     18  C   UNL     1       6.430  -5.362   0.000  0.00  0.00    +0.033 C 
ATOM     19  C   UNL     1       7.145  -4.950   0.000  0.00  0.00    +0.003 C 
ATOM     20  C   UNL     1       7.145  -4.125   0.000  0.00  0.00    +0.000 C 
ATOM     21  C   UNL     1       6.430  -3.712   0.000  0.00  0.00    +0.004 C 
ENDBRANCH  14  15
ENDBRANCH   3  14
TORSDOF 5
