REMARK  Name = 
REMARK  4 active torsions:
REMARK  status: ('A' for Active; 'I' for Inactive)
REMARK    1  A    between atoms: C_4  and  C_5
REMARK    2  A    between atoms: C_5  and  C_6
REMARK    3  A    between atoms: C_6  and  N_7
REMARK    4  A    between atoms: N_10  and  C_11
REMARK                            x       y       z     vdW  Elec       q    Type
REMARK                         _______ _______ _______ _____ _____    ______ ____
ROOT
ATOM      1  N   UNL     1       1.874  -3.835   0.000  0.00  0.00    -0.187 NA
ATOM      2  C   UNL     1       2.589  -3.422   0.000  0.00  0.00    +0.339 C 
ATOM      3  N   UNL     1       3.303  -3.835   0.000  0.00  0.00    -0.187 NA
ATOM      4  O   UNL     1       2.589  -2.598   0.000  0.00  0.00    -0.249 OA
ENDROOT
BRANCH   3   5
ATOM      5  C   UNL     1       4.018  -3.422   0.000  0.00  0.00    +0.122 C 
ATOM      6  C   UNL     1       4.771  -3.758   0.000  0.00  0.00    +0.172 C 
ATOM      7  S   UNL     1       5.323  -3.145   0.000  0.00  0.00    -0.008 S 
ATOM      8  O   UNL     1       5.875  -3.758   0.000  0.00  0.00    -0.173 OA
ATOM      9  O   UNL     1       5.991  -2.660   0.000  0.00  0.00    -0.173 OA
ATOM     10  C   UNL     1       4.911  -2.430   0.000  0.00  0.00    +0.153 C 
ATOM     11  C   UNL     1       4.104  -2.602   0.000  0.00  0.00    +0.049 C 
ENDBRANCH   3   5
BRANCH   1  12
ATOM     12  C   UNL     1       1.160  -3.422   0.000  0.00  0.00    +0.122 C 
BRANCH  12  13
ATOM     13  C   UNL     1       0.445  -3.835   0.000  0.00  0.00    +0.053 C 
BRANCH  13  18
ATOM     14  C   UNL     1      -1.498  -1.677   0.000  0.00  0.00    +0.154 C 
ATOM     15  N   UNL     1      -1.162  -2.430   0.000  0.00  0.00    -0.248 N 
ATOM     16  N   UNL     1      -1.575  -3.145   0.000  0.00  0.00    -0.168 NA
ATOM     17  C   UNL     1      -1.023  -3.758   0.000  0.00  0.00    +0.117 A 
ATOM     18  C   UNL     1      -0.269  -3.422   0.000  0.00  0.00    +0.019 A 
ATOM     19  C   UNL     1      -0.355  -2.602   0.000  0.00  0.00    +0.092 A 
ENDBRANCH  13  18
ENDBRANCH  12  13
ENDBRANCH   1  12
TORSDOF 4
