REMARK  Name = 
REMARK  4 active torsions:
REMARK  status: ('A' for Active; 'I' for Inactive)
REMARK    1  A    between atoms: C_2  and  C_3
REMARK    2  A    between atoms: C_3  and  N_4
REMARK    3  A    between atoms: C_7  and  C_8
REMARK    4  A    between atoms: N_11  and  C_12
REMARK                            x       y       z     vdW  Elec       q    Type
REMARK                         _______ _______ _______ _____ _____    ______ ____
ROOT
ATOM      1  O   UNL     1      -1.708  -2.045   0.000  0.00  0.00    -0.271 OA
ATOM      2  C   UNL     1      -0.994  -1.633   0.000  0.00  0.00    +0.266 C 
ATOM      3  N   UNL     1      -0.994  -0.808   0.000  0.00  0.00    -0.204 NA
ENDROOT
BRANCH   3   4
ATOM      4  C   UNL     1      -1.708  -0.395   0.000  0.00  0.00    +0.121 C 
ATOM      5  C   UNL     1      -1.794   0.425   0.000  0.00  0.00    +0.172 C 
ATOM      6  S   UNL     1      -2.601   0.597   0.000  0.00  0.00    -0.008 S 
ATOM      7  O   UNL     1      -2.346   1.381   0.000  0.00  0.00    -0.173 OA
ATOM      8  O   UNL     1      -3.355   0.932   0.000  0.00  0.00    -0.173 OA
ATOM      9  C   UNL     1      -3.014  -0.118   0.000  0.00  0.00    +0.153 C 
ATOM     10  C   UNL     1      -2.462  -0.731   0.000  0.00  0.00    +0.049 C 
ENDBRANCH   3   4
BRANCH   2  11
ATOM     11  C   UNL     1      -0.279  -2.045   0.000  0.00  0.00    +0.215 C 
BRANCH  11  12
ATOM     12  N   UNL     1      -0.279  -2.870   0.000  0.00  0.00    -0.220 N 
ATOM     13  N   UNL     1      -0.947  -3.355   0.000  0.00  0.00    -0.137 NA
ATOM     14  C   UNL     1      -0.692  -4.140   0.000  0.00  0.00    +0.252 A 
ATOM     15  N   UNL     1       0.133  -4.140   0.000  0.00  0.00    -0.195 NA
ATOM     16  C   UNL     1       0.388  -3.355   0.000  0.00  0.00    +0.198 A 
BRANCH  14  17
ATOM     17  C   UNL     1      -1.177  -4.807   0.000  0.00  0.00    +0.142 C 
ATOM     18  N   UNL     1      -1.661  -5.474   0.000  0.00  0.00    -0.188 NA
ENDBRANCH  14  17
ENDBRANCH  11  12
ENDBRANCH   2  11
TORSDOF 4
