REMARK  Name = 
REMARK  2 active torsions:
REMARK  status: ('A' for Active; 'I' for Inactive)
REMARK    1  A    between atoms: C_2  and  C_3
REMARK    2  A    between atoms: C_3  and  N_4
REMARK                            x       y       z     vdW  Elec       q    Type
REMARK                         _______ _______ _______ _____ _____    ______ ____
ROOT
ATOM      1  N   UNL     1       0.000  -2.475   0.000  0.00  0.00    -0.184 NA
ATOM      2  C   UNL     1       0.715  -2.062   0.000  0.00  0.00    +0.345 C 
ATOM      3  N   UNL     1       1.429  -2.475   0.000  0.00  0.00    -0.142 NA
ATOM      4  C   UNL     1       2.143  -2.062   0.000  0.00  0.00    +0.156 A 
ATOM      5  N   UNL     1       2.858  -2.475   0.000  0.00  0.00    -0.225 NA
ATOM      6  C   UNL     1       3.572  -2.062   0.000  0.00  0.00    +0.130 A 
ATOM      7  C   UNL     1       3.572  -1.238   0.000  0.00  0.00    +0.159 A 
ATOM      8  F   UNL     1       4.287  -0.825   0.000  0.00  0.00    -0.203 F 
ATOM      9  C   UNL     1       2.858  -0.825   0.000  0.00  0.00    +0.034 A 
ATOM     10  C   UNL     1       2.143  -1.238   0.000  0.00  0.00    +0.039 A 
ATOM     11  O   UNL     1       0.715  -1.238   0.000  0.00  0.00    -0.249 OA
ENDROOT
BRANCH   1  12
ATOM     12  C   UNL     1      -0.715  -2.062   0.000  0.00  0.00    +0.147 C 
BRANCH  12  14
ATOM     13  O   UNL     1      -0.899  -3.107   0.000  0.00  0.00    -0.224 OA
ATOM     14  C   UNL     1      -1.429  -2.475   0.000  0.00  0.00    +0.147 C 
ATOM     15  C   UNL     1      -1.711  -1.700   0.000  0.00  0.00    +0.032 C 
ATOM     16  C   UNL     1      -2.524  -1.556   0.000  0.00  0.00    +0.003 C 
ATOM     17  C   UNL     1      -3.054  -2.188   0.000  0.00  0.00    +0.000 C 
ATOM     18  C   UNL     1      -2.772  -2.964   0.000  0.00  0.00    +0.003 C 
ATOM     19  C   UNL     1      -1.959  -3.107   0.000  0.00  0.00    +0.032 C 
ENDBRANCH  12  14
ENDBRANCH   1  12
TORSDOF 2
