REMARK  Name = 
REMARK  2 active torsions:
REMARK  status: ('A' for Active; 'I' for Inactive)
REMARK    1  A    between atoms: C_5  and  N_8
REMARK    2  A    between atoms: N_11  and  C_12
REMARK                            x       y       z     vdW  Elec       q    Type
REMARK                         _______ _______ _______ _____ _____    ______ ____
ROOT
ATOM      1  N   UNL     1       2.037   6.828   0.000  0.00  0.00    -0.189 NA
ATOM      2  C   UNL     1       2.037   6.003   0.000  0.00  0.00    +0.344 C 
ATOM      3  N   UNL     1       2.751   5.590   0.000  0.00  0.00    -0.158 NA
ATOM      4  O   UNL     1       1.322   5.590   0.000  0.00  0.00    -0.249 OA
ENDROOT
BRANCH   1   9
ATOM      5  O   UNL     1      -0.821   8.478   0.000  0.00  0.00    -0.223 OA
ATOM      6  C   UNL     1      -0.107   8.065   0.000  0.00  0.00    +0.152 C 
ATOM      7  C   UNL     1      -0.107   7.240   0.000  0.00  0.00    +0.035 C 
ATOM      8  C   UNL     1       0.608   6.828   0.000  0.00  0.00    +0.024 C 
ATOM      9  C   UNL     1       1.322   7.240   0.000  0.00  0.00    +0.097 C 
ATOM     10  C   UNL     1       1.322   8.065   0.000  0.00  0.00    +0.024 C 
ATOM     11  C   UNL     1       0.608   8.478   0.000  0.00  0.00    +0.035 C 
ENDBRANCH   1   9
BRANCH   3  12
ATOM     12  C   UNL     1       2.751   4.765   0.000  0.00  0.00    +0.117 A 
ATOM     13  C   UNL     1       2.084   4.280   0.000  0.00  0.00    +0.140 A 
ATOM     14  N   UNL     1       2.339   3.496   0.000  0.00  0.00    -0.145 NA
ATOM     15  N   UNL     1       3.164   3.496   0.000  0.00  0.00    -0.145 NA
ATOM     16  C   UNL     1       3.419   4.280   0.000  0.00  0.00    +0.140 A 
ENDBRANCH   3  12
TORSDOF 2
