REMARK  Name = 
REMARK  8 active torsions:
REMARK  status: ('A' for Active; 'I' for Inactive)
REMARK    1  A    between atoms: N_1  and  C_2
REMARK    2  A    between atoms: C_10  and  O_12
REMARK    3  A    between atoms: C_11  and  C_17
REMARK    4  A    between atoms: O_12  and  C_14
REMARK    5  A    between atoms: C_14  and  C_23
REMARK    6  A    between atoms: C_15  and  O_20
REMARK    7  A    between atoms: C_15  and  C_24
REMARK    8  A    between atoms: C_17  and  O_20
REMARK                            x       y       z     vdW  Elec       q    Type
REMARK                         _______ _______ _______ _____ _____    ______ ____
ROOT
ATOM      1  C   UNL     1      -0.325  -0.237   0.000  0.00  0.00    +0.223 C 
ATOM      2  O   UNL     1      -0.579  -1.021   0.000  0.00  0.00    -0.329 OA
ATOM      3  C   UNL     1       0.087  -1.508   0.000  0.00  0.00    +0.202 C 
ATOM      4  C   UNL     1       0.754  -1.021   0.000  0.00  0.00    +0.214 C 
ATOM      5  C   UNL     1       0.500  -0.237   0.000  0.00  0.00    +0.149 C 
ATOM      6 BR   UNL     1       0.983   0.429   0.000  0.00  0.00    -0.073 Br
ENDROOT
BRANCH   1   7
ATOM      7  N   UNL     1      -0.808   0.429   0.000  0.00  0.00    -0.252 N 
ATOM      8  C   UNL     1      -1.629   0.342   0.000  0.00  0.00    +0.117 A 
ATOM      9  C   UNL     1      -2.117   1.012   0.000  0.00  0.00    +0.215 A 
ATOM     10  C   UNL     1      -1.779   1.762   0.000  0.00  0.00    +0.312 A 
ATOM     11  O   UNL     1      -2.263   2.433   0.000  0.00  0.00    -0.263 OA
ATOM     12  N   UNL     1      -0.958   1.850   0.000  0.00  0.00    -0.151 NA
ATOM     13  F   UNL     1      -2.938   0.925   0.000  0.00  0.00    -0.197 F 
ATOM     14  C   UNL     1      -0.475   1.183   0.000  0.00  0.00    +0.355 A 
ATOM     15  O   UNL     1       0.346   1.271   0.000  0.00  0.00    -0.244 OA
ENDBRANCH   1   7
BRANCH   4  16
ATOM     16  O   UNL     1       1.542  -1.279   0.000  0.00  0.00    -0.449 OA
BRANCH  16  17
ATOM     17  C   UNL     1       1.712  -2.083   0.000  0.00  0.00    +0.317 C 
ATOM     18  O   UNL     1       2.496  -2.337   0.000  0.00  0.00    -0.250 OA
BRANCH  17  19
ATOM     19  C   UNL     1       1.100  -2.638   0.000  0.00  0.00    +0.110 C 
ATOM     20  C   UNL     1       1.271  -3.442   0.000  0.00  0.00    +0.012 C 
ENDBRANCH  17  19
ENDBRANCH  16  17
ENDBRANCH   4  16
BRANCH   3  21
ATOM     21  C   UNL     1       0.087  -2.333   0.000  0.00  0.00    +0.242 C 
BRANCH  21  22
ATOM     22  O   UNL     1      -0.625  -2.746   0.000  0.00  0.00    -0.446 OA
BRANCH  22  23
ATOM     23  C   UNL     1      -1.342  -2.333   0.000  0.00  0.00    +0.317 C 
ATOM     24  O   UNL     1      -1.342  -1.508   0.000  0.00  0.00    -0.250 OA
BRANCH  23  25
ATOM     25  C   UNL     1      -2.054  -2.746   0.000  0.00  0.00    +0.110 C 
ATOM     26  C   UNL     1      -2.771  -2.333   0.000  0.00  0.00    +0.012 C 
ENDBRANCH  23  25
ENDBRANCH  22  23
ENDBRANCH  21  22
ENDBRANCH   3  21
TORSDOF 8
