REMARK  Name = 
REMARK  4 active torsions:
REMARK  status: ('A' for Active; 'I' for Inactive)
REMARK    1  A    between atoms: C_2  and  C_5
REMARK    2  A    between atoms: N_9  and  C_10
REMARK    3  A    between atoms: C_10  and  C_11
REMARK    4  A    between atoms: N_13  and  C_14
REMARK                            x       y       z     vdW  Elec       q    Type
REMARK                         _______ _______ _______ _____ _____    ______ ____
ROOT
ATOM      1  C   UNL     1       3.719  -0.829   0.000  0.00  0.00    +0.127 A 
ATOM      2  C   UNL     1       4.054  -0.076   0.000  0.00  0.00    +0.265 A 
ATOM      3  O   UNL     1       4.875   0.011   0.000  0.00  0.00    -0.267 OA
ATOM      4  N   UNL     1       3.569   0.592   0.000  0.00  0.00    -0.285 N 
ATOM      5  C   UNL     1       2.749   0.506   0.000  0.00  0.00    +0.079 A 
ATOM      6  C   UNL     1       2.413  -0.248   0.000  0.00  0.00    +0.019 A 
ATOM      7  C   UNL     1       2.898  -0.915   0.000  0.00  0.00    +0.010 A 
ENDROOT
BRANCH   1   9
ATOM      8  F   UNL     1       4.688  -2.164   0.000  0.00  0.00    -0.166 F 
ATOM      9  C   UNL     1       4.203  -1.497   0.000  0.00  0.00    +0.423 C 
ATOM     10  F   UNL     1       3.536  -1.982   0.000  0.00  0.00    -0.166 F 
ATOM     11  F   UNL     1       4.871  -1.012   0.000  0.00  0.00    -0.166 F 
ENDBRANCH   1   9
BRANCH   4  12
ATOM     12  C   UNL     1       3.905   1.345   0.000  0.00  0.00    +0.196 C 
BRANCH  12  13
ATOM     13  C   UNL     1       3.420   2.013   0.000  0.00  0.00    +0.265 C 
ATOM     14  N   UNL     1       3.755   2.767   0.000  0.00  0.00    -0.204 NA
ATOM     15  O   UNL     1       2.599   1.927   0.000  0.00  0.00    -0.271 OA
BRANCH  14  16
ATOM     16  C   UNL     1       3.270   3.434   0.000  0.00  0.00    +0.121 C 
ATOM     17  C   UNL     1       3.525   4.219   0.000  0.00  0.00    +0.172 C 
ATOM     18  S   UNL     1       2.858   4.704   0.000  0.00  0.00    -0.008 S 
ATOM     19  O   UNL     1       3.410   5.317   0.000  0.00  0.00    -0.173 OA
ATOM     20  O   UNL     1       2.306   5.317   0.000  0.00  0.00    -0.173 OA
ATOM     21  C   UNL     1       2.190   4.219   0.000  0.00  0.00    +0.153 C 
ATOM     22  C   UNL     1       2.445   3.434   0.000  0.00  0.00    +0.049 C 
ENDBRANCH  14  16
ENDBRANCH  12  13
ENDBRANCH   4  12
TORSDOF 4
