REMARK  Name = 
REMARK  5 active torsions:
REMARK  status: ('A' for Active; 'I' for Inactive)
REMARK    1  A    between atoms: N_1  and  C_8
REMARK    2  A    between atoms: N_4  and  C_6
REMARK    3  A    between atoms: C_10  and  N_15
REMARK    4  A    between atoms: C_16  and  C_21
REMARK    5  A    between atoms: C_16  and  C_22
REMARK                            x       y       z     vdW  Elec       q    Type
REMARK                         _______ _______ _______ _____ _____    ______ ____
ROOT
ATOM      1  N   UNL     1       1.780  -0.254   0.000  0.00  0.00    -0.296 N 
ATOM      2  C   UNL     1       1.292   0.413   0.000  0.00  0.00    +0.180 A 
ATOM      3  N   UNL     1       1.780   1.084   0.000  0.00  0.00    -0.219 NA
ATOM      4  C   UNL     1       2.563   0.825   0.000  0.00  0.00    +0.149 A 
ATOM      5  C   UNL     1       3.276   1.238   0.000  0.00  0.00    +0.154 A 
ATOM      6  N   UNL     1       3.993   0.825   0.000  0.00  0.00    -0.207 NA
ATOM      7  C   UNL     1       3.993   0.000   0.000  0.00  0.00    +0.201 A 
ATOM      8  N   UNL     1       3.276  -0.413   0.000  0.00  0.00    -0.205 NA
ATOM      9  C   UNL     1       2.563   0.000   0.000  0.00  0.00    +0.167 A 
ENDROOT
BRANCH   5  10
ATOM     10  N   UNL     1       3.276   2.063   0.000  0.00  0.00    -0.291 N 
ATOM     11  C   UNL     1       3.947   2.551   0.000  0.00  0.00    +0.094 C 
ATOM     12  C   UNL     1       3.688   3.334   0.000  0.00  0.00    +0.036 C 
ATOM     13  C   UNL     1       2.863   3.334   0.000  0.00  0.00    +0.079 C 
ATOM     14  C   UNL     1       4.176   4.001   0.000  0.00  0.00    +0.003 C 
ATOM     15  C   UNL     1       2.609   2.551   0.000  0.00  0.00    +0.108 C 
BRANCH  13  16
ATOM     16  N   UNL     1       2.380   4.001   0.000  0.00  0.00    -0.268 NA
ATOM     17  C   UNL     1       1.559   3.918   0.000  0.00  0.00    +0.105 C 
ATOM     18  C   UNL     1       1.075   4.580   0.000  0.00  0.00    +0.159 C 
ATOM     19  O   UNL     1       1.409   5.335   0.000  0.00  0.00    -0.351 OA
ATOM     20  C   UNL     1       2.230   5.418   0.000  0.00  0.00    +0.159 C 
ATOM     21  C   UNL     1       2.717   4.751   0.000  0.00  0.00    +0.105 C 
ENDBRANCH  13  16
ENDBRANCH   5  10
BRANCH   1  22
ATOM     22  C   UNL     1       1.521  -1.038   0.000  0.00  0.00    +0.089 C 
ATOM     23  C   UNL     1       0.788  -1.413   0.000  0.00  0.00    +0.028 C 
ATOM     24  C   UNL     1       1.163  -2.146   0.000  0.00  0.00    +0.065 C 
ATOM     25  C   UNL     1       1.896  -1.771   0.000  0.00  0.00    +0.028 C 
BRANCH  24  26
ATOM     26  C   UNL     1       1.538  -2.884   0.000  0.00  0.00    +0.185 C 
ATOM     27  O   UNL     1       2.363  -2.926   0.000  0.00  0.00    -0.220 OA
ENDBRANCH  24  26
BRANCH  24  28
ATOM     28  C   UNL     1       0.429  -2.521   0.000  0.00  0.00    +0.185 C 
ATOM     29  O   UNL     1      -0.267  -2.071   0.000  0.00  0.00    -0.220 OA
ENDBRANCH  24  28
ENDBRANCH   1  22
TORSDOF 5
