REMARK  Name = 
REMARK  4 active torsions:
REMARK  status: ('A' for Active; 'I' for Inactive)
REMARK    1  A    between atoms: C_5  and  N_9
REMARK    2  A    between atoms: N_9  and  C_10
REMARK    3  A    between atoms: C_10  and  C_11
REMARK    4  A    between atoms: C_11  and  C_12
REMARK                            x       y       z     vdW  Elec       q    Type
REMARK                         _______ _______ _______ _____ _____    ______ ____
ROOT
ATOM      1  N   UNL     1       2.037   6.828   0.000  0.00  0.00    -0.219 NA
ENDROOT
BRANCH   1   7
ATOM      2  C   UNL     1      -0.821   8.478   0.000  0.00  0.00    +0.000 C 
ATOM      3  C   UNL     1      -0.107   8.065   0.000  0.00  0.00    +0.000 C 
ATOM      4  C   UNL     1      -0.107   7.240   0.000  0.00  0.00    +0.001 C 
ATOM      5  C   UNL     1      -0.821   6.828   0.000  0.00  0.00    +0.000 C 
ATOM      6  C   UNL     1       0.608   6.828   0.000  0.00  0.00    +0.017 C 
ATOM      7  C   UNL     1       1.322   7.240   0.000  0.00  0.00    +0.073 C 
ATOM      8  C   UNL     1       1.322   8.065   0.000  0.00  0.00    +0.017 C 
ATOM      9  C   UNL     1       0.608   8.478   0.000  0.00  0.00    +0.001 C 
ENDBRANCH   1   7
BRANCH   1  10
ATOM     10  C   UNL     1       2.037   6.003   0.000  0.00  0.00    +0.095 C 
BRANCH  10  11
ATOM     11  C   UNL     1       2.751   5.590   0.000  0.00  0.00    +0.064 C 
BRANCH  11  12
ATOM     12  C   UNL     1       2.751   4.765   0.000  0.00  0.00    +0.059 A 
ATOM     13  N   UNL     1       2.084   4.280   0.000  0.00  0.00    -0.253 N 
ATOM     14  C   UNL     1       1.299   4.535   0.000  0.00  0.00    +0.153 C 
ATOM     15  N   UNL     1       2.339   3.496   0.000  0.00  0.00    -0.168 NA
ATOM     16  C   UNL     1       3.164   3.496   0.000  0.00  0.00    +0.121 A 
ATOM     17  C   UNL     1       3.419   4.280   0.000  0.00  0.00    +0.037 A 
ENDBRANCH  11  12
ENDBRANCH  10  11
ENDBRANCH   1  10
TORSDOF 4
