REMARK  Name = 
REMARK  5 active torsions:
REMARK  status: ('A' for Active; 'I' for Inactive)
REMARK    1  A    between atoms: C_2  and  C_5
REMARK    2  A    between atoms: C_10  and  C_11
REMARK    3  A    between atoms: C_11  and  N_12
REMARK    4  A    between atoms: C_13  and  C_15
REMARK    5  A    between atoms: C_15  and  N_16
REMARK                            x       y       z     vdW  Elec       q    Type
REMARK                         _______ _______ _______ _____ _____    ______ ____
ROOT
ATOM      1  C   UNL     1      -2.143  -1.238   0.000  0.00  0.00    +0.321 C 
ATOM      2  N   UNL     1      -1.429  -1.650   0.000  0.00  0.00    -0.273 N 
ATOM      3  C   UNL     1      -1.429  -2.475   0.000  0.00  0.00    +0.094 C 
ATOM      4  C   UNL     1      -0.715  -2.888   0.000  0.00  0.00    +0.023 C 
ATOM      5  C   UNL     1       0.000  -2.475   0.000  0.00  0.00    +0.025 C 
ATOM      6  C   UNL     1       0.000  -1.650   0.000  0.00  0.00    +0.023 C 
ATOM      7  C   UNL     1      -0.715  -1.238   0.000  0.00  0.00    +0.094 C 
ATOM      8  O   UNL     1      -2.143  -0.412   0.000  0.00  0.00    -0.266 OA
ENDROOT
BRANCH   1  10
ATOM      9  F   UNL     1      -3.572  -2.062   0.000  0.00  0.00    -0.162 F 
ATOM     10  C   UNL     1      -2.858  -1.650   0.000  0.00  0.00    +0.470 C 
ATOM     11  F   UNL     1      -3.270  -0.935   0.000  0.00  0.00    -0.162 F 
ATOM     12  F   UNL     1      -2.445  -2.365   0.000  0.00  0.00    -0.162 F 
ENDBRANCH   1  10
BRANCH   5  13
ATOM     13  C   UNL     1       0.715  -2.888   0.000  0.00  0.00    +0.115 C 
BRANCH  13  14
ATOM     14  N   UNL     1       1.429  -2.475   0.000  0.00  0.00    -0.204 NA
ATOM     15  C   UNL     1       2.143  -2.888   0.000  0.00  0.00    +0.265 C 
ATOM     16  O   UNL     1       2.143  -3.712   0.000  0.00  0.00    -0.271 OA
BRANCH  15  17
ATOM     17  C   UNL     1       2.858  -2.475   0.000  0.00  0.00    +0.196 C 
BRANCH  17  18
ATOM     18  N   UNL     1       3.572  -2.888   0.000  0.00  0.00    -0.285 N 
ATOM     19  C   UNL     1       3.572  -3.712   0.000  0.00  0.00    +0.261 A 
ATOM     20  O   UNL     1       2.858  -4.125   0.000  0.00  0.00    -0.267 OA
ATOM     21  C   UNL     1       4.287  -4.125   0.000  0.00  0.00    +0.061 A 
ATOM     22  C   UNL     1       5.001  -3.712   0.000  0.00  0.00    +0.006 A 
ATOM     23  C   UNL     1       5.001  -2.888   0.000  0.00  0.00    +0.019 A 
ATOM     24  C   UNL     1       4.287  -2.475   0.000  0.00  0.00    +0.079 A 
ENDBRANCH  17  18
ENDBRANCH  15  17
ENDBRANCH  13  14
ENDBRANCH   5  13
TORSDOF 5
