REMARK  Name = 
REMARK  4 active torsions:
REMARK  status: ('A' for Active; 'I' for Inactive)
REMARK    1  A    between atoms: C_2  and  C_3
REMARK    2  A    between atoms: C_3  and  C_4
REMARK    3  A    between atoms: C_4  and  N_5
REMARK    4  A    between atoms: C_11  and  O_12
REMARK                            x       y       z     vdW  Elec       q    Type
REMARK                         _______ _______ _______ _____ _____    ______ ____
ROOT
ATOM      1  N   UNL     1       1.429  -2.475   0.000  0.00  0.00    -0.187 NA
ATOM      2  C   UNL     1       2.143  -2.888   0.000  0.00  0.00    +0.345 C 
ATOM      3  N   UNL     1       2.858  -2.475   0.000  0.00  0.00    -0.142 NA
ATOM      4  C   UNL     1       3.572  -2.888   0.000  0.00  0.00    +0.162 A 
ATOM      5  N   UNL     1       3.572  -3.712   0.000  0.00  0.00    -0.207 NA
ATOM      6  C   UNL     1       4.287  -4.125   0.000  0.00  0.00    +0.203 A 
ATOM      7  N   UNL     1       5.001  -3.712   0.000  0.00  0.00    -0.189 NA
ATOM      8  C   UNL     1       5.001  -2.888   0.000  0.00  0.00    +0.229 A 
ATOM      9  C   UNL     1       4.287  -2.475   0.000  0.00  0.00    +0.094 A 
ATOM     10  O   UNL     1       2.143  -3.712   0.000  0.00  0.00    -0.249 OA
ENDROOT
BRANCH   8  11
ATOM     11  O   UNL     1       5.716  -2.475   0.000  0.00  0.00    -0.456 OA
ATOM     12  C   UNL     1       5.716  -1.650   0.000  0.00  0.00    +0.254 C 
ENDBRANCH   8  11
BRANCH   1  13
ATOM     13  C   UNL     1       0.715  -2.888   0.000  0.00  0.00    +0.117 C 
BRANCH  13  14
ATOM     14  C   UNL     1       0.000  -2.475   0.000  0.00  0.00    +0.020 C 
ATOM     15  C   UNL     1       0.282  -1.700   0.000  0.00  0.00    +0.002 C 
ATOM     16  C   UNL     1      -0.530  -1.843   0.000  0.00  0.00    +0.002 C 
BRANCH  14  18
ATOM     17  C   UNL     1      -0.248  -3.882   0.000  0.00  0.00    +0.000 C 
ATOM     18  C   UNL     1      -0.530  -3.107   0.000  0.00  0.00    +0.002 C 
ENDBRANCH  14  18
ENDBRANCH  13  14
ENDBRANCH   1  13
TORSDOF 4
