REMARK  Name = 
REMARK  6 active torsions:
REMARK  status: ('A' for Active; 'I' for Inactive)
REMARK    1  A    between atoms: S_2  and  N_5
REMARK    2  A    between atoms: N_5  and  C_6
REMARK    3  A    between atoms: C_6  and  C_7
REMARK    4  A    between atoms: N_15  and  C_16
REMARK    5  A    between atoms: C_16  and  C_17
REMARK    6  A    between atoms: C_17  and  C_18
REMARK                            x       y       z     vdW  Elec       q    Type
REMARK                         _______ _______ _______ _____ _____    ______ ____
ROOT
ATOM      1  C   UNL     1      -0.715  -2.888   0.000  0.00  0.00    +0.096 C 
ATOM      2  N   UNL     1       0.000  -2.475   0.000  0.00  0.00    -0.263 N 
ATOM      3  C   UNL     1       0.715  -2.888   0.000  0.00  0.00    +0.323 C 
ATOM      4  N   UNL     1       1.429  -2.475   0.000  0.00  0.00    -0.188 NA
ATOM      5  O   UNL     1       0.715  -3.712   0.000  0.00  0.00    -0.251 OA
ATOM      6  C   UNL     1       0.000  -1.650   0.000  0.00  0.00    +0.095 C 
ATOM      7  C   UNL     1      -0.715  -1.238   0.000  0.00  0.00    +0.022 C 
ATOM      8  C   UNL     1      -1.429  -1.650   0.000  0.00  0.00    +0.004 C 
ATOM      9  C   UNL     1      -1.429  -2.475   0.000  0.00  0.00    +0.021 C 
ENDROOT
BRANCH   1  10
ATOM     10  C   UNL     1      -0.715  -3.712   0.000  0.00  0.00    +0.135 C 
BRANCH  10  11
ATOM     11  N   UNL     1      -1.429  -4.125   0.000  0.00  0.00    -0.080 NA
BRANCH  11  13
ATOM     12  C   UNL     1      -1.429  -5.775   0.000  0.00  0.00    +0.197 C 
ATOM     13  S   UNL     1      -1.429  -4.950   0.000  0.00  0.00    +0.059 S 
ATOM     14  O   UNL     1      -2.254  -4.950   0.000  0.00  0.00    -0.156 OA
ATOM     15  O   UNL     1      -0.604  -4.950   0.000  0.00  0.00    -0.156 OA
ENDBRANCH  11  13
ENDBRANCH  10  11
ENDBRANCH   1  10
BRANCH   4  16
ATOM     16  C   UNL     1       2.143  -2.888   0.000  0.00  0.00    +0.123 C 
BRANCH  16  17
ATOM     17  C   UNL     1       2.858  -2.475   0.000  0.00  0.00    +0.069 C 
BRANCH  17  18
ATOM     18  C   UNL     1       3.572  -2.888   0.000  0.00  0.00    +0.061 A 
ATOM     19  N   UNL     1       3.572  -3.712   0.000  0.00  0.00    -0.248 NA
ATOM     20  C   UNL     1       4.287  -4.125   0.000  0.00  0.00    +0.098 A 
ATOM     21  C   UNL     1       5.001  -3.712   0.000  0.00  0.00    +0.021 A 
ATOM     22  C   UNL     1       5.001  -2.888   0.000  0.00  0.00    +0.003 A 
ATOM     23  C   UNL     1       4.287  -2.475   0.000  0.00  0.00    +0.015 A 
ENDBRANCH  17  18
ENDBRANCH  16  17
ENDBRANCH   4  16
TORSDOF 6
