REMARK  Name = 
REMARK  3 active torsions:
REMARK  status: ('A' for Active; 'I' for Inactive)
REMARK    1  A    between atoms: C_2  and  C_5
REMARK    2  A    between atoms: C_5  and  C_6
REMARK    3  A    between atoms: C_12  and  N_15
REMARK                            x       y       z     vdW  Elec       q    Type
REMARK                         _______ _______ _______ _____ _____    ______ ____
ROOT
ATOM      1  C   UNL     1       0.000   0.000   0.000  0.00  0.00    +0.247 C 
ATOM      2  N   UNL     1       0.715  -0.412   0.000  0.00  0.00    -0.160 NA
ATOM      3  C   UNL     1       0.715  -1.238   0.000  0.00  0.00    +0.155 A 
ATOM      4  N   UNL     1       0.000  -1.650   0.000  0.00  0.00    -0.226 NA
ATOM      5  C   UNL     1       0.000  -2.475   0.000  0.00  0.00    +0.115 A 
ATOM      6  C   UNL     1       0.715  -2.888   0.000  0.00  0.00    +0.068 A 
ATOM      7  C   UNL     1       1.429  -2.475   0.000  0.00  0.00    +0.019 A 
ATOM      8  C   UNL     1       1.429  -1.650   0.000  0.00  0.00    +0.037 A 
ATOM      9  O   UNL     1      -0.715  -0.412   0.000  0.00  0.00    -0.273 OA
ENDROOT
BRANCH   6  10
ATOM     10  N   UNL     1       0.715  -3.712   0.000  0.00  0.00    -0.302 N 
ATOM     11  C   UNL     1       0.000  -4.125   0.000  0.00  0.00    +0.123 C 
ATOM     12  C   UNL     1       0.000  -4.950   0.000  0.00  0.00    +0.164 C 
ATOM     13  O   UNL     1       0.715  -5.362   0.000  0.00  0.00    -0.350 OA
ATOM     14  C   UNL     1       1.429  -4.950   0.000  0.00  0.00    +0.164 C 
ATOM     15  C   UNL     1       1.429  -4.125   0.000  0.00  0.00    +0.123 C 
ENDBRANCH   6  10
BRANCH   1  16
ATOM     16  C   UNL     1       0.000   0.825   0.000  0.00  0.00    +0.087 C 
BRANCH  16  18
ATOM     17  C   UNL     1      -1.429   1.650   0.000  0.00  0.00    +0.000 C 
ATOM     18  C   UNL     1      -0.715   1.238   0.000  0.00  0.00    +0.009 C 
ATOM     19  C   UNL     1      -0.302   1.952   0.000  0.00  0.00    +0.000 C 
ATOM     20  C   UNL     1      -1.127   0.523   0.000  0.00  0.00    +0.000 C 
ENDBRANCH  16  18
ENDBRANCH   1  16
TORSDOF 3
