REMARK  Name = 
REMARK  6 active torsions:
REMARK  status: ('A' for Active; 'I' for Inactive)
REMARK    1  A    between atoms: N_5  and  C_6
REMARK    2  A    between atoms: C_6  and  C_7
REMARK    3  A    between atoms: C_7  and  C_9
REMARK    4  A    between atoms: C_9  and  O_10
REMARK    5  A    between atoms: O_10  and  C_11
REMARK    6  A    between atoms: C_11  and  C_12
REMARK                            x       y       z     vdW  Elec       q    Type
REMARK                         _______ _______ _______ _____ _____    ______ ____
ROOT
ATOM      1  C   UNL     1       2.858  -4.125   0.000  0.00  0.00    +0.204 C 
ATOM      2  O   UNL     1       2.858  -4.950   0.000  0.00  0.00    -0.218 OA
ENDROOT
BRANCH   1   3
ATOM      3  C   UNL     1       2.143  -3.712   0.000  0.00  0.00    +0.146 C 
BRANCH   3  10
ATOM      4  C   UNL     1      -0.715  -5.362   0.000  0.00  0.00    +0.052 C 
ATOM      5  C   UNL     1       0.000  -4.950   0.000  0.00  0.00    +0.062 A 
ATOM      6  C   UNL     1       0.715  -5.362   0.000  0.00  0.00    +0.048 A 
ATOM      7  C   UNL     1       0.715  -6.188   0.000  0.00  0.00    +0.037 C 
ATOM      8  C   UNL     1       1.429  -4.950   0.000  0.00  0.00    +0.259 A 
ATOM      9  O   UNL     1       2.143  -5.362   0.000  0.00  0.00    -0.267 OA
ATOM     10  N   UNL     1       1.429  -4.125   0.000  0.00  0.00    -0.276 N 
ATOM     11  C   UNL     1       0.715  -3.712   0.000  0.00  0.00    +0.181 A 
ATOM     12  N   UNL     1       0.000  -4.125   0.000  0.00  0.00    -0.230 NA
ENDBRANCH   3  10
ENDBRANCH   1   3
BRANCH   1  13
ATOM     13  C   UNL     1       3.572  -3.712   0.000  0.00  0.00    +0.177 C 
BRANCH  13  14
ATOM     14  O   UNL     1       4.287  -4.125   0.000  0.00  0.00    -0.346 OA
BRANCH  14  15
ATOM     15  C   UNL     1       5.001  -3.712   0.000  0.00  0.00    +0.169 C 
BRANCH  15  16
ATOM     16  C   UNL     1       5.716  -4.125   0.000  0.00  0.00    +0.007 A 
ATOM     17  C   UNL     1       5.716  -4.950   0.000  0.00  0.00    -0.001 A 
ATOM     18  C   UNL     1       6.430  -5.362   0.000  0.00  0.00    +0.011 A 
ATOM     19  C   UNL     1       7.145  -4.950   0.000  0.00  0.00    +0.058 A 
ATOM     20 CL   UNL     1       7.859  -5.362   0.000  0.00  0.00    -0.082 Cl
ATOM     21  C   UNL     1       7.145  -4.125   0.000  0.00  0.00    +0.011 A 
ATOM     22  C   UNL     1       6.430  -3.712   0.000  0.00  0.00    -0.001 A 
ENDBRANCH  15  16
ENDBRANCH  14  15
ENDBRANCH  13  14
ENDBRANCH   1  13
TORSDOF 6
