REMARK  Name = 
REMARK  5 active torsions:
REMARK  status: ('A' for Active; 'I' for Inactive)
REMARK    1  A    between atoms: O_2  and  C_3
REMARK    2  A    between atoms: C_3  and  C_4
REMARK    3  A    between atoms: C_4  and  C_5
REMARK    4  A    between atoms: C_5  and  C_6
REMARK    5  A    between atoms: N_8  and  C_9
REMARK                            x       y       z     vdW  Elec       q    Type
REMARK                         _______ _______ _______ _____ _____    ______ ____
ROOT
ATOM      1  C   UNL     1       5.716  -6.600   0.000  0.00  0.00    +0.093 A 
ATOM      2  C   UNL     1       5.716  -7.425   0.000  0.00  0.00    +0.117 A 
ATOM      3  N   UNL     1       6.430  -7.838   0.000  0.00  0.00    -0.228 NA
ATOM      4  C   UNL     1       7.145  -7.425   0.000  0.00  0.00    +0.132 A 
ATOM      5  N   UNL     1       7.859  -7.838   0.000  0.00  0.00    -0.288 N 
ATOM      6  C   UNL     1       7.859  -8.662   0.000  0.00  0.00    +0.122 C 
ATOM      7  C   UNL     1       8.574  -9.075   0.000  0.00  0.00    +0.135 C 
ATOM      8  C   UNL     1       8.574  -9.900   0.000  0.00  0.00    +0.034 C 
ATOM      9  O   UNL     1       9.288  -8.662   0.000  0.00  0.00    -0.355 OA
ATOM     10  C   UNL     1       9.288  -7.838   0.000  0.00  0.00    +0.135 C 
ATOM     11  C   UNL     1      10.003  -7.425   0.000  0.00  0.00    +0.034 C 
ATOM     12  C   UNL     1       8.574  -7.425   0.000  0.00  0.00    +0.122 C 
ATOM     13  C   UNL     1       7.145  -6.600   0.000  0.00  0.00    +0.036 A 
ATOM     14  C   UNL     1       6.430  -6.188   0.000  0.00  0.00    +0.021 A 
ENDROOT
BRANCH   1  16
ATOM     15  C   UNL     1       4.287  -6.600   0.000  0.00  0.00    +0.246 C 
ATOM     16  N   UNL     1       5.001  -6.188   0.000  0.00  0.00    -0.178 NA
ATOM     17  O   UNL     1       4.287  -7.425   0.000  0.00  0.00    -0.273 OA
BRANCH  15  18
ATOM     18  C   UNL     1       3.572  -6.188   0.000  0.00  0.00    +0.090 C 
BRANCH  18  19
ATOM     19  C   UNL     1       2.858  -6.600   0.000  0.00  0.00    +0.042 C 
BRANCH  19  20
ATOM     20  C   UNL     1       2.143  -6.188   0.000  0.00  0.00    +0.143 C 
BRANCH  20  22
ATOM     21  C   UNL     1       0.715  -6.188   0.000  0.00  0.00    +0.174 C 
ATOM     22  O   UNL     1       1.429  -6.600   0.000  0.00  0.00    -0.351 OA
ENDBRANCH  20  22
ENDBRANCH  19  20
ENDBRANCH  18  19
ENDBRANCH  15  18
ENDBRANCH   1  16
TORSDOF 5
