REMARK  Name = 
REMARK  4 active torsions:
REMARK  status: ('A' for Active; 'I' for Inactive)
REMARK    1  A    between atoms: C_2  and  C_3
REMARK    2  A    between atoms: C_3  and  N_4
REMARK    3  A    between atoms: C_7  and  C_8
REMARK    4  A    between atoms: N_11  and  C_12
REMARK                            x       y       z     vdW  Elec       q    Type
REMARK                         _______ _______ _______ _____ _____    ______ ____
ROOT
ATOM      1  O   UNL     1       4.180  -1.712   0.000  0.00  0.00    -0.271 OA
ATOM      2  C   UNL     1       3.466  -1.299   0.000  0.00  0.00    +0.266 C 
ATOM      3  N   UNL     1       3.466  -0.474   0.000  0.00  0.00    -0.206 NA
ENDROOT
BRANCH   3   4
ATOM      4  C   UNL     1       4.180  -0.062   0.000  0.00  0.00    +0.095 C 
ATOM      5  C   UNL     1       4.895  -0.474   0.000  0.00  0.00    +0.022 C 
ATOM      6  C   UNL     1       5.609  -0.062   0.000  0.00  0.00    +0.002 C 
ATOM      7  C   UNL     1       5.609   0.763   0.000  0.00  0.00    +0.000 C 
ATOM      8  C   UNL     1       4.895   1.176   0.000  0.00  0.00    +0.002 C 
ATOM      9  C   UNL     1       4.180   0.763   0.000  0.00  0.00    +0.022 C 
ENDBRANCH   3   4
BRANCH   2  10
ATOM     10  C   UNL     1       2.751  -1.712   0.000  0.00  0.00    +0.215 C 
BRANCH  10  11
ATOM     11  N   UNL     1       2.751  -2.537   0.000  0.00  0.00    -0.220 N 
ATOM     12  N   UNL     1       2.084  -3.022   0.000  0.00  0.00    -0.137 NA
ATOM     13  C   UNL     1       2.339  -3.806   0.000  0.00  0.00    +0.252 A 
ATOM     14  N   UNL     1       3.164  -3.806   0.000  0.00  0.00    -0.195 NA
ATOM     15  C   UNL     1       3.419  -3.022   0.000  0.00  0.00    +0.198 A 
BRANCH  13  16
ATOM     16  C   UNL     1       1.854  -4.474   0.000  0.00  0.00    +0.142 C 
ATOM     17  N   UNL     1       1.369  -5.141   0.000  0.00  0.00    -0.188 NA
ENDBRANCH  13  16
ENDBRANCH  10  11
ENDBRANCH   2  10
TORSDOF 4
