REMARK  Name = 
REMARK  5 active torsions:
REMARK  status: ('A' for Active; 'I' for Inactive)
REMARK    1  A    between atoms: N_5  and  C_6
REMARK    2  A    between atoms: C_6  and  C_7
REMARK    3  A    between atoms: N_9  and  C_10
REMARK    4  A    between atoms: C_10  and  C_11
REMARK    5  A    between atoms: C_18  and  C_19
REMARK                            x       y       z     vdW  Elec       q    Type
REMARK                         _______ _______ _______ _____ _____    ______ ____
ROOT
ATOM      1  C   UNL     1      -3.572   3.712   0.000  0.00  0.00    +0.032 C 
ATOM      2  C   UNL     1      -2.858   3.300   0.000  0.00  0.00    -0.006 A 
ATOM      3  C   UNL     1      -2.858   2.475   0.000  0.00  0.00    +0.121 A 
ATOM      4  C   UNL     1      -2.143   2.062   0.000  0.00  0.00    +0.271 A 
ATOM      5  O   UNL     1      -2.143   1.238   0.000  0.00  0.00    -0.266 OA
ATOM      6  N   UNL     1      -1.429   2.475   0.000  0.00  0.00    -0.285 N 
ATOM      7  C   UNL     1      -1.429   3.300   0.000  0.00  0.00    +0.079 A 
ATOM      8  C   UNL     1      -2.143   3.712   0.000  0.00  0.00    +0.015 A 
ENDROOT
BRANCH   3   9
ATOM      9  C   UNL     1      -3.572   2.062   0.000  0.00  0.00    +0.105 C 
ATOM     10  N   UNL     1      -4.287   1.650   0.000  0.00  0.00    -0.191 NA
ENDBRANCH   3   9
BRANCH   6  11
ATOM     11  C   UNL     1      -0.715   2.062   0.000  0.00  0.00    +0.196 C 
BRANCH  11  12
ATOM     12  C   UNL     1       0.000   2.475   0.000  0.00  0.00    +0.265 C 
ATOM     13  N   UNL     1       0.715   2.062   0.000  0.00  0.00    -0.201 NA
ATOM     14  O   UNL     1       0.000   3.300   0.000  0.00  0.00    -0.271 OA
BRANCH  13  15
ATOM     15  C   UNL     1       1.429   2.475   0.000  0.00  0.00    +0.145 C 
BRANCH  15  16
ATOM     16  C   UNL     1       2.143   2.062   0.000  0.00  0.00    +0.137 C 
ATOM     17  O   UNL     1       2.230   1.242   0.000  0.00  0.00    -0.354 OA
ATOM     18  C   UNL     1       3.037   1.071   0.000  0.00  0.00    +0.142 C 
ATOM     19  C   UNL     1       3.449   1.785   0.000  0.00  0.00    +0.035 C 
ATOM     20  C   UNL     1       2.897   2.398   0.000  0.00  0.00    +0.034 C 
ENDBRANCH  15  16
ENDBRANCH  13  15
ENDBRANCH  11  12
ENDBRANCH   6  11
TORSDOF 5
