REMARK  Name = 
REMARK  3 active torsions:
REMARK  status: ('A' for Active; 'I' for Inactive)
REMARK    1  A    between atoms: N_2  and  C_3
REMARK    2  A    between atoms: C_3  and  C_4
REMARK    3  A    between atoms: C_7  and  C_9
REMARK                            x       y       z     vdW  Elec       q    Type
REMARK                         _______ _______ _______ _____ _____    ______ ____
ROOT
ATOM      1  C   UNL     1       0.715  -4.537   0.000  0.00  0.00    +0.150 A 
ATOM      2  C   UNL     1       0.715  -5.362   0.000  0.00  0.00    +0.099 A 
ATOM      3 CL   UNL     1       0.000  -5.775   0.000  0.00  0.00    -0.079 Cl
ATOM      4  C   UNL     1       1.429  -5.775   0.000  0.00  0.00    +0.115 A 
ATOM      5  N   UNL     1       2.143  -5.362   0.000  0.00  0.00    -0.211 NA
ATOM      6  C   UNL     1       2.143  -4.537   0.000  0.00  0.00    +0.220 A 
ATOM      7  N   UNL     1       2.858  -4.125   0.000  0.00  0.00    -0.273 N 
ATOM      8  C   UNL     1       3.572  -4.537   0.000  0.00  0.00    +0.126 C 
ATOM      9  C   UNL     1       4.287  -4.125   0.000  0.00  0.00    +0.164 C 
ATOM     10  O   UNL     1       4.287  -3.300   0.000  0.00  0.00    -0.350 OA
ATOM     11  C   UNL     1       3.572  -2.888   0.000  0.00  0.00    +0.164 C 
ATOM     12  C   UNL     1       2.858  -3.300   0.000  0.00  0.00    +0.126 C 
ATOM     13  N   UNL     1       1.429  -4.125   0.000  0.00  0.00    -0.208 NA
ENDROOT
BRANCH   1  16
ATOM     14  C   UNL     1      -0.715  -5.362   0.000  0.00  0.00    +0.116 C 
ATOM     15  N   UNL     1      -0.715  -4.537   0.000  0.00  0.00    -0.265 N 
ATOM     16  C   UNL     1       0.000  -4.125   0.000  0.00  0.00    +0.268 C 
ATOM     17  O   UNL     1       0.000  -3.300   0.000  0.00  0.00    -0.268 OA
BRANCH  15  18
ATOM     18  C   UNL     1      -1.429  -4.125   0.000  0.00  0.00    +0.183 C 
BRANCH  18  19
ATOM     19  C   UNL     1      -2.143  -4.537   0.000  0.00  0.00    +0.281 C 
ATOM     20  N   UNL     1      -2.143  -5.362   0.000  0.00  0.00    -0.086 NA
ATOM     21  O   UNL     1      -2.858  -4.125   0.000  0.00  0.00    -0.270 OA
ENDBRANCH  18  19
ENDBRANCH  15  18
ENDBRANCH   1  16
TORSDOF 3
