REMARK  Name = 
REMARK  3 active torsions:
REMARK  status: ('A' for Active; 'I' for Inactive)
REMARK    1  A    between atoms: C_4  and  C_5
REMARK    2  A    between atoms: C_5  and  C_6
REMARK    3  A    between atoms: N_8  and  C_9
REMARK                            x       y       z     vdW  Elec       q    Type
REMARK                         _______ _______ _______ _____ _____    ______ ____
ROOT
ATOM      1  C   UNL     1       4.157  -4.302   0.000  0.00  0.00    +0.247 C 
ATOM      2  N   UNL     1       4.642  -4.970   0.000  0.00  0.00    -0.207 NA
ATOM      3  O   UNL     1       3.336  -4.388   0.000  0.00  0.00    -0.273 OA
ENDROOT
BRANCH   2   4
ATOM      4  C   UNL     1       4.306  -5.723   0.000  0.00  0.00    +0.095 C 
ATOM      5  C   UNL     1       3.499  -5.895   0.000  0.00  0.00    +0.022 C 
ATOM      6  C   UNL     1       3.413  -6.715   0.000  0.00  0.00    +0.002 C 
ATOM      7  C   UNL     1       4.167  -7.051   0.000  0.00  0.00    +0.002 C 
ATOM      8  C   UNL     1       4.719  -6.438   0.000  0.00  0.00    +0.022 C 
ENDBRANCH   2   4
BRANCH   1   9
ATOM      9  C   UNL     1       4.492  -3.548   0.000  0.00  0.00    +0.133 C 
BRANCH   9  14
ATOM     10  C   UNL     1       3.595  -0.786   0.000  0.00  0.00    +0.059 C 
ATOM     11  C   UNL     1       3.595  -1.611   0.000  0.00  0.00    +0.088 A 
ATOM     12  S   UNL     1       2.928  -2.096   0.000  0.00  0.00    -0.071 S 
ATOM     13  C   UNL     1       3.182  -2.881   0.000  0.00  0.00    +0.052 A 
ATOM     14  C   UNL     1       4.007  -2.881   0.000  0.00  0.00    +0.075 A 
ATOM     15  N   UNL     1       4.262  -2.096   0.000  0.00  0.00    -0.247 NA
ENDBRANCH   9  14
ENDBRANCH   1   9
TORSDOF 3
