REMARK  Name = 
REMARK  5 active torsions:
REMARK  status: ('A' for Active; 'I' for Inactive)
REMARK    1  A    between atoms: N_7  and  C_8
REMARK    2  A    between atoms: C_8  and  C_9
REMARK    3  A    between atoms: C_9  and  N_10
REMARK    4  A    between atoms: C_11  and  C_13
REMARK    5  A    between atoms: C_13  and  C_14
REMARK                            x       y       z     vdW  Elec       q    Type
REMARK                         _______ _______ _______ _____ _____    ______ ____
ROOT
ATOM      1  N   UNL     1       3.572  -0.412   0.000  0.00  0.00    -0.204 NA
ATOM      2  C   UNL     1       4.287   0.000   0.000  0.00  0.00    +0.246 C 
ATOM      3  O   UNL     1       4.287   0.825   0.000  0.00  0.00    -0.273 OA
ENDROOT
BRANCH   1   4
ATOM      4  C   UNL     1       2.858   0.000   0.000  0.00  0.00    +0.132 C 
BRANCH   4   5
ATOM      5  C   UNL     1       2.143  -0.412   0.000  0.00  0.00    +0.096 C 
BRANCH   5   8
ATOM      6  C   UNL     1       0.715  -1.238   0.000  0.00  0.00    +0.017 C 
ATOM      7  C   UNL     1       0.715  -0.412   0.000  0.00  0.00    +0.058 C 
ATOM      8  N   UNL     1       1.429   0.000   0.000  0.00  0.00    -0.272 NA
ATOM      9  C   UNL     1       1.429   0.825   0.000  0.00  0.00    +0.072 C 
ATOM     10  C   UNL     1       0.715   1.238   0.000  0.00  0.00    +0.017 C 
ATOM     11  C   UNL     1       0.000   0.825   0.000  0.00  0.00    +0.003 C 
ATOM     12  C   UNL     1       0.000   0.000   0.000  0.00  0.00    +0.016 C 
ENDBRANCH   5   8
ENDBRANCH   4   5
ENDBRANCH   1   4
BRANCH   2  13
ATOM     13  C   UNL     1       5.001  -0.412   0.000  0.00  0.00    +0.115 C 
BRANCH  13  14
ATOM     14  C   UNL     1       5.716   0.000   0.000  0.00  0.00    +0.015 A 
ATOM     15  C   UNL     1       6.469  -0.336   0.000  0.00  0.00    +0.054 A 
ATOM     16  C   UNL     1       6.641  -1.143   0.000  0.00  0.00    +0.051 C 
ATOM     17  N   UNL     1       7.021   0.278   0.000  0.00  0.00    -0.253 N 
ATOM     18  C   UNL     1       7.842   0.191   0.000  0.00  0.00    +0.153 C 
ATOM     19  N   UNL     1       6.609   0.992   0.000  0.00  0.00    -0.174 NA
ATOM     20  C   UNL     1       5.802   0.821   0.000  0.00  0.00    +0.077 A 
ATOM     21  C   UNL     1       5.189   1.373   0.000  0.00  0.00    +0.054 C 
ENDBRANCH  13  14
ENDBRANCH   2  13
TORSDOF 5
