REMARK  Name = 
REMARK  4 active torsions:
REMARK  status: ('A' for Active; 'I' for Inactive)
REMARK    1  A    between atoms: C_2  and  N_3
REMARK    2  A    between atoms: N_3  and  C_4
REMARK    3  A    between atoms: C_7  and  C_9
REMARK    4  A    between atoms: C_9  and  C_10
REMARK                            x       y       z     vdW  Elec       q    Type
REMARK                         _______ _______ _______ _____ _____    ______ ____
ROOT
ATOM      1  C   UNL     1       5.216  -3.497   0.000  0.00  0.00    +0.077 A 
ATOM      2  N   UNL     1       5.970  -3.833   0.000  0.00  0.00    -0.228 NA
ATOM      3  C   UNL     1       6.522  -3.220   0.000  0.00  0.00    +0.170 A 
ATOM      4  N   UNL     1       7.342  -3.306   0.000  0.00  0.00    -0.220 N 
ATOM      5  C   UNL     1       7.755  -4.021   0.000  0.00  0.00    +0.329 C 
ATOM      6  O   UNL     1       7.419  -4.774   0.000  0.00  0.00    -0.250 OA
ATOM      7  N   UNL     1       8.562  -3.849   0.000  0.00  0.00    -0.186 NA
ATOM      8  C   UNL     1       8.648  -3.029   0.000  0.00  0.00    +0.139 C 
ATOM      9  C   UNL     1       7.894  -2.693   0.000  0.00  0.00    +0.125 C 
ATOM     10  S   UNL     1       6.109  -2.505   0.000  0.00  0.00    -0.051 S 
ATOM     11  C   UNL     1       5.303  -2.677   0.000  0.00  0.00    +0.053 A 
ENDROOT
BRANCH   1  12
ATOM     12  C   UNL     1       4.502  -3.910   0.000  0.00  0.00    +0.131 C 
BRANCH  12  14
ATOM     13  N   UNL     1       3.073  -3.910   0.000  0.00  0.00    -0.281 N 
ATOM     14  C   UNL     1       3.787  -3.497   0.000  0.00  0.00    +0.232 C 
ATOM     15  O   UNL     1       3.787  -2.672   0.000  0.00  0.00    -0.274 OA
BRANCH  13  16
ATOM     16  C   UNL     1       3.073  -4.735   0.000  0.00  0.00    +0.075 C 
ATOM     17  C   UNL     1       2.660  -5.449   0.000  0.00  0.00    +0.022 C 
ATOM     18  C   UNL     1       3.485  -5.449   0.000  0.00  0.00    +0.022 C 
ENDBRANCH  13  16
BRANCH  13  20
ATOM     19  C   UNL     1       1.644  -3.910   0.000  0.00  0.00    +0.023 C 
ATOM     20  C   UNL     1       2.358  -3.497   0.000  0.00  0.00    +0.093 C 
ENDBRANCH  13  20
ENDBRANCH  12  14
ENDBRANCH   1  12
TORSDOF 4
