REMARK  Name = 
REMARK  3 active torsions:
REMARK  status: ('A' for Active; 'I' for Inactive)
REMARK    1  A    between atoms: N_3  and  C_4
REMARK    2  A    between atoms: C_7  and  C_10
REMARK    3  A    between atoms: N_18  and  C_19
REMARK                            x       y       z     vdW  Elec       q    Type
REMARK                         _______ _______ _______ _____ _____    ______ ____
ROOT
ATOM      1  C   UNL     1       2.858  -2.475   0.000  0.00  0.00    +0.097 C 
ATOM      2  C   UNL     1       2.143  -2.888   0.000  0.00  0.00    +0.022 C 
ATOM      3  C   UNL     1       2.143  -3.712   0.000  0.00  0.00    +0.011 C 
ATOM      4  C   UNL     1       2.858  -4.125   0.000  0.00  0.00    +0.077 C 
ATOM      5  C   UNL     1       3.572  -3.712   0.000  0.00  0.00    +0.011 C 
ATOM      6  C   UNL     1       3.572  -2.888   0.000  0.00  0.00    +0.022 C 
ENDROOT
BRANCH   4   7
ATOM      7  C   UNL     1       2.858  -4.950   0.000  0.00  0.00    +0.225 C 
ATOM      8  N   UNL     1       2.143  -5.362   0.000  0.00  0.00    -0.278 N 
ATOM      9  C   UNL     1       1.429  -4.950   0.000  0.00  0.00    +0.105 C 
ATOM     10  C   UNL     1       0.715  -5.362   0.000  0.00  0.00    +0.079 C 
ATOM     11  S   UNL     1       0.715  -6.188   0.000  0.00  0.00    -0.137 S 
ATOM     12  C   UNL     1       1.429  -6.600   0.000  0.00  0.00    +0.079 C 
ATOM     13  C   UNL     1       2.143  -6.188   0.000  0.00  0.00    +0.105 C 
ATOM     14  O   UNL     1       3.572  -5.362   0.000  0.00  0.00    -0.275 OA
ENDBRANCH   4   7
BRANCH   1  18
ATOM     15  O   UNL     1       4.287  -1.650   0.000  0.00  0.00    -0.249 OA
ATOM     16  C   UNL     1       3.572  -1.238   0.000  0.00  0.00    +0.343 C 
ATOM     17  N   UNL     1       3.572  -0.412   0.000  0.00  0.00    -0.161 NA
ATOM     18  N   UNL     1       2.858  -1.650   0.000  0.00  0.00    -0.189 NA
BRANCH  17  19
ATOM     19  C   UNL     1       4.287   0.000   0.000  0.00  0.00    +0.078 A 
ATOM     20  C   UNL     1       5.001  -0.412   0.000  0.00  0.00    +0.037 A 
ATOM     21  C   UNL     1       5.716   0.000   0.000  0.00  0.00    +0.100 A 
ATOM     22  N   UNL     1       5.716   0.825   0.000  0.00  0.00    -0.242 NA
ATOM     23  C   UNL     1       5.001   1.238   0.000  0.00  0.00    +0.100 A 
ATOM     24  C   UNL     1       4.287   0.825   0.000  0.00  0.00    +0.037 A 
ENDBRANCH  17  19
ENDBRANCH   1  18
TORSDOF 3
