REMARK  Name = 
REMARK  3 active torsions:
REMARK  status: ('A' for Active; 'I' for Inactive)
REMARK    1  A    between atoms: N_3  and  C_4
REMARK    2  A    between atoms: C_4  and  C_5
REMARK    3  A    between atoms: C_5  and  C_6
REMARK                            x       y       z     vdW  Elec       q    Type
REMARK                         _______ _______ _______ _____ _____    ______ ____
ROOT
ATOM      1  O   UNL     1       0.352  -3.117   0.000  0.00  0.00    -0.251 OA
ATOM      2  C   UNL     1       0.352  -2.292   0.000  0.00  0.00    +0.323 C 
ATOM      3  N   UNL     1      -0.363  -1.880   0.000  0.00  0.00    -0.263 N 
ATOM      4  C   UNL     1      -0.301  -1.057   0.000  0.00  0.00    +0.095 C 
ATOM      5  C   UNL     1      -0.906  -0.496   0.000  0.00  0.00    +0.022 C 
ATOM      6  C   UNL     1      -1.722  -0.619   0.000  0.00  0.00    +0.002 C 
ATOM      7  C   UNL     1      -2.134  -1.333   0.000  0.00  0.00    +0.002 C 
ATOM      8  C   UNL     1      -1.833  -2.101   0.000  0.00  0.00    +0.022 C 
ATOM      9  C   UNL     1      -1.044  -2.345   0.000  0.00  0.00    +0.095 C 
ATOM     10  N   UNL     1       1.066  -1.880   0.000  0.00  0.00    -0.188 NA
ENDROOT
BRANCH  10  11
ATOM     11  C   UNL     1       1.781  -2.292   0.000  0.00  0.00    +0.123 C 
BRANCH  11  12
ATOM     12  C   UNL     1       2.495  -1.880   0.000  0.00  0.00    +0.069 C 
BRANCH  12  13
ATOM     13  C   UNL     1       3.210  -2.292   0.000  0.00  0.00    +0.061 A 
ATOM     14  N   UNL     1       3.210  -3.117   0.000  0.00  0.00    -0.248 NA
ATOM     15  C   UNL     1       3.924  -3.530   0.000  0.00  0.00    +0.098 A 
ATOM     16  C   UNL     1       4.639  -3.117   0.000  0.00  0.00    +0.021 A 
ATOM     17  C   UNL     1       4.639  -2.292   0.000  0.00  0.00    +0.003 A 
ATOM     18  C   UNL     1       3.924  -1.880   0.000  0.00  0.00    +0.015 A 
ENDBRANCH  12  13
ENDBRANCH  11  12
ENDBRANCH  10  11
TORSDOF 3
