REMARK  Name = 
REMARK  5 active torsions:
REMARK  status: ('A' for Active; 'I' for Inactive)
REMARK    1  A    between atoms: C_2  and  C_4
REMARK    2  A    between atoms: C_4  and  N_5
REMARK    3  A    between atoms: C_10  and  C_11
REMARK    4  A    between atoms: C_11  and  N_12
REMARK    5  A    between atoms: N_15  and  C_16
REMARK                            x       y       z     vdW  Elec       q    Type
REMARK                         _______ _______ _______ _____ _____    ______ ____
ROOT
ATOM      1  N   UNL     1       1.429  -2.475   0.000  0.00  0.00    -0.185 NA
ATOM      2  C   UNL     1       2.143  -2.888   0.000  0.00  0.00    +0.344 C 
ATOM      3  N   UNL     1       2.858  -2.475   0.000  0.00  0.00    -0.156 NA
ATOM      4  O   UNL     1       2.143  -3.712   0.000  0.00  0.00    -0.249 OA
ENDROOT
BRANCH   3   5
ATOM      5  C   UNL     1       3.572  -2.888   0.000  0.00  0.00    +0.127 A 
ATOM      6  C   UNL     1       3.572  -3.712   0.000  0.00  0.00    +0.276 A 
ATOM      7  O   UNL     1       2.858  -4.125   0.000  0.00  0.00    -0.266 OA
ATOM      8  N   UNL     1       4.287  -4.125   0.000  0.00  0.00    -0.291 N 
ATOM      9  C   UNL     1       4.287  -4.950   0.000  0.00  0.00    +0.134 C 
ATOM     10  C   UNL     1       5.001  -3.712   0.000  0.00  0.00    +0.078 A 
ATOM     11  C   UNL     1       5.001  -2.888   0.000  0.00  0.00    +0.016 A 
ATOM     12  C   UNL     1       4.287  -2.475   0.000  0.00  0.00    -0.000 A 
ATOM     13  C   UNL     1       4.287  -1.650   0.000  0.00  0.00    +0.033 C 
ENDBRANCH   3   5
BRANCH   1  14
ATOM     14  C   UNL     1       0.715  -2.888   0.000  0.00  0.00    +0.133 C 
BRANCH  14  16
ATOM     15  N   UNL     1      -0.715  -2.888   0.000  0.00  0.00    -0.272 NA
ATOM     16  C   UNL     1       0.000  -2.475   0.000  0.00  0.00    +0.079 C 
ATOM     17  C   UNL     1       0.000  -1.650   0.000  0.00  0.00    +0.018 C 
ATOM     18  C   UNL     1      -0.715  -1.238   0.000  0.00  0.00    +0.003 C 
ATOM     19  C   UNL     1      -1.429  -1.650   0.000  0.00  0.00    +0.017 C 
ATOM     20  C   UNL     1      -1.429  -2.475   0.000  0.00  0.00    +0.072 C 
BRANCH  15  21
ATOM     21  C   UNL     1      -0.715  -3.712   0.000  0.00  0.00    +0.072 C 
BRANCH  21  23
ATOM     22  C   UNL     1      -1.429  -4.950   0.000  0.00  0.00    +0.001 C 
ATOM     23  C   UNL     1      -1.429  -4.125   0.000  0.00  0.00    +0.016 C 
ATOM     24  C   UNL     1      -2.143  -3.712   0.000  0.00  0.00    +0.001 C 
ENDBRANCH  21  23
ENDBRANCH  15  21
ENDBRANCH  14  16
ENDBRANCH   1  14
TORSDOF 5
