REMARK  Name = 
REMARK  4 active torsions:
REMARK  status: ('A' for Active; 'I' for Inactive)
REMARK    1  A    between atoms: O_2  and  C_3
REMARK    2  A    between atoms: C_3  and  C_4
REMARK    3  A    between atoms: C_4  and  C_5
REMARK    4  A    between atoms: C_16  and  C_19
REMARK                            x       y       z     vdW  Elec       q    Type
REMARK                         _______ _______ _______ _____ _____    ______ ____
ROOT
ATOM      1  C   UNL     1       1.127  -2.507   0.000  0.00  0.00    +0.061 C 
ATOM      2  C   UNL     1       1.382  -1.722   0.000  0.00  0.00    +0.103 C 
ATOM      3  C   UNL     1       0.715  -1.238   0.000  0.00  0.00    +0.298 C 
ATOM      4  O   UNL     1       0.162  -0.624   0.000  0.00  0.00    -0.194 OA
ATOM      5  N   UNL     1       0.047  -1.722   0.000  0.00  0.00    -0.147 N 
ATOM      6  C   UNL     1      -0.738  -1.468   0.000  0.00  0.00    +0.241 A 
ATOM      7  N   UNL     1      -0.909  -0.660   0.000  0.00  0.00    -0.217 NA
ATOM      8  C   UNL     1      -1.694  -0.406   0.000  0.00  0.00    +0.063 A 
ATOM      9  C   UNL     1      -1.865   0.401   0.000  0.00  0.00    +0.052 C 
ATOM     10  C   UNL     1      -2.307  -0.958   0.000  0.00  0.00    +0.030 A 
ATOM     11  C   UNL     1      -2.135  -1.765   0.000  0.00  0.00    +0.063 A 
ATOM     12  C   UNL     1      -2.748  -2.317   0.000  0.00  0.00    +0.052 C 
ATOM     13  N   UNL     1      -1.351  -2.019   0.000  0.00  0.00    -0.217 NA
ATOM     14  N   UNL     1       0.302  -2.507   0.000  0.00  0.00    -0.182 NA
ENDROOT
BRANCH   3  15
ATOM     15  C   UNL     1       1.266  -0.624   0.000  0.00  0.00    +0.441 C 
ATOM     16  F   UNL     1       0.653  -0.072   0.000  0.00  0.00    -0.166 F 
ATOM     17  F   UNL     1       1.880  -1.176   0.000  0.00  0.00    -0.166 F 
ATOM     18  F   UNL     1       1.819  -0.011   0.000  0.00  0.00    -0.166 F 
ENDBRANCH   3  15
BRANCH   1  19
ATOM     19  C   UNL     1       1.612  -3.175   0.000  0.00  0.00    +0.075 C 
BRANCH  19  20
ATOM     20  C   UNL     1       2.432  -3.088   0.000  0.00  0.00    +0.148 C 
BRANCH  20  22
ATOM     21  C   UNL     1       3.738  -3.670   0.000  0.00  0.00    +0.174 C 
ATOM     22  O   UNL     1       2.917  -3.756   0.000  0.00  0.00    -0.351 OA
ENDBRANCH  20  22
ENDBRANCH  19  20
ENDBRANCH   1  19
TORSDOF 4
