REMARK  Name = 
REMARK  4 active torsions:
REMARK  status: ('A' for Active; 'I' for Inactive)
REMARK    1  A    between atoms: O_2  and  C_3
REMARK    2  A    between atoms: C_6  and  N_7
REMARK    3  A    between atoms: N_10  and  C_11
REMARK    4  A    between atoms: C_11  and  C_12
REMARK                            x       y       z     vdW  Elec       q    Type
REMARK                         _______ _______ _______ _____ _____    ______ ____
ROOT
ATOM      1  N   UNL     1       0.715   2.062   0.000  0.00  0.00    -0.159 NA
ATOM      2  C   UNL     1       1.429   1.650   0.000  0.00  0.00    +0.344 C 
ATOM      3  N   UNL     1       2.143   2.062   0.000  0.00  0.00    -0.177 NA
ATOM      4  O   UNL     1       1.429   0.825   0.000  0.00  0.00    -0.249 OA
ENDROOT
BRANCH   1   8
ATOM      5  C   UNL     1      -1.429   0.825   0.000  0.00  0.00    +0.225 A 
ATOM      6  N   UNL     1      -0.715   0.412   0.000  0.00  0.00    -0.209 NA
ATOM      7  C   UNL     1       0.000   0.825   0.000  0.00  0.00    +0.119 A 
ATOM      8  C   UNL     1       0.000   1.650   0.000  0.00  0.00    +0.094 A 
ATOM      9  C   UNL     1      -0.715   2.062   0.000  0.00  0.00    +0.023 A 
ATOM     10  C   UNL     1      -1.429   1.650   0.000  0.00  0.00    +0.059 A 
BRANCH   5  12
ATOM     11  C   UNL     1      -2.143  -0.412   0.000  0.00  0.00    +0.254 C 
ATOM     12  O   UNL     1      -2.143   0.412   0.000  0.00  0.00    -0.456 OA
ENDBRANCH   5  12
ENDBRANCH   1   8
BRANCH   3  13
ATOM     13  C   UNL     1       2.858   1.650   0.000  0.00  0.00    +0.201 C 
BRANCH  13  14
ATOM     14  C   UNL     1       3.572   2.062   0.000  0.00  0.00    +0.248 C 
ATOM     15  N   UNL     1       4.287   1.650   0.000  0.00  0.00    -0.278 N 
ATOM     16  C   UNL     1       4.373   0.830   0.000  0.00  0.00    +0.094 C 
ATOM     17  C   UNL     1       5.180   0.658   0.000  0.00  0.00    +0.023 C 
ATOM     18  C   UNL     1       5.593   1.373   0.000  0.00  0.00    +0.023 C 
ATOM     19  C   UNL     1       5.040   1.986   0.000  0.00  0.00    +0.094 C 
ATOM     20  O   UNL     1       3.572   2.888   0.000  0.00  0.00    -0.273 OA
ENDBRANCH  13  14
ENDBRANCH   3  13
TORSDOF 4
