REMARK  Name = 
REMARK  3 active torsions:
REMARK  status: ('A' for Active; 'I' for Inactive)
REMARK    1  A    between atoms: C_4  and  C_5
REMARK    2  A    between atoms: C_5  and  C_6
REMARK    3  A    between atoms: C_6  and  N_7
REMARK                            x       y       z     vdW  Elec       q    Type
REMARK                         _______ _______ _______ _____ _____    ______ ____
ROOT
ATOM      1  N   UNL     1       1.597  -3.097   0.000  0.00  0.00    -0.188 NA
ATOM      2  C   UNL     1       2.312  -2.684   0.000  0.00  0.00    +0.323 C 
ATOM      3  N   UNL     1       3.026  -3.097   0.000  0.00  0.00    -0.263 N 
ATOM      4  C   UNL     1       2.964  -3.919   0.000  0.00  0.00    +0.095 C 
ATOM      5  C   UNL     1       3.569  -4.481   0.000  0.00  0.00    +0.022 C 
ATOM      6  C   UNL     1       4.385  -4.357   0.000  0.00  0.00    +0.002 C 
ATOM      7  C   UNL     1       4.797  -3.643   0.000  0.00  0.00    +0.002 C 
ATOM      8  C   UNL     1       4.496  -2.875   0.000  0.00  0.00    +0.022 C 
ATOM      9  C   UNL     1       3.708  -2.632   0.000  0.00  0.00    +0.095 C 
ATOM     10  O   UNL     1       2.312  -1.859   0.000  0.00  0.00    -0.251 OA
ENDROOT
BRANCH   1  11
ATOM     11  C   UNL     1       0.883  -2.684   0.000  0.00  0.00    +0.122 C 
BRANCH  11  12
ATOM     12  C   UNL     1       0.168  -3.097   0.000  0.00  0.00    +0.053 C 
BRANCH  12  17
ATOM     13  C   UNL     1      -1.775  -0.939   0.000  0.00  0.00    +0.154 C 
ATOM     14  N   UNL     1      -1.440  -1.692   0.000  0.00  0.00    -0.248 N 
ATOM     15  N   UNL     1      -1.852  -2.407   0.000  0.00  0.00    -0.168 NA
ATOM     16  C   UNL     1      -1.300  -3.020   0.000  0.00  0.00    +0.117 A 
ATOM     17  C   UNL     1      -0.546  -2.684   0.000  0.00  0.00    +0.019 A 
ATOM     18  C   UNL     1      -0.633  -1.864   0.000  0.00  0.00    +0.092 A 
ENDBRANCH  12  17
ENDBRANCH  11  12
ENDBRANCH   1  11
TORSDOF 3
