REMARK  Name = 
REMARK  4 active torsions:
REMARK  status: ('A' for Active; 'I' for Inactive)
REMARK    1  A    between atoms: C_2  and  C_3
REMARK    2  A    between atoms: C_2  and  C_18
REMARK    3  A    between atoms: C_3  and  N_4
REMARK    4  A    between atoms: N_7  and  C_8
REMARK                            x       y       z     vdW  Elec       q    Type
REMARK                         _______ _______ _______ _____ _____    ______ ____
ROOT
ATOM      1  N   UNL     1       6.206  -3.295   0.000  0.00  0.00    -0.187 NA
ATOM      2  C   UNL     1       6.921  -2.882   0.000  0.00  0.00    +0.339 C 
ATOM      3  N   UNL     1       7.635  -3.295   0.000  0.00  0.00    -0.189 NA
ATOM      4  O   UNL     1       6.921  -2.057   0.000  0.00  0.00    -0.249 OA
ENDROOT
BRANCH   3   5
ATOM      5  C   UNL     1       8.350  -2.882   0.000  0.00  0.00    +0.102 C 
ATOM      6  C   UNL     1       9.064  -3.295   0.000  0.00  0.00    +0.049 C 
ATOM      7  C   UNL     1       9.779  -2.882   0.000  0.00  0.00    +0.094 C 
ATOM      8  C   UNL     1       9.865  -3.703   0.000  0.00  0.00    +0.027 C 
ATOM      9  C   UNL     1      10.672  -3.874   0.000  0.00  0.00    +0.002 C 
ATOM     10  C   UNL     1      11.084  -3.160   0.000  0.00  0.00    +0.002 C 
ATOM     11  C   UNL     1      10.532  -2.547   0.000  0.00  0.00    +0.027 C 
ATOM     12  O   UNL     1       9.779  -2.057   0.000  0.00  0.00    -0.358 OA
ATOM     13  C   UNL     1       9.064  -1.645   0.000  0.00  0.00    +0.144 C 
ATOM     14  C   UNL     1       8.350  -2.057   0.000  0.00  0.00    +0.054 C 
ENDBRANCH   3   5
BRANCH   1  15
ATOM     15  C   UNL     1       5.492  -2.882   0.000  0.00  0.00    +0.121 C 
BRANCH  15  17
ATOM     16  C   UNL     1       4.777  -4.120   0.000  0.00  0.00    +0.007 C 
ATOM     17  C   UNL     1       4.777  -3.295   0.000  0.00  0.00    +0.044 C 
BRANCH  17  18
ATOM     18  C   UNL     1       4.063  -2.882   0.000  0.00  0.00    -0.018 A 
ATOM     19  C   UNL     1       4.063  -2.057   0.000  0.00  0.00    +0.016 A 
ATOM     20  C   UNL     1       3.348  -1.645   0.000  0.00  0.00    +0.099 A 
ATOM     21  N   UNL     1       2.634  -2.057   0.000  0.00  0.00    -0.242 NA
ATOM     22  C   UNL     1       2.634  -2.882   0.000  0.00  0.00    +0.099 A 
ATOM     23  C   UNL     1       3.348  -3.295   0.000  0.00  0.00    +0.016 A 
ENDBRANCH  17  18
ENDBRANCH  15  17
ENDBRANCH   1  15
TORSDOF 4
