REMARK  Name = 
REMARK  4 active torsions:
REMARK  status: ('A' for Active; 'I' for Inactive)
REMARK    1  A    between atoms: C_2  and  C_12
REMARK    2  A    between atoms: N_3  and  C_4
REMARK    3  A    between atoms: C_4  and  C_5
REMARK    4  A    between atoms: C_5  and  C_6
REMARK                            x       y       z     vdW  Elec       q    Type
REMARK                         _______ _______ _______ _____ _____    ______ ____
ROOT
ATOM      1  C   UNL     1       2.143  -2.888   0.000  0.00  0.00    +0.121 C 
ENDROOT
BRANCH   1   4
ATOM      2  O   UNL     1       0.715  -3.712   0.000  0.00  0.00    -0.273 OA
ATOM      3  C   UNL     1       0.715  -2.888   0.000  0.00  0.00    +0.241 C 
ATOM      4  N   UNL     1       1.429  -2.475   0.000  0.00  0.00    -0.205 NA
BRANCH   3   5
ATOM      5  C   UNL     1       0.000  -2.475   0.000  0.00  0.00    +0.078 C 
ATOM      6  C   UNL     1      -0.412  -1.760   0.000  0.00  0.00    +0.010 C 
ATOM      7  C   UNL     1      -0.825  -2.475   0.000  0.00  0.00    +0.010 C 
ENDBRANCH   3   5
ENDBRANCH   1   4
BRANCH   1   8
ATOM      8  C   UNL     1       2.858  -2.475   0.000  0.00  0.00    +0.069 C 
BRANCH   8   9
ATOM      9  C   UNL     1       3.572  -2.888   0.000  0.00  0.00    +0.061 A 
ATOM     10  N   UNL     1       3.572  -3.712   0.000  0.00  0.00    -0.248 NA
ATOM     11  C   UNL     1       4.287  -4.125   0.000  0.00  0.00    +0.098 A 
ATOM     12  C   UNL     1       5.001  -3.712   0.000  0.00  0.00    +0.021 A 
ATOM     13  C   UNL     1       5.001  -2.888   0.000  0.00  0.00    +0.003 A 
ATOM     14  C   UNL     1       4.287  -2.475   0.000  0.00  0.00    +0.015 A 
ENDBRANCH   8   9
ENDBRANCH   1   8
TORSDOF 4
