REMARK  Name = 
REMARK  2 active torsions:
REMARK  status: ('A' for Active; 'I' for Inactive)
REMARK    1  A    between atoms: N_9  and  C_10
REMARK    2  A    between atoms: C_10  and  C_11
REMARK                            x       y       z     vdW  Elec       q    Type
REMARK                         _______ _______ _______ _____ _____    ______ ____
ROOT
ATOM      1  C   UNL     1      -1.454  -1.804   0.000  0.00  0.00    +0.040 C 
ATOM      2  C   UNL     1      -0.633  -1.718   0.000  0.00  0.00    +0.029 A 
ATOM      3  S   UNL     1      -0.081  -2.331   0.000  0.00  0.00    -0.054 S 
ATOM      4  C   UNL     1       0.672  -1.996   0.000  0.00  0.00    +0.187 A 
ATOM      5  N   UNL     1       1.387  -2.408   0.000  0.00  0.00    -0.136 NA
ATOM      6  C   UNL     1       2.102  -1.996   0.000  0.00  0.00    +0.345 C 
ATOM      7  N   UNL     1       2.816  -2.408   0.000  0.00  0.00    -0.184 NA
ATOM      8  O   UNL     1       2.102  -1.171   0.000  0.00  0.00    -0.249 OA
ATOM      9  N   UNL     1       0.586  -1.175   0.000  0.00  0.00    -0.221 NA
ATOM     10  C   UNL     1      -0.221  -1.004   0.000  0.00  0.00    +0.103 A 
ENDROOT
BRANCH   7  11
ATOM     11  C   UNL     1       3.530  -1.996   0.000  0.00  0.00    +0.146 C 
BRANCH  11  12
ATOM     12  C   UNL     1       4.245  -2.408   0.000  0.00  0.00    +0.137 C 
ATOM     13  O   UNL     1       4.331  -3.229   0.000  0.00  0.00    -0.354 OA
ATOM     14  C   UNL     1       5.138  -3.400   0.000  0.00  0.00    +0.142 C 
ATOM     15  C   UNL     1       5.551  -2.686   0.000  0.00  0.00    +0.035 C 
ATOM     16  C   UNL     1       4.999  -2.073   0.000  0.00  0.00    +0.034 C 
ENDBRANCH  11  12
ENDBRANCH   7  11
TORSDOF 2
