REMARK  Name = 
REMARK  3 active torsions:
REMARK  status: ('A' for Active; 'I' for Inactive)
REMARK    1  A    between atoms: S_2  and  C_5
REMARK    2  A    between atoms: C_8  and  N_9
REMARK    3  A    between atoms: N_12  and  C_13
REMARK                            x       y       z     vdW  Elec       q    Type
REMARK                         _______ _______ _______ _____ _____    ______ ____
ROOT
ATOM      1  C   UNL     1      -0.107   8.065   0.000  0.00  0.00    +0.186 A 
ATOM      2  N   UNL     1      -0.107   7.240   0.000  0.00  0.00    -0.224 NA
ATOM      3  C   UNL     1       0.608   6.828   0.000  0.00  0.00    +0.117 A 
ATOM      4  C   UNL     1       1.322   7.240   0.000  0.00  0.00    +0.094 A 
ATOM      5  C   UNL     1       1.322   8.065   0.000  0.00  0.00    +0.021 A 
ATOM      6  C   UNL     1       0.608   8.478   0.000  0.00  0.00    +0.039 A 
ENDROOT
BRANCH   1   8
ATOM      7  C   UNL     1      -1.536   8.890   0.000  0.00  0.00    +0.183 C 
ATOM      8  S   UNL     1      -0.821   8.478   0.000  0.00  0.00    +0.027 S 
ATOM      9  O   UNL     1      -0.409   9.192   0.000  0.00  0.00    -0.167 OA
ATOM     10  O   UNL     1      -1.234   7.763   0.000  0.00  0.00    -0.167 OA
ENDBRANCH   1   8
BRANCH   4  11
ATOM     11  N   UNL     1       2.037   6.828   0.000  0.00  0.00    -0.159 NA
ATOM     12  C   UNL     1       2.037   6.003   0.000  0.00  0.00    +0.343 C 
ATOM     13  N   UNL     1       2.751   5.590   0.000  0.00  0.00    -0.189 NA
ATOM     14  O   UNL     1       1.322   5.590   0.000  0.00  0.00    -0.249 OA
BRANCH  13  15
ATOM     15  C   UNL     1       2.751   4.765   0.000  0.00  0.00    +0.097 C 
ATOM     16  C   UNL     1       2.084   4.280   0.000  0.00  0.00    +0.022 C 
ATOM     17  C   UNL     1       2.339   3.496   0.000  0.00  0.00    +0.002 C 
ATOM     18  C   UNL     1       3.164   3.496   0.000  0.00  0.00    +0.002 C 
ATOM     19  C   UNL     1       3.419   4.280   0.000  0.00  0.00    +0.022 C 
ENDBRANCH  13  15
ENDBRANCH   4  11
TORSDOF 3
