REMARK  Name = 
REMARK  2 active torsions:
REMARK  status: ('A' for Active; 'I' for Inactive)
REMARK    1  A    between atoms: N_1  and  C_2
REMARK    2  A    between atoms: C_10  and  C_18
REMARK                            x       y       z     vdW  Elec       q    Type
REMARK                         _______ _______ _______ _____ _____    ______ ____
ROOT
ATOM      1  N   UNL     1       1.779  -0.254   0.000  0.00  0.00    -0.269 N 
ATOM      2  C   UNL     1       1.292   0.412   0.000  0.00  0.00    +0.182 A 
ATOM      3  N   UNL     1       1.779   1.083   0.000  0.00  0.00    -0.219 NA
ATOM      4  C   UNL     1       2.562   0.825   0.000  0.00  0.00    +0.152 A 
ATOM      5  C   UNL     1       3.275   1.238   0.000  0.00  0.00    +0.192 A 
ATOM      6  N   UNL     1       3.275   2.062   0.000  0.00  0.00    -0.105 NA
ATOM      7  N   UNL     1       3.992   0.825   0.000  0.00  0.00    -0.204 NA
ATOM      8  C   UNL     1       3.992   0.000   0.000  0.00  0.00    +0.202 A 
ATOM      9  N   UNL     1       3.275  -0.412   0.000  0.00  0.00    -0.205 NA
ATOM     10  C   UNL     1       2.562   0.000   0.000  0.00  0.00    +0.169 A 
ENDROOT
BRANCH   1  11
ATOM     11  C   UNL     1       1.521  -1.038   0.000  0.00  0.00    +0.241 C 
ATOM     12  O   UNL     1       2.008  -1.704   0.000  0.00  0.00    -0.330 OA
ATOM     13  C   UNL     1       1.521  -2.371   0.000  0.00  0.00    +0.185 C 
ATOM     14  C   UNL     1       0.738  -2.117   0.000  0.00  0.00    +0.225 C 
ATOM     15  F   UNL     1       0.071  -2.604   0.000  0.00  0.00    -0.232 F 
ATOM     16  C   UNL     1       0.738  -1.292   0.000  0.00  0.00    +0.236 C 
ATOM     17  O   UNL     1       0.071  -0.808   0.000  0.00  0.00    -0.215 OA
BRANCH  13  18
ATOM     18  C   UNL     1       1.779  -3.158   0.000  0.00  0.00    +0.214 C 
ATOM     19  O   UNL     1       2.583  -3.329   0.000  0.00  0.00    -0.218 OA
ENDBRANCH  13  18
ENDBRANCH   1  11
TORSDOF 2
