REMARK  Name = 
REMARK  4 active torsions:
REMARK  status: ('A' for Active; 'I' for Inactive)
REMARK    1  A    between atoms: C_2  and  S_5
REMARK    2  A    between atoms: S_5  and  C_8
REMARK    3  A    between atoms: C_11  and  N_12
REMARK    4  A    between atoms: N_12  and  C_13
REMARK                            x       y       z     vdW  Elec       q    Type
REMARK                         _______ _______ _______ _____ _____    ______ ____
ROOT
ATOM      1  C   UNL     1      -0.551   3.429   0.000  0.00  0.00    +0.186 A 
ATOM      2  N   UNL     1      -1.265   3.017   0.000  0.00  0.00    -0.224 NA
ATOM      3  C   UNL     1      -1.265   2.192   0.000  0.00  0.00    +0.116 A 
ATOM      4  C   UNL     1      -0.551   1.779   0.000  0.00  0.00    +0.085 A 
ATOM      5  C   UNL     1       0.164   2.192   0.000  0.00  0.00    +0.021 A 
ATOM      6  C   UNL     1       0.164   3.017   0.000  0.00  0.00    +0.039 A 
ENDROOT
BRANCH   1   7
ATOM      7  S   UNL     1      -0.551   4.254   0.000  0.00  0.00    +0.022 S 
ATOM      8  O   UNL     1       0.274   4.254   0.000  0.00  0.00    -0.167 OA
ATOM      9  O   UNL     1      -1.376   4.254   0.000  0.00  0.00    -0.167 OA
BRANCH   7  11
ATOM     10  C   UNL     1      -0.551   5.904   0.000  0.00  0.00    +0.024 C 
ATOM     11  C   UNL     1      -0.551   5.079   0.000  0.00  0.00    +0.117 C 
ATOM     12  C   UNL     1       0.274   5.079   0.000  0.00  0.00    +0.024 C 
ATOM     13  C   UNL     1      -1.376   5.079   0.000  0.00  0.00    +0.024 C 
ENDBRANCH   7  11
ENDBRANCH   1   7
BRANCH   4  14
ATOM     14  N   UNL     1      -0.551   0.954   0.000  0.00  0.00    -0.235 NA
BRANCH  14  15
ATOM     15  C   UNL     1       0.164   0.542   0.000  0.00  0.00    +0.122 C 
ATOM     16  C   UNL     1       0.878   0.954   0.000  0.00  0.00    +0.135 C 
ATOM     17  O   UNL     1       0.672   0.129   0.000  0.00  0.00    -0.357 OA
ATOM     18  C   UNL     1       0.878  -0.696   0.000  0.00  0.00    +0.117 C 
ATOM     19  C   UNL     1       1.593  -0.283   0.000  0.00  0.00    +0.032 C 
ATOM     20  C   UNL     1       1.593   0.542   0.000  0.00  0.00    +0.034 C 
ATOM     21  C   UNL     1       0.164  -0.283   0.000  0.00  0.00    +0.054 C 
ENDBRANCH  14  15
ENDBRANCH   4  14
TORSDOF 4
