REMARK  Name = 
REMARK  6 active torsions:
REMARK  status: ('A' for Active; 'I' for Inactive)
REMARK    1  A    between atoms: C_2  and  C_3
REMARK    2  A    between atoms: C_3  and  O_4
REMARK    3  A    between atoms: O_4  and  C_5
REMARK    4  A    between atoms: N_10  and  C_11
REMARK    5  A    between atoms: C_11  and  C_12
REMARK    6  A    between atoms: C_12  and  C_13
REMARK                            x       y       z     vdW  Elec       q    Type
REMARK                         _______ _______ _______ _____ _____    ______ ____
ROOT
ATOM      1  O   UNL     1       3.878  -4.189   0.000  0.00  0.00    -0.271 OA
ATOM      2  C   UNL     1       3.878  -3.364   0.000  0.00  0.00    +0.272 C 
ATOM      3  N   UNL     1       4.592  -2.952   0.000  0.00  0.00    -0.203 NA
ENDROOT
BRANCH   3   4
ATOM      4  C   UNL     1       5.307  -3.364   0.000  0.00  0.00    +0.122 C 
BRANCH   4   5
ATOM      5  C   UNL     1       6.021  -2.952   0.000  0.00  0.00    +0.070 C 
BRANCH   5   6
ATOM      6  C   UNL     1       6.736  -3.364   0.000  0.00  0.00    +0.068 A 
ATOM      7  N   UNL     1       6.822  -4.185   0.000  0.00  0.00    -0.241 NA
ATOM      8  C   UNL     1       7.629  -4.356   0.000  0.00  0.00    +0.134 A 
ATOM      9  S   UNL     1       8.041  -3.642   0.000  0.00  0.00    -0.064 S 
ATOM     10  C   UNL     1       7.489  -3.029   0.000  0.00  0.00    +0.052 A 
ENDBRANCH   5   6
ENDBRANCH   4   5
ENDBRANCH   3   4
BRANCH   2  11
ATOM     11  C   UNL     1       3.163  -2.952   0.000  0.00  0.00    +0.229 C 
BRANCH  11  12
ATOM     12  O   UNL     1       2.449  -3.364   0.000  0.00  0.00    -0.347 OA
BRANCH  12  13
ATOM     13  C   UNL     1       1.734  -2.952   0.000  0.00  0.00    +0.116 C 
ATOM     14  C   UNL     1       1.648  -2.131   0.000  0.00  0.00    +0.030 C 
ATOM     15  C   UNL     1       0.841  -1.960   0.000  0.00  0.00    +0.003 C 
ATOM     16  C   UNL     1       0.429  -2.674   0.000  0.00  0.00    +0.003 C 
ATOM     17  C   UNL     1       0.981  -3.287   0.000  0.00  0.00    +0.030 C 
ENDBRANCH  12  13
ENDBRANCH  11  12
ENDBRANCH   2  11
TORSDOF 6
