REMARK  Name = 
REMARK  6 active torsions:
REMARK  status: ('A' for Active; 'I' for Inactive)
REMARK    1  A    between atoms: C_6  and  O_8
REMARK    2  A    between atoms: O_8  and  C_9
REMARK    3  A    between atoms: C_9  and  C_10
REMARK    4  A    between atoms: N_12  and  C_13
REMARK    5  A    between atoms: C_13  and  C_14
REMARK    6  A    between atoms: C_14  and  C_15
REMARK                            x       y       z     vdW  Elec       q    Type
REMARK                         _______ _______ _______ _____ _____    ______ ____
ROOT
ATOM      1  C   UNL     1       2.858   1.650   0.000  0.00  0.00    +0.272 C 
ATOM      2  N   UNL     1       3.572   2.062   0.000  0.00  0.00    -0.203 NA
ATOM      3  O   UNL     1       2.858   0.825   0.000  0.00  0.00    -0.271 OA
ENDROOT
BRANCH   1   4
ATOM      4  C   UNL     1       2.143   2.062   0.000  0.00  0.00    +0.229 C 
BRANCH   4   5
ATOM      5  O   UNL     1       1.429   1.650   0.000  0.00  0.00    -0.347 OA
BRANCH   5   9
ATOM      6  C   UNL     1      -1.429   1.650   0.000  0.00  0.00    +0.000 C 
ATOM      7  C   UNL     1      -0.715   2.062   0.000  0.00  0.00    +0.002 C 
ATOM      8  C   UNL     1       0.000   1.650   0.000  0.00  0.00    +0.030 C 
ATOM      9  C   UNL     1       0.715   2.062   0.000  0.00  0.00    +0.116 C 
ATOM     10  C   UNL     1       0.715   2.888   0.000  0.00  0.00    +0.030 C 
ATOM     11  C   UNL     1       0.000   3.300   0.000  0.00  0.00    +0.002 C 
ATOM     12  C   UNL     1      -0.715   2.888   0.000  0.00  0.00    +0.000 C 
ENDBRANCH   5   9
ENDBRANCH   4   5
ENDBRANCH   1   4
BRANCH   2  13
ATOM     13  C   UNL     1       4.287   1.650   0.000  0.00  0.00    +0.122 C 
BRANCH  13  14
ATOM     14  C   UNL     1       5.001   2.062   0.000  0.00  0.00    +0.076 C 
BRANCH  14  15
ATOM     15  C   UNL     1       5.716   1.650   0.000  0.00  0.00    +0.090 A 
ATOM     16  S   UNL     1       5.802   0.830   0.000  0.00  0.00    -0.071 S 
ATOM     17  C   UNL     1       6.609   0.658   0.000  0.00  0.00    +0.051 A 
ATOM     18  C   UNL     1       7.021   1.373   0.000  0.00  0.00    +0.066 A 
ATOM     19  C   UNL     1       7.842   1.459   0.000  0.00  0.00    +0.053 C 
ATOM     20  N   UNL     1       6.469   1.986   0.000  0.00  0.00    -0.247 NA
ENDBRANCH  14  15
ENDBRANCH  13  14
ENDBRANCH   2  13
TORSDOF 6
