REMARK  Name = 
REMARK  4 active torsions:
REMARK  status: ('A' for Active; 'I' for Inactive)
REMARK    1  A    between atoms: C_2  and  N_5
REMARK    2  A    between atoms: C_11  and  N_14
REMARK    3  A    between atoms: C_15  and  C_17
REMARK    4  A    between atoms: C_17  and  C_18
REMARK                            x       y       z     vdW  Elec       q    Type
REMARK                         _______ _______ _______ _____ _____    ______ ____
ROOT
ATOM      1  N   UNL     1      -2.858   0.000   0.000  0.00  0.00    -0.192 NA
ATOM      2  C   UNL     1      -2.143  -0.412   0.000  0.00  0.00    +0.323 C 
ATOM      3  N   UNL     1      -2.143  -1.238   0.000  0.00  0.00    -0.263 N 
ATOM      4  C   UNL     1      -2.858  -1.650   0.000  0.00  0.00    +0.097 C 
ATOM      5  C   UNL     1      -2.858  -2.475   0.000  0.00  0.00    +0.043 C 
ATOM      6  C   UNL     1      -2.143  -2.888   0.000  0.00  0.00    +0.099 C 
ATOM      7  C   UNL     1      -1.429  -2.475   0.000  0.00  0.00    +0.043 C 
ATOM      8  C   UNL     1      -1.429  -1.650   0.000  0.00  0.00    +0.097 C 
ATOM      9  O   UNL     1      -1.429   0.000   0.000  0.00  0.00    -0.251 OA
ENDROOT
BRANCH   1  11
ATOM     10  C   UNL     1      -2.858   1.650   0.000  0.00  0.00    +0.022 C 
ATOM     11  C   UNL     1      -2.858   0.825   0.000  0.00  0.00    +0.080 C 
ATOM     12  C   UNL     1      -2.033   0.825   0.000  0.00  0.00    +0.022 C 
ATOM     13  C   UNL     1      -3.683   0.825   0.000  0.00  0.00    +0.022 C 
ENDBRANCH   1  11
BRANCH   6  14
ATOM     14  N   UNL     1      -2.143  -3.712   0.000  0.00  0.00    -0.207 NA
ATOM     15  C   UNL     1      -2.858  -4.125   0.000  0.00  0.00    +0.246 C 
ATOM     16  O   UNL     1      -3.572  -3.712   0.000  0.00  0.00    -0.273 OA
BRANCH  15  17
ATOM     17  C   UNL     1      -2.858  -4.950   0.000  0.00  0.00    +0.115 C 
BRANCH  17  18
ATOM     18  C   UNL     1      -2.143  -5.362   0.000  0.00  0.00    +0.006 A 
ATOM     19  C   UNL     1      -2.143  -6.188   0.000  0.00  0.00    +0.095 A 
ATOM     20  N   UNL     1      -1.429  -6.600   0.000  0.00  0.00    -0.243 NA
ATOM     21  C   UNL     1      -0.715  -6.188   0.000  0.00  0.00    +0.099 A 
ATOM     22  C   UNL     1      -0.715  -5.362   0.000  0.00  0.00    +0.020 A 
ATOM     23  C   UNL     1      -1.429  -4.950   0.000  0.00  0.00    -0.001 A 
ENDBRANCH  17  18
ENDBRANCH  15  17
ENDBRANCH   6  14
TORSDOF 4
