REMARK  Name = 
REMARK  6 active torsions:
REMARK  status: ('A' for Active; 'I' for Inactive)
REMARK    1  A    between atoms: C_2  and  C_3
REMARK    2  A    between atoms: C_5  and  C_6
REMARK    3  A    between atoms: C_6  and  C_7
REMARK    4  A    between atoms: N_9  and  C_10
REMARK    5  A    between atoms: C_10  and  C_12
REMARK    6  A    between atoms: N_14  and  C_15
REMARK                            x       y       z     vdW  Elec       q    Type
REMARK                         _______ _______ _______ _____ _____    ______ ____
ROOT
ATOM      1  C   UNL     1      -0.581   2.130   0.000  0.00  0.00    +0.248 C 
ATOM      2  N   UNL     1       0.133   2.543   0.000  0.00  0.00    -0.197 NA
ATOM      3  O   UNL     1      -0.581   1.305   0.000  0.00  0.00    -0.273 OA
ENDROOT
BRANCH   2   4
ATOM      4  C   UNL     1       0.848   2.130   0.000  0.00  0.00    +0.173 C 
ATOM      5  C   UNL     1       0.848   1.305   0.000  0.00  0.00    +0.033 C 
BRANCH   4   6
ATOM      6  C   UNL     1       1.562   2.543   0.000  0.00  0.00    +0.261 C 
ATOM      7  N   UNL     1       2.277   2.130   0.000  0.00  0.00    -0.207 NA
ATOM      8  O   UNL     1       1.562   3.368   0.000  0.00  0.00    -0.271 OA
BRANCH   7   9
ATOM      9  C   UNL     1       2.991   2.543   0.000  0.00  0.00    +0.079 C 
ATOM     10  C   UNL     1       2.579   3.257   0.000  0.00  0.00    +0.022 C 
ATOM     11  C   UNL     1       3.404   1.828   0.000  0.00  0.00    +0.022 C 
ATOM     12  C   UNL     1       3.706   2.955   0.000  0.00  0.00    +0.022 C 
ENDBRANCH   7   9
ENDBRANCH   4   6
ENDBRANCH   2   4
BRANCH   1  13
ATOM     13  C   UNL     1      -1.296   2.543   0.000  0.00  0.00    +0.133 C 
BRANCH  13  17
ATOM     14  C   UNL     1      -3.316   1.853   0.000  0.00  0.00    +0.088 A 
ATOM     15  S   UNL     1      -2.903   1.138   0.000  0.00  0.00    -0.071 S 
ATOM     16  C   UNL     1      -2.096   1.310   0.000  0.00  0.00    +0.052 A 
ATOM     17  C   UNL     1      -2.010   2.130   0.000  0.00  0.00    +0.075 A 
ATOM     18  N   UNL     1      -2.764   2.466   0.000  0.00  0.00    -0.247 NA
BRANCH  14  20
ATOM     19  C   UNL     1      -4.621   1.272   0.000  0.00  0.00    +0.007 C 
ATOM     20  C   UNL     1      -4.136   1.939   0.000  0.00  0.00    +0.053 C 
ENDBRANCH  14  20
ENDBRANCH  13  17
ENDBRANCH   1  13
TORSDOF 6
