REMARK  Name = 
REMARK  6 active torsions:
REMARK  status: ('A' for Active; 'I' for Inactive)
REMARK    1  A    between atoms: O_2  and  C_3
REMARK    2  A    between atoms: C_3  and  C_4
REMARK    3  A    between atoms: C_4  and  O_5
REMARK    4  A    between atoms: O_5  and  C_6
REMARK    5  A    between atoms: C_11  and  N_12
REMARK    6  A    between atoms: N_12  and  C_13
REMARK                            x       y       z     vdW  Elec       q    Type
REMARK                         _______ _______ _______ _____ _____    ______ ____
ROOT
ATOM      1  C   UNL     1       3.572  -3.712   0.000  0.00  0.00    +0.240 A 
ATOM      2  C   UNL     1       4.287  -4.125   0.000  0.00  0.00    +0.118 A 
ATOM      3  C   UNL     1       5.001  -3.712   0.000  0.00  0.00    +0.022 A 
ATOM      4  C   UNL     1       5.001  -2.888   0.000  0.00  0.00    +0.022 A 
ATOM      5  C   UNL     1       4.287  -2.475   0.000  0.00  0.00    +0.102 A 
ATOM      6  N   UNL     1       3.572  -2.888   0.000  0.00  0.00    -0.209 NA
ENDROOT
BRANCH   2   7
ATOM      7  N   UNL     1       4.287  -4.950   0.000  0.00  0.00    -0.235 NA
BRANCH   7   8
ATOM      8  C   UNL     1       5.001  -5.362   0.000  0.00  0.00    +0.098 C 
ATOM      9  C   UNL     1       5.001  -6.188   0.000  0.00  0.00    +0.054 C 
ATOM     10  C   UNL     1       5.716  -6.600   0.000  0.00  0.00    +0.144 C 
ATOM     11  O   UNL     1       6.430  -6.188   0.000  0.00  0.00    -0.354 OA
ATOM     12  C   UNL     1       6.430  -5.362   0.000  0.00  0.00    +0.144 C 
ATOM     13  C   UNL     1       5.716  -4.950   0.000  0.00  0.00    +0.054 C 
ENDBRANCH   7   8
ENDBRANCH   2   7
BRANCH   1  14
ATOM     14  O   UNL     1       2.858  -4.125   0.000  0.00  0.00    -0.457 OA
BRANCH  14  15
ATOM     15  C   UNL     1       2.143  -3.712   0.000  0.00  0.00    +0.239 C 
BRANCH  15  16
ATOM     16  C   UNL     1       1.429  -4.125   0.000  0.00  0.00    +0.189 C 
BRANCH  16  18
ATOM     17  C   UNL     1       0.000  -4.125   0.000  0.00  0.00    +0.174 C 
ATOM     18  O   UNL     1       0.715  -3.712   0.000  0.00  0.00    -0.347 OA
ENDBRANCH  16  18
ENDBRANCH  15  16
ENDBRANCH  14  15
ENDBRANCH   1  14
TORSDOF 6
