REMARK  Name = 
REMARK  5 active torsions:
REMARK  status: ('A' for Active; 'I' for Inactive)
REMARK    1  A    between atoms: C_2  and  O_3
REMARK    2  A    between atoms: O_3  and  C_4
REMARK    3  A    between atoms: C_6  and  N_7
REMARK    4  A    between atoms: C_8  and  C_10
REMARK    5  A    between atoms: C_10  and  N_11
REMARK                            x       y       z     vdW  Elec       q    Type
REMARK                         _______ _______ _______ _____ _____    ______ ____
ROOT
ATOM      1  C   UNL     1       4.062  -2.288   0.000  0.00  0.00    +0.118 C 
ATOM      2  C   UNL     1       3.479  -1.705   0.000  0.00  0.00    +0.044 C 
ATOM      3  C   UNL     1       3.910  -1.002   0.000  0.00  0.00    +0.004 C 
ATOM      4  C   UNL     1       3.048  -1.002   0.000  0.00  0.00    +0.004 C 
ATOM      5  C   UNL     1       2.896  -2.288   0.000  0.00  0.00    +0.100 C 
ATOM      6  C   UNL     1       3.479  -2.872   0.000  0.00  0.00    +0.051 C 
ENDROOT
BRANCH   5   7
ATOM      7  N   UNL     1       2.071  -2.288   0.000  0.00  0.00    -0.205 NA
ATOM      8  C   UNL     1       1.658  -1.574   0.000  0.00  0.00    +0.266 C 
ATOM      9  O   UNL     1       2.071  -0.860   0.000  0.00  0.00    -0.271 OA
BRANCH   8  10
ATOM     10  C   UNL     1       0.833  -1.574   0.000  0.00  0.00    +0.217 C 
BRANCH  10  11
ATOM     11  N   UNL     1       0.421  -0.860   0.000  0.00  0.00    -0.201 N 
ATOM     12  N   UNL     1       0.756  -0.106   0.000  0.00  0.00    -0.042 NA
ATOM     13  N   UNL     1       0.143   0.446   0.000  0.00  0.00    -0.023 NA
ATOM     14  N   UNL     1      -0.571   0.034   0.000  0.00  0.00    -0.105 NA
ATOM     15  C   UNL     1      -0.400  -0.773   0.000  0.00  0.00    +0.222 A 
ENDBRANCH  10  11
ENDBRANCH   8  10
ENDBRANCH   5   7
BRANCH   1  16
ATOM     16  O   UNL     1       4.887  -2.288   0.000  0.00  0.00    -0.356 OA
BRANCH  16  18
ATOM     17  C   UNL     1       6.125  -1.574   0.000  0.00  0.00    +0.035 C 
ATOM     18  C   UNL     1       5.300  -1.574   0.000  0.00  0.00    +0.142 C 
ENDBRANCH  16  18
ENDBRANCH   1  16
TORSDOF 5
