REMARK  Name = 
REMARK  4 active torsions:
REMARK  status: ('A' for Active; 'I' for Inactive)
REMARK    1  A    between atoms: C_4  and  C_8
REMARK    2  A    between atoms: N_10  and  C_11
REMARK    3  A    between atoms: C_11  and  C_12
REMARK    4  A    between atoms: C_12  and  C_13
REMARK                            x       y       z     vdW  Elec       q    Type
REMARK                         _______ _______ _______ _____ _____    ______ ____
ROOT
ATOM      1  C   UNL     1       0.715  -2.888   0.000  0.00  0.00    +0.243 C 
ATOM      2  N   UNL     1       1.429  -2.475   0.000  0.00  0.00    -0.205 NA
ATOM      3  O   UNL     1       0.715  -3.712   0.000  0.00  0.00    -0.273 OA
ENDROOT
BRANCH   1   9
ATOM      4  C   UNL     1      -1.229  -0.729   0.000  0.00  0.00    +0.115 C 
ATOM      5  N   UNL     1      -0.893  -1.483   0.000  0.00  0.00    -0.277 N 
ATOM      6  C   UNL     1      -1.306  -2.197   0.000  0.00  0.00    +0.226 C 
ATOM      7  O   UNL     1      -2.126  -2.284   0.000  0.00  0.00    -0.275 OA
ATOM      8  C   UNL     1      -0.754  -2.811   0.000  0.00  0.00    +0.096 C 
ATOM      9  C   UNL     1       0.000  -2.475   0.000  0.00  0.00    +0.107 C 
ATOM     10  C   UNL     1      -0.086  -1.655   0.000  0.00  0.00    +0.103 C 
ENDBRANCH   1   9
BRANCH   2  11
ATOM     11  C   UNL     1       2.143  -2.888   0.000  0.00  0.00    +0.120 C 
BRANCH  11  12
ATOM     12  C   UNL     1       2.858  -2.475   0.000  0.00  0.00    +0.051 C 
BRANCH  12  13
ATOM     13  C   UNL     1       3.572  -2.888   0.000  0.00  0.00    -0.001 A 
ATOM     14  C   UNL     1       3.572  -3.712   0.000  0.00  0.00    +0.095 A 
ATOM     15  N   UNL     1       4.287  -4.125   0.000  0.00  0.00    -0.243 NA
ATOM     16  C   UNL     1       5.001  -3.712   0.000  0.00  0.00    +0.099 A 
ATOM     17  C   UNL     1       5.001  -2.888   0.000  0.00  0.00    +0.020 A 
ATOM     18  C   UNL     1       4.287  -2.475   0.000  0.00  0.00    -0.001 A 
ENDBRANCH  12  13
ENDBRANCH  11  12
ENDBRANCH   2  11
TORSDOF 4
