REMARK  Name = 
REMARK  4 active torsions:
REMARK  status: ('A' for Active; 'I' for Inactive)
REMARK    1  A    between atoms: N_3  and  C_4
REMARK    2  A    between atoms: N_7  and  C_10
REMARK    3  A    between atoms: N_13  and  C_14
REMARK    4  A    between atoms: C_19  and  N_20
REMARK                            x       y       z     vdW  Elec       q    Type
REMARK                         _______ _______ _______ _____ _____    ______ ____
ROOT
ATOM      1  O   UNL     1      -4.699  -0.587   0.000  0.00  0.00    -0.249 OA
ATOM      2  C   UNL     1      -3.985  -0.174   0.000  0.00  0.00    +0.344 C 
ATOM      3  N   UNL     1      -3.985   0.651   0.000  0.00  0.00    -0.158 NA
ATOM      4  N   UNL     1      -3.270  -0.587   0.000  0.00  0.00    -0.189 NA
ENDROOT
BRANCH   3   5
ATOM      5  C   UNL     1      -4.699   1.063   0.000  0.00  0.00    +0.106 A 
ATOM      6  C   UNL     1      -4.699   1.888   0.000  0.00  0.00    +0.147 A 
ATOM      7  N   UNL     1      -5.414   2.301   0.000  0.00  0.00    -0.228 NA
ATOM      8  C   UNL     1      -6.128   1.888   0.000  0.00  0.00    +0.100 A 
ATOM      9  C   UNL     1      -6.128   1.063   0.000  0.00  0.00    +0.022 A 
ATOM     10  C   UNL     1      -5.414   0.651   0.000  0.00  0.00    +0.021 A 
BRANCH   6  11
ATOM     11  N   UNL     1      -3.985   2.301   0.000  0.00  0.00    -0.292 N 
ATOM     12  C   UNL     1      -3.231   1.965   0.000  0.00  0.00    +0.092 C 
ATOM     13  C   UNL     1      -2.679   2.578   0.000  0.00  0.00    +0.023 C 
ATOM     14  C   UNL     1      -3.092   3.293   0.000  0.00  0.00    +0.023 C 
ATOM     15  C   UNL     1      -3.899   3.121   0.000  0.00  0.00    +0.092 C 
ENDBRANCH   6  11
ENDBRANCH   3   5
BRANCH   4  16
ATOM     16  C   UNL     1      -3.270  -1.412   0.000  0.00  0.00    +0.100 C 
ATOM     17  C   UNL     1      -3.985  -1.824   0.000  0.00  0.00    +0.039 C 
ATOM     18  C   UNL     1      -3.985  -2.649   0.000  0.00  0.00    +0.074 C 
ATOM     19  N   UNL     1      -3.270  -3.062   0.000  0.00  0.00    -0.274 NA
ATOM     20  C   UNL     1      -2.556  -2.649   0.000  0.00  0.00    +0.074 C 
ATOM     21  C   UNL     1      -2.556  -1.824   0.000  0.00  0.00    +0.039 C 
BRANCH  19  22
ATOM     22  C   UNL     1      -3.270  -3.887   0.000  0.00  0.00    +0.058 C 
ATOM     23  C   UNL     1      -3.683  -4.601   0.000  0.00  0.00    +0.017 C 
ATOM     24  C   UNL     1      -2.858  -4.601   0.000  0.00  0.00    +0.017 C 
ENDBRANCH  19  22
ENDBRANCH   4  16
TORSDOF 4
