REMARK  Name = 
REMARK  7 active torsions:
REMARK  status: ('A' for Active; 'I' for Inactive)
REMARK    1  A    between atoms: C_2  and  C_3
REMARK    2  A    between atoms: C_3  and  C_4
REMARK    3  A    between atoms: C_4  and  O_5
REMARK    4  A    between atoms: O_5  and  C_6
REMARK    5  A    between atoms: C_6  and  C_8
REMARK    6  A    between atoms: N_10  and  C_11
REMARK    7  A    between atoms: C_13  and  C_18
REMARK                            x       y       z     vdW  Elec       q    Type
REMARK                         _______ _______ _______ _____ _____    ______ ____
ROOT
ATOM      1  C   UNL     1       7.859  -5.362   0.000  0.00  0.00    +0.131 A 
ATOM      2  C   UNL     1       7.859  -6.188   0.000  0.00  0.00    +0.295 A 
ATOM      3  O   UNL     1       7.145  -6.600   0.000  0.00  0.00    -0.264 OA
ATOM      4  N   UNL     1       8.574  -6.600   0.000  0.00  0.00    -0.205 NA
ATOM      5  C   UNL     1       9.288  -6.188   0.000  0.00  0.00    +0.106 A 
ATOM      6  C   UNL     1       9.288  -5.362   0.000  0.00  0.00    +0.092 A 
ATOM      7  C   UNL     1       8.574  -4.950   0.000  0.00  0.00    +0.027 A 
ENDROOT
BRANCH   6   8
ATOM      8  C   UNL     1      10.003  -4.950   0.000  0.00  0.00    +0.420 C 
ATOM      9  F   UNL     1       9.590  -4.236   0.000  0.00  0.00    -0.166 F 
ATOM     10  F   UNL     1      10.415  -5.665   0.000  0.00  0.00    -0.166 F 
ATOM     11  F   UNL     1      10.717  -4.537   0.000  0.00  0.00    -0.166 F 
ENDBRANCH   6   8
BRANCH   1  13
ATOM     12  C   UNL     1       6.430  -5.362   0.000  0.00  0.00    +0.273 C 
ATOM     13  N   UNL     1       7.145  -4.950   0.000  0.00  0.00    -0.172 NA
ATOM     14  O   UNL     1       6.430  -6.188   0.000  0.00  0.00    -0.270 OA
BRANCH  12  15
ATOM     15  C   UNL     1       5.716  -4.950   0.000  0.00  0.00    +0.193 C 
ATOM     16  C   UNL     1       5.716  -4.125   0.000  0.00  0.00    +0.042 C 
BRANCH  15  17
ATOM     17  O   UNL     1       5.001  -5.362   0.000  0.00  0.00    -0.347 OA
BRANCH  17  18
ATOM     18  C   UNL     1       4.287  -4.950   0.000  0.00  0.00    +0.143 C 
BRANCH  18  19
ATOM     19  C   UNL     1       3.572  -5.362   0.000  0.00  0.00    +0.032 C 
BRANCH  19  21
ATOM     20  C   UNL     1       2.143  -5.362   0.000  0.00  0.00    +0.000 C 
ATOM     21  C   UNL     1       2.858  -4.950   0.000  0.00  0.00    +0.003 C 
ENDBRANCH  19  21
ENDBRANCH  18  19
ENDBRANCH  17  18
ENDBRANCH  15  17
ENDBRANCH  12  15
ENDBRANCH   1  13
TORSDOF 7
