REMARK  Name = 
REMARK  7 active torsions:
REMARK  status: ('A' for Active; 'I' for Inactive)
REMARK    1  A    between atoms: C_2  and  C_3
REMARK    2  A    between atoms: C_3  and  C_4
REMARK    3  A    between atoms: C_4  and  N_5
REMARK    4  A    between atoms: N_5  and  C_13
REMARK    5  A    between atoms: C_6  and  C_8
REMARK    6  A    between atoms: N_16  and  C_17
REMARK    7  A    between atoms: C_17  and  C_18
REMARK                            x       y       z     vdW  Elec       q    Type
REMARK                         _______ _______ _______ _____ _____    ______ ____
ROOT
ATOM      1  N   UNL     1       4.206  -3.602   0.000  0.00  0.00    -0.250 N 
ATOM      2  C   UNL     1       4.618  -2.888   0.000  0.00  0.00    +0.257 C 
ATOM      3  O   UNL     1       5.443  -2.888   0.000  0.00  0.00    -0.272 OA
ENDROOT
BRANCH   1   4
ATOM      4  C   UNL     1       4.618  -4.316   0.000  0.00  0.00    +0.146 A 
ATOM      5  C   UNL     1       4.206  -5.031   0.000  0.00  0.00    +0.300 A 
ATOM      6  O   UNL     1       3.381  -5.031   0.000  0.00  0.00    -0.264 OA
ATOM      7  N   UNL     1       4.618  -5.745   0.000  0.00  0.00    -0.152 NA
ATOM      8  C   UNL     1       5.443  -5.745   0.000  0.00  0.00    +0.354 A 
ATOM      9  O   UNL     1       5.856  -6.460   0.000  0.00  0.00    -0.244 OA
ATOM     10  N   UNL     1       5.856  -5.031   0.000  0.00  0.00    -0.264 N 
ATOM     11  C   UNL     1       5.443  -4.316   0.000  0.00  0.00    +0.173 A 
ATOM     12  N   UNL     1       5.856  -3.602   0.000  0.00  0.00    -0.107 NA
BRANCH  10  13
ATOM     13  C   UNL     1       6.681  -5.031   0.000  0.00  0.00    +0.112 C 
BRANCH  13  14
ATOM     14  C   UNL     1       7.093  -5.745   0.000  0.00  0.00    +0.025 C 
ATOM     15  C   UNL     1       7.918  -5.745   0.000  0.00  0.00    +0.002 C 
ENDBRANCH  13  14
ENDBRANCH  10  13
ENDBRANCH   1   4
BRANCH   2  16
ATOM     16  C   UNL     1       4.206  -2.173   0.000  0.00  0.00    +0.191 C 
ATOM     17  O   UNL     1       3.385  -2.087   0.000  0.00  0.00    -0.347 OA
ATOM     18  C   UNL     1       3.214  -1.280   0.000  0.00  0.00    +0.143 C 
ATOM     19  C   UNL     1       3.928  -0.867   0.000  0.00  0.00    +0.035 C 
ATOM     20  C   UNL     1       4.542  -1.419   0.000  0.00  0.00    +0.042 C 
ENDBRANCH   2  16
BRANCH   1  21
ATOM     21  C   UNL     1       3.381  -3.602   0.000  0.00  0.00    +0.099 C 
BRANCH  21  22
ATOM     22  C   UNL     1       2.968  -2.888   0.000  0.00  0.00    +0.022 C 
BRANCH  22  24
ATOM     23  C   UNL     1       1.731  -2.173   0.000  0.00  0.00    +0.000 C 
ATOM     24  C   UNL     1       2.143  -2.888   0.000  0.00  0.00    +0.002 C 
ENDBRANCH  22  24
ENDBRANCH  21  22
ENDBRANCH   1  21
TORSDOF 7
