REMARK  Name = 
REMARK  1 active torsions:
REMARK  status: ('A' for Active; 'I' for Inactive)
REMARK    1  A    between atoms: C_2  and  C_9
REMARK                            x       y       z     vdW  Elec       q    Type
REMARK                         _______ _______ _______ _____ _____    ______ ____
ROOT
ATOM      1  C   UNL     1       0.632  -0.444   0.000  0.00  0.00    +0.037 C 
ATOM      2  C   UNL     1       1.184  -1.057   0.000  0.00  0.00    +0.185 C 
ATOM      3  C   UNL     1       0.517  -1.542   0.000  0.00  0.00    +0.272 C 
ATOM      4  O   UNL     1      -0.268  -1.287   0.000  0.00  0.00    -0.271 OA
ATOM      5  N   UNL     1       0.772  -2.327   0.000  0.00  0.00    -0.124 NA
ATOM      6  C   UNL     1       1.597  -2.327   0.000  0.00  0.00    +0.347 C 
ATOM      7  O   UNL     1       2.082  -2.994   0.000  0.00  0.00    -0.249 OA
ATOM      8  N   UNL     1       1.851  -1.542   0.000  0.00  0.00    -0.176 NA
ENDROOT
BRANCH   2   9
ATOM      9  C   UNL     1       1.736  -0.444   0.000  0.00  0.00    +0.085 A 
ATOM     10  N   UNL     1       2.543  -0.616   0.000  0.00  0.00    -0.246 NA
ATOM     11  C   UNL     1       3.095  -0.003   0.000  0.00  0.00    +0.099 A 
ATOM     12  C   UNL     1       2.840   0.782   0.000  0.00  0.00    +0.021 A 
ATOM     13  C   UNL     1       2.033   0.954   0.000  0.00  0.00    +0.003 A 
ATOM     14  C   UNL     1       1.481   0.341   0.000  0.00  0.00    +0.017 A 
ENDBRANCH   2   9
TORSDOF 1
