REMARK  Name = 
REMARK  2 active torsions:
REMARK  status: ('A' for Active; 'I' for Inactive)
REMARK    1  A    between atoms: N_3  and  C_4
REMARK    2  A    between atoms: C_14  and  C_16
REMARK                            x       y       z     vdW  Elec       q    Type
REMARK                         _______ _______ _______ _____ _____    ______ ____
ROOT
ATOM      1  O   UNL     1       3.825  -0.990   0.000  0.00  0.00    -0.249 OA
ATOM      2  C   UNL     1       3.004  -1.076   0.000  0.00  0.00    +0.345 C 
ATOM      3  N   UNL     1       2.668  -1.830   0.000  0.00  0.00    -0.134 NA
ATOM      4  C   UNL     1       3.153  -2.498   0.000  0.00  0.00    +0.209 A 
ATOM      5  S   UNL     1       2.898  -3.282   0.000  0.00  0.00    -0.033 S 
ATOM      6  C   UNL     1       3.566  -3.767   0.000  0.00  0.00    +0.112 A 
ATOM      7  N   UNL     1       4.233  -3.282   0.000  0.00  0.00    -0.144 NA
ATOM      8  N   UNL     1       3.978  -2.498   0.000  0.00  0.00    -0.124 NA
ATOM      9  N   UNL     1       2.519  -0.409   0.000  0.00  0.00    -0.188 NA
ENDROOT
BRANCH   9  10
ATOM     10  C   UNL     1       2.855   0.345   0.000  0.00  0.00    +0.108 C 
ATOM     11  C   UNL     1       3.675   0.431   0.000  0.00  0.00    +0.079 C 
ATOM     12  S   UNL     1       4.011   1.185   0.000  0.00  0.00    -0.138 S 
ATOM     13  C   UNL     1       3.526   1.852   0.000  0.00  0.00    +0.058 C 
ATOM     14  C   UNL     1       2.705   1.766   0.000  0.00  0.00    +0.013 C 
ATOM     15  C   UNL     1       2.370   1.012   0.000  0.00  0.00    +0.024 C 
ENDBRANCH   9  10
BRANCH   6  16
ATOM     16  C   UNL     1       3.566  -4.592   0.000  0.00  0.00    +0.048 C 
ATOM     17  C   UNL     1       3.153  -5.306   0.000  0.00  0.00    +0.007 C 
ATOM     18  C   UNL     1       3.978  -5.306   0.000  0.00  0.00    +0.007 C 
ENDBRANCH   6  16
TORSDOF 2
