REMARK  Name = 
REMARK  5 active torsions:
REMARK  status: ('A' for Active; 'I' for Inactive)
REMARK    1  A    between atoms: N_5  and  C_6
REMARK    2  A    between atoms: C_6  and  C_7
REMARK    3  A    between atoms: N_15  and  C_16
REMARK    4  A    between atoms: C_16  and  C_17
REMARK    5  A    between atoms: C_17  and  C_18
REMARK                            x       y       z     vdW  Elec       q    Type
REMARK                         _______ _______ _______ _____ _____    ______ ____
ROOT
ATOM      1  C   UNL     1      -1.429  -2.475   0.000  0.00  0.00    +0.036 C 
ATOM      2  C   UNL     1      -0.715  -2.888   0.000  0.00  0.00    +0.096 C 
ATOM      3  N   UNL     1       0.000  -2.475   0.000  0.00  0.00    -0.263 N 
ATOM      4  C   UNL     1       0.715  -2.888   0.000  0.00  0.00    +0.323 C 
ATOM      5  N   UNL     1       1.429  -2.475   0.000  0.00  0.00    -0.188 NA
ATOM      6  O   UNL     1       0.715  -3.712   0.000  0.00  0.00    -0.251 OA
ATOM      7  C   UNL     1       0.000  -1.650   0.000  0.00  0.00    +0.095 C 
ATOM      8  C   UNL     1      -0.715  -1.238   0.000  0.00  0.00    +0.022 C 
ATOM      9  C   UNL     1      -1.429  -1.650   0.000  0.00  0.00    +0.005 C 
ENDROOT
BRANCH   1  10
ATOM     10  C   UNL     1      -2.143  -2.888   0.000  0.00  0.00    +0.074 C 
BRANCH  10  15
ATOM     11  C   UNL     1      -5.001  -1.238   0.000  0.00  0.00    +0.000 C 
ATOM     12  C   UNL     1      -4.287  -1.650   0.000  0.00  0.00    +0.003 C 
ATOM     13  C   UNL     1      -4.287  -2.475   0.000  0.00  0.00    +0.017 C 
ATOM     14  C   UNL     1      -3.572  -2.888   0.000  0.00  0.00    +0.072 C 
ATOM     15  N   UNL     1      -2.858  -2.475   0.000  0.00  0.00    -0.273 NA
ATOM     16  C   UNL     1      -2.858  -1.650   0.000  0.00  0.00    +0.072 C 
ATOM     17  C   UNL     1      -3.572  -1.238   0.000  0.00  0.00    +0.017 C 
ENDBRANCH  10  15
ENDBRANCH   1  10
BRANCH   5  18
ATOM     18  C   UNL     1       2.143  -2.888   0.000  0.00  0.00    +0.123 C 
BRANCH  18  19
ATOM     19  C   UNL     1       2.858  -2.475   0.000  0.00  0.00    +0.069 C 
BRANCH  19  20
ATOM     20  C   UNL     1       3.572  -2.888   0.000  0.00  0.00    +0.061 A 
ATOM     21  N   UNL     1       3.572  -3.712   0.000  0.00  0.00    -0.248 NA
ATOM     22  C   UNL     1       4.287  -4.125   0.000  0.00  0.00    +0.098 A 
ATOM     23  C   UNL     1       5.001  -3.712   0.000  0.00  0.00    +0.021 A 
ATOM     24  C   UNL     1       5.001  -2.888   0.000  0.00  0.00    +0.003 A 
ATOM     25  C   UNL     1       4.287  -2.475   0.000  0.00  0.00    +0.015 A 
ENDBRANCH  19  20
ENDBRANCH  18  19
ENDBRANCH   5  18
TORSDOF 5
