REMARK  Name = 
REMARK  5 active torsions:
REMARK  status: ('A' for Active; 'I' for Inactive)
REMARK    1  A    between atoms: N_4  and  C_5
REMARK    2  A    between atoms: C_5  and  C_6
REMARK    3  A    between atoms: C_6  and  O_7
REMARK    4  A    between atoms: O_7  and  C_8
REMARK    5  A    between atoms: C_12  and  C_13
REMARK                            x       y       z     vdW  Elec       q    Type
REMARK                         _______ _______ _______ _____ _____    ______ ____
ROOT
ATOM      1  C   UNL     1       4.287  -4.125   0.000  0.00  0.00    +0.158 C 
ENDROOT
BRANCH   1   9
ATOM      2 CL   UNL     1       2.858  -1.650   0.000  0.00  0.00    -0.076 Cl
ATOM      3  C   UNL     1       2.858  -2.475   0.000  0.00  0.00    +0.133 A 
ATOM      4  C   UNL     1       2.143  -2.888   0.000  0.00  0.00    +0.295 A 
ATOM      5  O   UNL     1       1.429  -2.475   0.000  0.00  0.00    -0.264 OA
ATOM      6  N   UNL     1       2.143  -3.712   0.000  0.00  0.00    -0.152 NA
ATOM      7  C   UNL     1       2.858  -4.125   0.000  0.00  0.00    +0.353 A 
ATOM      8  O   UNL     1       2.858  -4.950   0.000  0.00  0.00    -0.244 OA
ATOM      9  N   UNL     1       3.572  -3.712   0.000  0.00  0.00    -0.274 N 
ATOM     10  C   UNL     1       3.572  -2.888   0.000  0.00  0.00    +0.096 A 
ENDBRANCH   1   9
BRANCH   1  11
ATOM     11  C   UNL     1       4.287  -4.950   0.000  0.00  0.00    +0.230 C 
BRANCH  11  12
ATOM     12  O   UNL     1       5.001  -5.362   0.000  0.00  0.00    -0.473 OA
BRANCH  12  13
ATOM     13  C   UNL     1       5.001  -6.188   0.000  0.00  0.00    +0.139 A 
ATOM     14  C   UNL     1       4.287  -6.600   0.000  0.00  0.00    +0.047 A 
ATOM     15  C   UNL     1       4.287  -7.425   0.000  0.00  0.00    +0.071 A 
ATOM     16  C   UNL     1       5.001  -7.838   0.000  0.00  0.00    +0.010 A 
ATOM     17  C   UNL     1       5.716  -7.425   0.000  0.00  0.00    +0.004 A 
ATOM     18  C   UNL     1       5.716  -6.600   0.000  0.00  0.00    +0.037 A 
BRANCH  15  19
ATOM     19  C   UNL     1       3.572  -7.838   0.000  0.00  0.00    +0.101 C 
ATOM     20  N   UNL     1       2.858  -8.250   0.000  0.00  0.00    -0.191 NA
ENDBRANCH  15  19
ENDBRANCH  12  13
ENDBRANCH  11  12
ENDBRANCH   1  11
TORSDOF 5
