REMARK  Name = 
REMARK  3 active torsions:
REMARK  status: ('A' for Active; 'I' for Inactive)
REMARK    1  A    between atoms: C_2  and  C_3
REMARK    2  A    between atoms: C_3  and  C_4
REMARK    3  A    between atoms: C_4  and  N_5
REMARK                            x       y       z     vdW  Elec       q    Type
REMARK                         _______ _______ _______ _____ _____    ______ ____
ROOT
ATOM      1  C   UNL     1       1.066  -1.880   0.000  0.00  0.00    +0.109 C 
ENDROOT
BRANCH   1   3
ATOM      2  O   UNL     1       0.352  -3.117   0.000  0.00  0.00    -0.275 OA
ATOM      3  C   UNL     1       0.352  -2.292   0.000  0.00  0.00    +0.227 C 
ATOM      4  N   UNL     1      -0.363  -1.880   0.000  0.00  0.00    -0.279 N 
ATOM      5  C   UNL     1      -0.301  -1.057   0.000  0.00  0.00    +0.093 C 
ATOM      6  C   UNL     1      -0.906  -0.496   0.000  0.00  0.00    +0.022 C 
ATOM      7  C   UNL     1      -1.722  -0.619   0.000  0.00  0.00    +0.002 C 
ATOM      8  C   UNL     1      -2.134  -1.333   0.000  0.00  0.00    +0.002 C 
ATOM      9  C   UNL     1      -1.833  -2.101   0.000  0.00  0.00    +0.022 C 
ATOM     10  C   UNL     1      -1.044  -2.345   0.000  0.00  0.00    +0.093 C 
ENDBRANCH   1   3
BRANCH   1  11
ATOM     11  C   UNL     1       1.781  -2.292   0.000  0.00  0.00    +0.126 C 
BRANCH  11  12
ATOM     12  N   UNL     1       2.495  -1.880   0.000  0.00  0.00    -0.186 NA
ATOM     13  C   UNL     1       3.210  -2.292   0.000  0.00  0.00    +0.347 C 
ATOM     14  N   UNL     1       3.924  -1.880   0.000  0.00  0.00    -0.108 NA
ATOM     15  C   UNL     1       4.639  -2.292   0.000  0.00  0.00    +0.317 A 
ATOM     16  O   UNL     1       4.725  -3.113   0.000  0.00  0.00    -0.419 OA
ATOM     17  C   UNL     1       5.532  -3.284   0.000  0.00  0.00    +0.204 A 
ATOM     18  C   UNL     1       5.944  -2.570   0.000  0.00  0.00    +0.144 A 
ATOM     19  N   UNL     1       5.392  -1.957   0.000  0.00  0.00    -0.191 NA
ATOM     20  O   UNL     1       3.210  -3.117   0.000  0.00  0.00    -0.249 OA
ENDBRANCH  11  12
ENDBRANCH   1  11
TORSDOF 3
