REMARK  Name = 
REMARK  3 active torsions:
REMARK  status: ('A' for Active; 'I' for Inactive)
REMARK    1  A    between atoms: C_2  and  C_3
REMARK    2  A    between atoms: C_2  and  N_10
REMARK    3  A    between atoms: C_3  and  N_4
REMARK                            x       y       z     vdW  Elec       q    Type
REMARK                         _______ _______ _______ _____ _____    ______ ____
ROOT
ATOM      1  C   UNL     1       3.878  -4.189   0.000  0.00  0.00    +0.025 C 
ATOM      2  C   UNL     1       3.878  -3.364   0.000  0.00  0.00    +0.117 C 
ENDROOT
BRANCH   2   3
ATOM      3  N   UNL     1       4.592  -2.952   0.000  0.00  0.00    -0.187 NA
ATOM      4  C   UNL     1       5.307  -3.364   0.000  0.00  0.00    +0.345 C 
ATOM      5  N   UNL     1       6.021  -2.952   0.000  0.00  0.00    -0.134 NA
ATOM      6  C   UNL     1       6.736  -3.364   0.000  0.00  0.00    +0.209 A 
ATOM      7  S   UNL     1       6.822  -4.185   0.000  0.00  0.00    -0.027 S 
ATOM      8  C   UNL     1       7.629  -4.356   0.000  0.00  0.00    +0.161 A 
ATOM      9  N   UNL     1       8.041  -3.642   0.000  0.00  0.00    -0.137 NA
ATOM     10  N   UNL     1       7.489  -3.029   0.000  0.00  0.00    -0.123 NA
ATOM     11  O   UNL     1       5.307  -4.189   0.000  0.00  0.00    -0.249 OA
ENDBRANCH   2   3
BRANCH   2  12
ATOM     12  C   UNL     1       3.163  -2.952   0.000  0.00  0.00    +0.115 C 
BRANCH  12  13
ATOM     13  N   UNL     1       2.449  -3.364   0.000  0.00  0.00    -0.278 N 
ATOM     14  C   UNL     1       1.695  -3.029   0.000  0.00  0.00    +0.226 C 
ATOM     15  O   UNL     1       1.524  -2.222   0.000  0.00  0.00    -0.275 OA
ATOM     16  C   UNL     1       1.143  -3.642   0.000  0.00  0.00    +0.087 C 
ATOM     17  C   UNL     1       1.556  -4.356   0.000  0.00  0.00    +0.031 C 
ATOM     18  C   UNL     1       2.363  -4.185   0.000  0.00  0.00    +0.094 C 
ENDBRANCH  12  13
ENDBRANCH   2  12
TORSDOF 3
