REMARK  Name = 
REMARK  3 active torsions:
REMARK  status: ('A' for Active; 'I' for Inactive)
REMARK    1  A    between atoms: N_11  and  C_12
REMARK    2  A    between atoms: C_12  and  C_13
REMARK    3  A    between atoms: C_13  and  C_14
REMARK                            x       y       z     vdW  Elec       q    Type
REMARK                         _______ _______ _______ _____ _____    ______ ____
ROOT
ATOM      1  C   UNL     1      -0.473  -0.265   0.000  0.00  0.00    +0.090 C 
ATOM      2  N   UNL     1      -0.008   0.417   0.000  0.00  0.00    -0.270 NA
ATOM      3  C   UNL     1       0.807   0.294   0.000  0.00  0.00    +0.094 C 
ATOM      4  C   UNL     1       1.412   0.855   0.000  0.00  0.00    +0.112 C 
ATOM      5  N   UNL     1       1.351   1.678   0.000  0.00  0.00    -0.261 N 
ATOM      6  C   UNL     1       2.065   2.090   0.000  0.00  0.00    +0.323 C 
ATOM      7  N   UNL     1       2.780   1.678   0.000  0.00  0.00    -0.188 NA
ATOM      8  O   UNL     1       2.065   2.915   0.000  0.00  0.00    -0.251 OA
ATOM      9  C   UNL     1       0.669   2.143   0.000  0.00  0.00    +0.096 C 
ATOM     10  C   UNL     1      -0.119   1.899   0.000  0.00  0.00    +0.039 C 
ATOM     11  C   UNL     1      -0.421   1.131   0.000  0.00  0.00    +0.074 C 
ENDROOT
BRANCH   7  12
ATOM     12  C   UNL     1       3.494   2.090   0.000  0.00  0.00    +0.122 C 
BRANCH  12  13
ATOM     13  C   UNL     1       4.208   1.678   0.000  0.00  0.00    +0.053 C 
BRANCH  13  14
ATOM     14  C   UNL     1       4.923   2.090   0.000  0.00  0.00    +0.019 A 
ATOM     15  C   UNL     1       5.677   1.755   0.000  0.00  0.00    +0.092 A 
ATOM     16  N   UNL     1       6.229   2.368   0.000  0.00  0.00    -0.248 N 
ATOM     17  C   UNL     1       7.049   2.282   0.000  0.00  0.00    +0.154 C 
ATOM     18  N   UNL     1       5.816   3.082   0.000  0.00  0.00    -0.168 NA
ATOM     19  C   UNL     1       5.009   2.911   0.000  0.00  0.00    +0.117 A 
ENDBRANCH  13  14
ENDBRANCH  12  13
ENDBRANCH   7  12
TORSDOF 3
