REMARK  Name = 
REMARK  4 active torsions:
REMARK  status: ('A' for Active; 'I' for Inactive)
REMARK    1  A    between atoms: C_2  and  O_3
REMARK    2  A    between atoms: O_3  and  C_4
REMARK    3  A    between atoms: C_9  and  N_10
REMARK    4  A    between atoms: N_13  and  C_14
REMARK                            x       y       z     vdW  Elec       q    Type
REMARK                         _______ _______ _______ _____ _____    ______ ____
ROOT
ATOM      1  N   UNL     1       5.941  -2.305   0.000  0.00  0.00    -0.156 NA
ATOM      2  C   UNL     1       5.457  -1.638   0.000  0.00  0.00    +0.344 C 
ATOM      3  N   UNL     1       5.792  -0.884   0.000  0.00  0.00    -0.187 NA
ATOM      4  O   UNL     1       4.636  -1.724   0.000  0.00  0.00    -0.249 OA
ENDROOT
BRANCH   3   5
ATOM      5  C   UNL     1       5.307  -0.217   0.000  0.00  0.00    +0.122 C 
ATOM      6  C   UNL     1       5.562   0.568   0.000  0.00  0.00    +0.172 C 
ATOM      7  S   UNL     1       4.895   1.053   0.000  0.00  0.00    -0.008 S 
ATOM      8  O   UNL     1       5.447   1.666   0.000  0.00  0.00    -0.173 OA
ATOM      9  O   UNL     1       4.343   1.666   0.000  0.00  0.00    -0.173 OA
ATOM     10  C   UNL     1       4.227   0.568   0.000  0.00  0.00    +0.153 C 
ATOM     11  C   UNL     1       4.482  -0.217   0.000  0.00  0.00    +0.049 C 
ENDBRANCH   3   5
BRANCH   1  13
ATOM     12  C   UNL     1       6.091  -3.727   0.000  0.00  0.00    +0.241 A 
ATOM     13  C   UNL     1       5.606  -3.059   0.000  0.00  0.00    +0.128 A 
ATOM     14  C   UNL     1       4.785  -3.145   0.000  0.00  0.00    +0.023 A 
ATOM     15  C   UNL     1       4.450  -3.899   0.000  0.00  0.00    +0.022 A 
ATOM     16  C   UNL     1       4.935  -4.566   0.000  0.00  0.00    +0.102 A 
ATOM     17  N   UNL     1       5.755  -4.480   0.000  0.00  0.00    -0.209 NA
BRANCH  12  18
ATOM     18  O   UNL     1       6.911  -3.640   0.000  0.00  0.00    -0.459 OA
BRANCH  18  20
ATOM     19  C   UNL     1       8.217  -4.221   0.000  0.00  0.00    +0.051 C 
ATOM     20  C   UNL     1       7.396  -4.308   0.000  0.00  0.00    +0.207 C 
ENDBRANCH  18  20
ENDBRANCH  12  18
ENDBRANCH   1  13
TORSDOF 4
