REMARK  Name = 
REMARK  4 active torsions:
REMARK  status: ('A' for Active; 'I' for Inactive)
REMARK    1  A    between atoms: C_2  and  C_4
REMARK    2  A    between atoms: C_4  and  N_6
REMARK    3  A    between atoms: C_7  and  C_9
REMARK    4  A    between atoms: C_9  and  C_11
REMARK                            x       y       z     vdW  Elec       q    Type
REMARK                         _______ _______ _______ _____ _____    ______ ____
ROOT
ATOM      1  C   UNL     1       6.021  -2.952   0.000  0.00  0.00    +0.103 C 
ATOM      2  C   UNL     1       6.021  -2.127   0.000  0.00  0.00    +0.014 C 
ENDROOT
BRANCH   1   3
ATOM      3  C   UNL     1       6.736  -3.364   0.000  0.00  0.00    +0.017 A 
ATOM      4  C   UNL     1       6.822  -4.185   0.000  0.00  0.00    +0.079 A 
ATOM      5  C   UNL     1       6.209  -4.737   0.000  0.00  0.00    +0.054 C 
ATOM      6  N   UNL     1       7.629  -4.356   0.000  0.00  0.00    -0.153 NA
ATOM      7  N   UNL     1       8.041  -3.642   0.000  0.00  0.00    -0.153 NA
ATOM      8  C   UNL     1       7.489  -3.029   0.000  0.00  0.00    +0.079 A 
ATOM      9  C   UNL     1       7.661  -2.222   0.000  0.00  0.00    +0.054 C 
ENDBRANCH   1   3
BRANCH   1  11
ATOM     10  N   UNL     1       4.592  -2.952   0.000  0.00  0.00    -0.207 NA
ATOM     11  C   UNL     1       5.307  -3.364   0.000  0.00  0.00    +0.245 C 
ATOM     12  O   UNL     1       5.307  -4.189   0.000  0.00  0.00    -0.273 OA
BRANCH  10  13
ATOM     13  C   UNL     1       3.878  -3.364   0.000  0.00  0.00    +0.095 C 
ATOM     14  C   UNL     1       3.878  -4.189   0.000  0.00  0.00    +0.023 C 
BRANCH  13  16
ATOM     15  C   UNL     1       2.449  -3.364   0.000  0.00  0.00    +0.002 C 
ATOM     16  C   UNL     1       3.163  -2.952   0.000  0.00  0.00    +0.020 C 
ATOM     17  C   UNL     1       3.163  -2.127   0.000  0.00  0.00    +0.002 C 
ENDBRANCH  13  16
ENDBRANCH  10  13
ENDBRANCH   1  11
TORSDOF 4
