REMARK  Name = 
REMARK  3 active torsions:
REMARK  status: ('A' for Active; 'I' for Inactive)
REMARK    1  A    between atoms: C_4  and  N_5
REMARK    2  A    between atoms: N_8  and  C_9
REMARK    3  A    between atoms: N_12  and  C_15
REMARK                            x       y       z     vdW  Elec       q    Type
REMARK                         _______ _______ _______ _____ _____    ______ ____
ROOT
ATOM      1  N   UNL     1       0.000   7.553   0.000  0.00  0.00    -0.142 NA
ATOM      2  C   UNL     1       0.000   6.728   0.000  0.00  0.00    +0.345 C 
ATOM      3  N   UNL     1       0.715   6.315   0.000  0.00  0.00    -0.189 NA
ATOM      4  O   UNL     1      -0.715   6.315   0.000  0.00  0.00    -0.249 OA
ENDROOT
BRANCH   1  10
ATOM      5  C   UNL     1      -1.943   9.711   0.000  0.00  0.00    +0.054 C 
ATOM      6  C   UNL     1      -1.608   8.957   0.000  0.00  0.00    +0.082 A 
ATOM      7  N   UNL     1      -2.020   8.243   0.000  0.00  0.00    -0.172 NA
ATOM      8  N   UNL     1      -1.468   7.630   0.000  0.00  0.00    -0.234 N 
ATOM      9  C   UNL     1      -1.640   6.823   0.000  0.00  0.00    +0.155 C 
ATOM     10  C   UNL     1      -0.715   7.965   0.000  0.00  0.00    +0.154 A 
ATOM     11  C   UNL     1      -0.801   8.786   0.000  0.00  0.00    +0.052 A 
ENDBRANCH   1  10
BRANCH   3  12
ATOM     12  C   UNL     1       0.715   5.490   0.000  0.00  0.00    +0.100 C 
ATOM     13  C   UNL     1       0.000   5.078   0.000  0.00  0.00    +0.039 C 
ATOM     14  C   UNL     1       0.000   4.253   0.000  0.00  0.00    +0.074 C 
ATOM     15  N   UNL     1       0.715   3.840   0.000  0.00  0.00    -0.274 NA
ATOM     16  C   UNL     1       1.429   4.253   0.000  0.00  0.00    +0.074 C 
ATOM     17  C   UNL     1       1.429   5.078   0.000  0.00  0.00    +0.039 C 
BRANCH  15  18
ATOM     18  C   UNL     1       0.715   3.015   0.000  0.00  0.00    +0.058 C 
ATOM     19  C   UNL     1       0.302   2.301   0.000  0.00  0.00    +0.017 C 
ATOM     20  C   UNL     1       1.127   2.301   0.000  0.00  0.00    +0.017 C 
ENDBRANCH  15  18
ENDBRANCH   3  12
TORSDOF 3
