REMARK  Name = 
REMARK  6 active torsions:
REMARK  status: ('A' for Active; 'I' for Inactive)
REMARK    1  A    between atoms: O_2  and  C_3
REMARK    2  A    between atoms: C_8  and  O_9
REMARK    3  A    between atoms: O_9  and  C_10
REMARK    4  A    between atoms: C_10  and  C_11
REMARK    5  A    between atoms: C_11  and  N_12
REMARK    6  A    between atoms: C_13  and  C_21
REMARK                            x       y       z     vdW  Elec       q    Type
REMARK                         _______ _______ _______ _____ _____    ______ ____
ROOT
ATOM      1  N   UNL     1       1.139  -1.365   0.000  0.00  0.00    -0.309 N 
ATOM      2  C   UNL     1       1.923  -1.110   0.000  0.00  0.00    +0.079 A 
ATOM      3  C   UNL     1       1.923  -0.285   0.000  0.00  0.00    +0.098 A 
ATOM      4  C   UNL     1       2.638   0.127   0.000  0.00  0.00    +0.021 A 
ATOM      5  C   UNL     1       3.352  -0.285   0.000  0.00  0.00    +0.002 A 
ATOM      6  C   UNL     1       3.352  -1.110   0.000  0.00  0.00    +0.002 A 
ATOM      7  N   UNL     1       1.139  -0.030   0.000  0.00  0.00    -0.228 NA
ATOM      8  C   UNL     1       2.638  -1.523   0.000  0.00  0.00    +0.019 A 
ATOM      9  C   UNL     1       0.654  -0.698   0.000  0.00  0.00    +0.148 A 
ENDROOT
BRANCH   9  10
ATOM     10  C   UNL     1      -0.171  -0.698   0.000  0.00  0.00    +0.176 C 
ATOM     11  O   UNL     1      -0.171  -1.523   0.000  0.00  0.00    -0.218 OA
ATOM     12  C   UNL     1      -0.171   0.127   0.000  0.00  0.00    +0.041 C 
ATOM     13  C   UNL     1      -0.996  -0.698   0.000  0.00  0.00    +0.041 C 
ENDBRANCH   9  10
BRANCH   1  14
ATOM     14  C   UNL     1       0.884  -2.150   0.000  0.00  0.00    +0.154 C 
BRANCH  14  15
ATOM     15  C   UNL     1       0.077  -2.321   0.000  0.00  0.00    +0.230 C 
BRANCH  15  16
ATOM     16  O   UNL     1      -0.178  -3.106   0.000  0.00  0.00    -0.470 OA
BRANCH  16  18
ATOM     17  C   UNL     1      -1.240  -4.062   0.000  0.00  0.00    +0.172 A 
ATOM     18  C   UNL     1      -0.985  -3.278   0.000  0.00  0.00    +0.172 A 
ATOM     19  C   UNL     1      -1.537  -2.665   0.000  0.00  0.00    +0.040 A 
ATOM     20  C   UNL     1      -2.344  -2.836   0.000  0.00  0.00    +0.003 A 
ATOM     21  C   UNL     1      -2.599  -3.621   0.000  0.00  0.00    +0.003 A 
ATOM     22  C   UNL     1      -2.047  -4.234   0.000  0.00  0.00    +0.040 A 
BRANCH  17  24
ATOM     23  C   UNL     1      -0.943  -5.460   0.000  0.00  0.00    +0.253 C 
ATOM     24  O   UNL     1      -0.688  -4.675   0.000  0.00  0.00    -0.468 OA
ENDBRANCH  17  24
ENDBRANCH  16  18
ENDBRANCH  15  16
ENDBRANCH  14  15
ENDBRANCH   1  14
TORSDOF 6
