REMARK  Name = 
REMARK  2 active torsions:
REMARK  status: ('A' for Active; 'I' for Inactive)
REMARK    1  A    between atoms: C_8  and  C_9
REMARK    2  A    between atoms: C_9  and  C_11
REMARK                            x       y       z     vdW  Elec       q    Type
REMARK                         _______ _______ _______ _____ _____    ______ ____
ROOT
ATOM      1 CL   UNL     1       0.000   0.000   0.000  0.00  0.00    +0.000 Cl
ENDROOT
TORSDOF 0
REMARK  Name = 
REMARK  2 active torsions:
REMARK  status: ('A' for Active; 'I' for Inactive)
REMARK    1  A    between atoms: C_8  and  C_9
REMARK    2  A    between atoms: C_9  and  C_11
REMARK                            x       y       z     vdW  Elec       q    Type
REMARK                         _______ _______ _______ _____ _____    ______ ____
ROOT
ATOM      1  C   UNL     1       4.029   0.928   0.000  0.00  0.00    +0.032 C 
ATOM      2  C   UNL     1       4.029   0.103   0.000  0.00  0.00    -0.005 A 
ATOM      3  C   UNL     1       3.315  -0.309   0.000  0.00  0.00    +0.096 A 
ATOM      4  N   UNL     1       3.315  -1.134   0.000  0.00  0.00    -0.245 NA
ATOM      5  C   UNL     1       4.029  -1.547   0.000  0.00  0.00    +0.099 A 
ATOM      6  C   UNL     1       4.744  -1.134   0.000  0.00  0.00    +0.020 A 
ATOM      7  C   UNL     1       4.744  -0.309   0.000  0.00  0.00    -0.001 A 
ENDROOT
BRANCH   3   8
ATOM      8  C   UNL     1       2.600   0.103   0.000  0.00  0.00    +0.293 C 
ATOM      9  O   UNL     1       1.886  -0.309   0.000  0.00  0.00    -0.204 OA
BRANCH   8  10
ATOM     10  C   UNL     1       2.600   0.928   0.000  0.00  0.00    +0.400 C 
ATOM     11  O   UNL     1       3.315   1.341   0.000  0.00  0.00    -0.242 OA
ATOM     12  O   UNL     1       1.886   1.341   0.000  0.00  0.00    -0.242 OA
ENDBRANCH   8  10
ENDBRANCH   3   8
TORSDOF 2
