REMARK  Name = 
REMARK  5 active torsions:
REMARK  status: ('A' for Active; 'I' for Inactive)
REMARK    1  A    between atoms: C_2  and  C_3
REMARK    2  A    between atoms: C_2  and  C_10
REMARK    3  A    between atoms: C_3  and  N_4
REMARK    4  A    between atoms: C_10  and  N_11
REMARK    5  A    between atoms: C_12  and  C_20
REMARK                            x       y       z     vdW  Elec       q    Type
REMARK                         _______ _______ _______ _____ _____    ______ ____
ROOT
ATOM      1  N   UNL     1       1.139  -1.365   0.000  0.00  0.00    -0.306 N 
ATOM      2  C   UNL     1       1.923  -1.110   0.000  0.00  0.00    +0.079 A 
ATOM      3  C   UNL     1       1.923  -0.285   0.000  0.00  0.00    +0.099 A 
ATOM      4  C   UNL     1       2.638   0.127   0.000  0.00  0.00    +0.021 A 
ATOM      5  C   UNL     1       3.352  -0.285   0.000  0.00  0.00    +0.002 A 
ATOM      6  C   UNL     1       3.352  -1.110   0.000  0.00  0.00    +0.002 A 
ATOM      7  N   UNL     1       1.139  -0.030   0.000  0.00  0.00    -0.223 NA
ATOM      8  C   UNL     1       2.638  -1.523   0.000  0.00  0.00    +0.019 A 
ATOM      9  C   UNL     1       0.654  -0.698   0.000  0.00  0.00    +0.217 A 
ENDROOT
BRANCH   9  10
ATOM     10  C   UNL     1      -0.171  -0.698   0.000  0.00  0.00    +0.451 C 
ATOM     11  F   UNL     1      -0.171  -1.523   0.000  0.00  0.00    -0.163 F 
ATOM     12  F   UNL     1      -0.171   0.127   0.000  0.00  0.00    -0.163 F 
ATOM     13  F   UNL     1      -0.996  -0.698   0.000  0.00  0.00    -0.163 F 
ENDBRANCH   9  10
BRANCH   1  14
ATOM     14  C   UNL     1       0.884  -2.150   0.000  0.00  0.00    +0.142 C 
BRANCH  14  16
ATOM     15  O   UNL     1       2.243  -2.592   0.000  0.00  0.00    -0.220 OA
ATOM     16  C   UNL     1       1.436  -2.763   0.000  0.00  0.00    +0.190 C 
BRANCH  16  17
ATOM     17  C   UNL     1       1.181  -3.548   0.000  0.00  0.00    +0.108 C 
BRANCH  17  18
ATOM     18  N   UNL     1       0.374  -3.719   0.000  0.00  0.00    -0.266 NA
ATOM     19  C   UNL     1      -0.178  -3.106   0.000  0.00  0.00    +0.105 C 
ATOM     20  C   UNL     1      -0.985  -3.278   0.000  0.00  0.00    +0.159 C 
ATOM     21  O   UNL     1      -1.240  -4.062   0.000  0.00  0.00    -0.351 OA
ATOM     22  C   UNL     1      -0.688  -4.675   0.000  0.00  0.00    +0.159 C 
ATOM     23  C   UNL     1       0.119  -4.504   0.000  0.00  0.00    +0.105 C 
ENDBRANCH  17  18
ENDBRANCH  16  17
ENDBRANCH  14  16
ENDBRANCH   1  14
TORSDOF 5
