REMARK  Name = 
REMARK  5 active torsions:
REMARK  status: ('A' for Active; 'I' for Inactive)
REMARK    1  A    between atoms: N_2  and  C_3
REMARK    2  A    between atoms: N_2  and  C_15
REMARK    3  A    between atoms: C_3  and  C_4
REMARK    4  A    between atoms: C_4  and  N_5
REMARK    5  A    between atoms: N_8  and  C_9
REMARK                            x       y       z     vdW  Elec       q    Type
REMARK                         _______ _______ _______ _____ _____    ______ ____
ROOT
ATOM      1  C   UNL     1       2.143  -2.062   0.000  0.00  0.00    +0.134 C 
ENDROOT
BRANCH   1   2
ATOM      2  N   UNL     1       2.858  -1.650   0.000  0.00  0.00    -0.185 NA
ATOM      3  C   UNL     1       3.572  -2.062   0.000  0.00  0.00    +0.344 C 
ATOM      4  N   UNL     1       4.287  -1.650   0.000  0.00  0.00    -0.161 NA
ATOM      5  O   UNL     1       3.572  -2.888   0.000  0.00  0.00    -0.249 OA
BRANCH   4   6
ATOM      6  C   UNL     1       5.001  -2.062   0.000  0.00  0.00    +0.078 A 
ATOM      7  C   UNL     1       5.001  -2.888   0.000  0.00  0.00    +0.037 A 
ATOM      8  C   UNL     1       5.716  -3.300   0.000  0.00  0.00    +0.100 A 
ATOM      9  N   UNL     1       6.430  -2.888   0.000  0.00  0.00    -0.242 NA
ATOM     10  C   UNL     1       6.430  -2.062   0.000  0.00  0.00    +0.100 A 
ATOM     11  C   UNL     1       5.716  -1.650   0.000  0.00  0.00    +0.037 A 
ENDBRANCH   4   6
ENDBRANCH   1   2
BRANCH   1  12
ATOM     12  C   UNL     1       1.429  -1.650   0.000  0.00  0.00    +0.096 C 
BRANCH  12  14
ATOM     13  C   UNL     1       0.715  -2.888   0.000  0.00  0.00    +0.090 C 
ATOM     14  N   UNL     1       0.715  -2.062   0.000  0.00  0.00    -0.271 NA
BRANCH  14  15
ATOM     15  C   UNL     1       0.000  -1.650   0.000  0.00  0.00    +0.058 C 
ATOM     16  C   UNL     1       0.000  -0.825   0.000  0.00  0.00    +0.016 C 
ATOM     17  C   UNL     1      -0.715  -0.412   0.000  0.00  0.00    +0.001 C 
ATOM     18  C   UNL     1      -1.429  -0.825   0.000  0.00  0.00    +0.000 C 
ATOM     19  C   UNL     1      -1.429  -1.650   0.000  0.00  0.00    +0.001 C 
ATOM     20  C   UNL     1      -0.715  -2.062   0.000  0.00  0.00    +0.016 C 
ENDBRANCH  14  15
ENDBRANCH  12  14
ENDBRANCH   1  12
TORSDOF 5
