REMARK  Name = 
REMARK  4 active torsions:
REMARK  status: ('A' for Active; 'I' for Inactive)
REMARK    1  A    between atoms: C_6  and  C_8
REMARK    2  A    between atoms: C_8  and  N_9
REMARK    3  A    between atoms: C_12  and  C_13
REMARK    4  A    between atoms: N_16  and  C_17
REMARK                            x       y       z     vdW  Elec       q    Type
REMARK                         _______ _______ _______ _____ _____    ______ ____
ROOT
ATOM      1  N   UNL     1       5.716  -4.125   0.000  0.00  0.00    -0.239 N 
ATOM      2  C   UNL     1       5.716  -4.950   0.000  0.00  0.00    +0.334 A 
ATOM      3  O   UNL     1       5.001  -5.362   0.000  0.00  0.00    -0.246 OA
ATOM      4  N   UNL     1       6.430  -5.362   0.000  0.00  0.00    -0.281 N 
ATOM      5  C   UNL     1       7.145  -4.950   0.000  0.00  0.00    +0.095 A 
ATOM      6  C   UNL     1       7.145  -4.125   0.000  0.00  0.00    +0.142 A 
ATOM      7  C   UNL     1       6.430  -3.712   0.000  0.00  0.00    +0.276 A 
ATOM      8  O   UNL     1       6.430  -2.888   0.000  0.00  0.00    -0.266 OA
ENDROOT
BRANCH   4   9
ATOM      9  C   UNL     1       6.430  -6.188   0.000  0.00  0.00    +0.090 C 
ATOM     10  C   UNL     1       6.018  -6.902   0.000  0.00  0.00    +0.025 C 
ATOM     11  C   UNL     1       6.843  -6.902   0.000  0.00  0.00    +0.025 C 
ENDBRANCH   4   9
BRANCH   6  12
ATOM     12  C   UNL     1       7.859  -3.712   0.000  0.00  0.00    +0.107 C 
ATOM     13  N   UNL     1       8.574  -3.300   0.000  0.00  0.00    -0.191 NA
ENDBRANCH   6  12
BRANCH   1  14
ATOM     14  C   UNL     1       5.001  -3.712   0.000  0.00  0.00    +0.201 C 
BRANCH  14  19
ATOM     15  C   UNL     1       1.429  -4.125   0.000  0.00  0.00    +0.140 C 
ATOM     16  N   UNL     1       2.143  -3.712   0.000  0.00  0.00    -0.185 NA
ATOM     17  C   UNL     1       2.858  -4.125   0.000  0.00  0.00    +0.346 C 
ATOM     18  N   UNL     1       3.572  -3.712   0.000  0.00  0.00    -0.125 NA
ATOM     19  C   UNL     1       4.287  -4.125   0.000  0.00  0.00    +0.272 C 
ATOM     20  O   UNL     1       4.287  -4.950   0.000  0.00  0.00    -0.271 OA
ATOM     21  O   UNL     1       2.858  -4.950   0.000  0.00  0.00    -0.249 OA
ENDBRANCH  14  19
ENDBRANCH   1  14
TORSDOF 4
