REMARK  Name = 
REMARK  4 active torsions:
REMARK  status: ('A' for Active; 'I' for Inactive)
REMARK    1  A    between atoms: C_5  and  C_6
REMARK    2  A    between atoms: C_6  and  C_7
REMARK    3  A    between atoms: C_7  and  N_8
REMARK    4  A    between atoms: C_9  and  C_11
REMARK                            x       y       z     vdW  Elec       q    Type
REMARK                         _______ _______ _______ _____ _____    ______ ____
ROOT
ATOM      1  C   UNL     1       0.000   2.475   0.000  0.00  0.00    +0.120 C 
ENDROOT
BRANCH   1   2
ATOM      2  N   UNL     1       0.715   2.062   0.000  0.00  0.00    -0.203 NA
ATOM      3  C   UNL     1       1.429   2.475   0.000  0.00  0.00    +0.269 C 
ATOM      4  O   UNL     1       1.429   3.300   0.000  0.00  0.00    -0.271 OA
BRANCH   3   5
ATOM      5  C   UNL     1       2.143   2.062   0.000  0.00  0.00    +0.193 C 
ATOM      6  O   UNL     1       2.230   1.242   0.000  0.00  0.00    -0.347 OA
ATOM      7  C   UNL     1       3.037   1.071   0.000  0.00  0.00    +0.143 C 
ATOM      8  C   UNL     1       3.449   1.785   0.000  0.00  0.00    +0.035 C 
ATOM      9  C   UNL     1       2.897   2.398   0.000  0.00  0.00    +0.042 C 
ENDBRANCH   3   5
ENDBRANCH   1   2
BRANCH   1  10
ATOM     10  C   UNL     1      -0.715   2.062   0.000  0.00  0.00    +0.051 C 
BRANCH  10  15
ATOM     11  C   UNL     1      -3.572   3.712   0.000  0.00  0.00    +0.052 C 
ATOM     12  C   UNL     1      -2.858   3.300   0.000  0.00  0.00    +0.059 A 
ATOM     13  N   UNL     1      -2.858   2.475   0.000  0.00  0.00    -0.248 NA
ATOM     14  C   UNL     1      -2.143   2.062   0.000  0.00  0.00    +0.094 A 
ATOM     15  C   UNL     1      -1.429   2.475   0.000  0.00  0.00    -0.001 A 
ATOM     16  C   UNL     1      -1.429   3.300   0.000  0.00  0.00    -0.001 A 
ATOM     17  C   UNL     1      -2.143   3.712   0.000  0.00  0.00    +0.014 A 
ENDBRANCH  10  15
ENDBRANCH   1  10
TORSDOF 4
