REMARK  Name = 
REMARK  3 active torsions:
REMARK  status: ('A' for Active; 'I' for Inactive)
REMARK    1  A    between atoms: C_2  and  C_3
REMARK    2  A    between atoms: C_3  and  N_4
REMARK    3  A    between atoms: C_3  and  C_10
REMARK                            x       y       z     vdW  Elec       q    Type
REMARK                         _______ _______ _______ _____ _____    ______ ____
ROOT
ATOM      1  C   UNL     1       2.143  -0.412   0.000  0.00  0.00    +0.101 C 
ENDROOT
BRANCH   1   2
ATOM      2  C   UNL     1       2.858   0.000   0.000  0.00  0.00    +0.013 A 
ATOM      3  C   UNL     1       3.572  -0.412   0.000  0.00  0.00    +0.096 A 
ATOM      4  N   UNL     1       4.287   0.000   0.000  0.00  0.00    -0.243 NA
ATOM      5  C   UNL     1       4.287   0.825   0.000  0.00  0.00    +0.099 A 
ATOM      6  C   UNL     1       3.572   1.238   0.000  0.00  0.00    +0.020 A 
ATOM      7  C   UNL     1       2.858   0.825   0.000  0.00  0.00    +0.000 A 
ENDBRANCH   1   2
BRANCH   1   8
ATOM      8  N   UNL     1       2.143  -1.238   0.000  0.00  0.00    -0.265 NA
ATOM      9  C   UNL     1       1.429  -1.650   0.000  0.00  0.00    +0.105 C 
ATOM     10  C   UNL     1       1.429  -2.475   0.000  0.00  0.00    +0.159 C 
ATOM     11  O   UNL     1       2.143  -2.888   0.000  0.00  0.00    -0.351 OA
ATOM     12  C   UNL     1       2.858  -2.475   0.000  0.00  0.00    +0.159 C 
ATOM     13  C   UNL     1       2.858  -1.650   0.000  0.00  0.00    +0.105 C 
ENDBRANCH   1   8
BRANCH   1  15
ATOM     14  N   UNL     1       1.429   0.825   0.000  0.00  0.00    -0.130 NA
ATOM     15  C   UNL     1       1.429   0.000   0.000  0.00  0.00    +0.130 C 
ENDBRANCH   1  15
TORSDOF 3
