REMARK  Name = 
REMARK  4 active torsions:
REMARK  status: ('A' for Active; 'I' for Inactive)
REMARK    1  A    between atoms: C_2  and  C_3
REMARK    2  A    between atoms: C_2  and  N_12
REMARK    3  A    between atoms: C_3  and  C_4
REMARK    4  A    between atoms: N_15  and  C_16
REMARK                            x       y       z     vdW  Elec       q    Type
REMARK                         _______ _______ _______ _____ _____    ______ ____
ROOT
ATOM      1  C   UNL     1       3.878  -4.189   0.000  0.00  0.00    +0.024 C 
ATOM      2  C   UNL     1       3.878  -3.364   0.000  0.00  0.00    +0.101 C 
ENDROOT
BRANCH   2   3
ATOM      3  N   UNL     1       4.592  -2.952   0.000  0.00  0.00    -0.189 NA
ATOM      4  C   UNL     1       5.307  -3.364   0.000  0.00  0.00    +0.339 C 
ATOM      5  N   UNL     1       6.021  -2.952   0.000  0.00  0.00    -0.189 NA
ATOM      6  O   UNL     1       5.307  -4.189   0.000  0.00  0.00    -0.249 OA
BRANCH   5   7
ATOM      7  C   UNL     1       6.736  -3.364   0.000  0.00  0.00    +0.097 C 
ATOM      8  C   UNL     1       6.822  -4.185   0.000  0.00  0.00    +0.020 C 
ATOM      9  C   UNL     1       6.209  -4.737   0.000  0.00  0.00    +0.002 C 
ATOM     10  C   UNL     1       7.629  -4.356   0.000  0.00  0.00    +0.002 C 
ATOM     11  C   UNL     1       8.041  -3.642   0.000  0.00  0.00    +0.002 C 
ATOM     12  C   UNL     1       7.489  -3.029   0.000  0.00  0.00    +0.022 C 
ENDBRANCH   5   7
ENDBRANCH   2   3
BRANCH   2  13
ATOM     13  C   UNL     1       3.163  -2.952   0.000  0.00  0.00    +0.050 C 
BRANCH  13  14
ATOM     14  C   UNL     1       2.449  -3.364   0.000  0.00  0.00    +0.008 A 
ATOM     15  C   UNL     1       1.695  -3.029   0.000  0.00  0.00    +0.053 A 
ATOM     16  C   UNL     1       1.524  -2.222   0.000  0.00  0.00    +0.051 C 
ATOM     17  N   UNL     1       1.143  -3.642   0.000  0.00  0.00    -0.253 N 
ATOM     18  C   UNL     1       0.323  -3.556   0.000  0.00  0.00    +0.153 C 
ATOM     19  N   UNL     1       1.556  -4.356   0.000  0.00  0.00    -0.174 NA
ATOM     20  C   UNL     1       2.363  -4.185   0.000  0.00  0.00    +0.076 A 
ATOM     21  C   UNL     1       2.976  -4.737   0.000  0.00  0.00    +0.054 C 
ENDBRANCH  13  14
ENDBRANCH   2  13
TORSDOF 4
