REMARK  Name = 
REMARK  5 active torsions:
REMARK  status: ('A' for Active; 'I' for Inactive)
REMARK    1  A    between atoms: C_2  and  N_3
REMARK    2  A    between atoms: C_7  and  N_9
REMARK    3  A    between atoms: N_9  and  S_10
REMARK    4  A    between atoms: S_10  and  C_13
REMARK    5  A    between atoms: C_13  and  C_14
REMARK                            x       y       z     vdW  Elec       q    Type
REMARK                         _______ _______ _______ _____ _____    ______ ____
ROOT
ATOM      1  N   UNL     1       2.228  -4.070   0.000  0.00  0.00    -0.082 NA
ENDROOT
BRANCH   1   4
ATOM      2  N   UNL     1       3.125  -2.133   0.000  0.00  0.00    -0.271 NA
ATOM      3  C   UNL     1       2.458  -2.618   0.000  0.00  0.00    +0.092 C 
ATOM      4  C   UNL     1       2.713  -3.402   0.000  0.00  0.00    +0.115 C 
ATOM      5  C   UNL     1       3.538  -3.402   0.000  0.00  0.00    +0.035 C 
ATOM      6  C   UNL     1       4.023  -4.070   0.000  0.00  0.00    +0.003 C 
ATOM      7  C   UNL     1       3.793  -2.618   0.000  0.00  0.00    +0.074 C 
BRANCH   2   9
ATOM      8  C   UNL     1       3.840  -0.895   0.000  0.00  0.00    +0.019 C 
ATOM      9  C   UNL     1       3.125  -1.308   0.000  0.00  0.00    +0.072 C 
ENDBRANCH   2   9
ENDBRANCH   1   4
BRANCH   1  10
ATOM     10  S   UNL     1       2.563  -4.824   0.000  0.00  0.00    +0.063 S 
ATOM     11  O   UNL     1       3.317  -4.488   0.000  0.00  0.00    -0.156 OA
ATOM     12  O   UNL     1       1.810  -5.159   0.000  0.00  0.00    -0.156 OA
BRANCH  10  13
ATOM     13  C   UNL     1       2.899  -5.577   0.000  0.00  0.00    +0.219 C 
BRANCH  13  14
ATOM     14  C   UNL     1       2.414  -6.245   0.000  0.00  0.00    +0.126 A 
ATOM     15  N   UNL     1       1.589  -6.245   0.000  0.00  0.00    -0.079 NA
ATOM     16  O   UNL     1       1.334  -7.029   0.000  0.00  0.00    -0.350 OA
ATOM     17  C   UNL     1       2.002  -7.514   0.000  0.00  0.00    +0.214 A 
ATOM     18  C   UNL     1       2.669  -7.029   0.000  0.00  0.00    +0.063 A 
ENDBRANCH  13  14
ENDBRANCH  10  13
ENDBRANCH   1  10
TORSDOF 5
