REMARK  Name = 
REMARK  4 active torsions:
REMARK  status: ('A' for Active; 'I' for Inactive)
REMARK    1  A    between atoms: N_2  and  C_3
REMARK    2  A    between atoms: N_10  and  C_11
REMARK    3  A    between atoms: C_11  and  C_12
REMARK    4  A    between atoms: C_12  and  C_14
REMARK                            x       y       z     vdW  Elec       q    Type
REMARK                         _______ _______ _______ _____ _____    ______ ____
ROOT
ATOM      1  C   UNL     1       3.279   1.238   0.000  0.00  0.00    +0.168 A 
ATOM      2  C   UNL     1       2.564   0.825   0.000  0.00  0.00    +0.131 A 
ATOM      3  C   UNL     1       2.564   0.000   0.000  0.00  0.00    +0.184 A 
ATOM      4  N   UNL     1       1.780  -0.255   0.000  0.00  0.00    -0.205 NA
ATOM      5  C   UNL     1       1.295   0.412   0.000  0.00  0.00    +0.180 A 
ATOM      6  N   UNL     1       3.279  -0.412   0.000  0.00  0.00    -0.203 NA
ATOM      7  C   UNL     1       3.993   0.000   0.000  0.00  0.00    +0.202 A 
ATOM      8  N   UNL     1       1.780   1.080   0.000  0.00  0.00    -0.303 N 
ATOM      9  N   UNL     1       3.993   0.825   0.000  0.00  0.00    -0.206 NA
ENDROOT
BRANCH   1  11
ATOM     10  C   UNL     1       3.993   2.475   0.000  0.00  0.00    +0.137 C 
ATOM     11  N   UNL     1       3.279   2.062   0.000  0.00  0.00    -0.217 NA
ENDBRANCH   1  11
BRANCH   8  12
ATOM     12  C   UNL     1       1.525   1.865   0.000  0.00  0.00    +0.145 C 
BRANCH  12  13
ATOM     13  C   UNL     1       0.718   2.036   0.000  0.00  0.00    +0.198 C 
ATOM     14  O   UNL     1       0.166   1.423   0.000  0.00  0.00    -0.216 OA
BRANCH  13  15
ATOM     15  C   UNL     1       0.463   2.821   0.000  0.00  0.00    +0.020 A 
ATOM     16  C   UNL     1       1.015   3.434   0.000  0.00  0.00    +0.056 A 
ATOM     17 CL   UNL     1       1.822   3.262   0.000  0.00  0.00    -0.082 Cl
ATOM     18  C   UNL     1       0.760   4.218   0.000  0.00  0.00    +0.011 A 
ATOM     19  C   UNL     1      -0.047   4.390   0.000  0.00  0.00    +0.001 A 
ATOM     20  C   UNL     1      -0.599   3.777   0.000  0.00  0.00    -0.000 A 
ATOM     21  C   UNL     1      -0.344   2.992   0.000  0.00  0.00    -0.001 A 
ENDBRANCH  13  15
ENDBRANCH  12  13
ENDBRANCH   8  12
TORSDOF 4
