REMARK  Name = 
REMARK  2 active torsions:
REMARK  status: ('A' for Active; 'I' for Inactive)
REMARK    1  A    between atoms: C_7  and  N_8
REMARK    2  A    between atoms: N_11  and  C_12
REMARK                            x       y       z     vdW  Elec       q    Type
REMARK                         _______ _______ _______ _____ _____    ______ ____
ROOT
ATOM      1  N   UNL     1       1.429  -2.475   0.000  0.00  0.00    -0.159 NA
ATOM      2  C   UNL     1       1.429  -1.650   0.000  0.00  0.00    +0.344 C 
ATOM      3  N   UNL     1       0.715  -1.238   0.000  0.00  0.00    -0.184 NA
ATOM      4  O   UNL     1       2.143  -1.238   0.000  0.00  0.00    -0.249 OA
ENDROOT
BRANCH   1   7
ATOM      5  F   UNL     1       2.858  -1.650   0.000  0.00  0.00    -0.201 F 
ATOM      6  C   UNL     1       2.858  -2.475   0.000  0.00  0.00    +0.174 A 
ATOM      7  C   UNL     1       2.143  -2.888   0.000  0.00  0.00    +0.105 A 
ATOM      8  C   UNL     1       2.143  -3.712   0.000  0.00  0.00    +0.040 A 
ATOM      9  C   UNL     1       2.858  -4.125   0.000  0.00  0.00    +0.100 A 
ATOM     10  N   UNL     1       3.572  -3.712   0.000  0.00  0.00    -0.240 NA
ATOM     11  C   UNL     1       3.572  -2.888   0.000  0.00  0.00    +0.130 A 
ENDBRANCH   1   7
BRANCH   3  12
ATOM     12  C   UNL     1       0.715  -0.412   0.000  0.00  0.00    +0.119 C 
ATOM     13  C   UNL     1       1.429   0.000   0.000  0.00  0.00    -0.009 C 
ATOM     14  C   UNL     1       1.429   0.825   0.000  0.00  0.00    -0.029 C 
ATOM     15  C   UNL     1       0.715   1.238   0.000  0.00  0.00    +0.026 C 
ATOM     16  C   UNL     1       0.000   0.825   0.000  0.00  0.00    +0.007 C 
ATOM     17  C   UNL     1       0.000   0.000   0.000  0.00  0.00    +0.027 C 
ENDBRANCH   3  12
TORSDOF 2
