REMARK  Name = 
REMARK  5 active torsions:
REMARK  status: ('A' for Active; 'I' for Inactive)
REMARK    1  A    between atoms: C_5  and  C_6
REMARK    2  A    between atoms: C_6  and  C_7
REMARK    3  A    between atoms: C_7  and  N_8
REMARK    4  A    between atoms: N_11  and  C_12
REMARK    5  A    between atoms: N_14  and  C_15
REMARK                            x       y       z     vdW  Elec       q    Type
REMARK                         _______ _______ _______ _____ _____    ______ ____
ROOT
ATOM      1  N   UNL     1       2.143   2.062   0.000  0.00  0.00    -0.187 NA
ATOM      2  C   UNL     1       2.858   1.650   0.000  0.00  0.00    +0.339 C 
ATOM      3  N   UNL     1       3.572   2.062   0.000  0.00  0.00    -0.187 NA
ATOM      4  O   UNL     1       2.858   0.825   0.000  0.00  0.00    -0.249 OA
ENDROOT
BRANCH   3   5
ATOM      5  C   UNL     1       4.287   1.650   0.000  0.00  0.00    +0.126 C 
ATOM      6  C   UNL     1       4.373   0.830   0.000  0.00  0.00    +0.109 C 
ATOM      7  C   UNL     1       5.180   0.658   0.000  0.00  0.00    +0.227 C 
ATOM      8  O   UNL     1       5.516  -0.096   0.000  0.00  0.00    -0.275 OA
ATOM      9  N   UNL     1       5.593   1.373   0.000  0.00  0.00    -0.279 N 
ATOM     10  C   UNL     1       5.040   1.986   0.000  0.00  0.00    +0.115 C 
BRANCH   9  11
ATOM     11  C   UNL     1       6.413   1.459   0.000  0.00  0.00    +0.076 C 
ATOM     12  C   UNL     1       7.167   1.123   0.000  0.00  0.00    +0.022 C 
ATOM     13  C   UNL     1       7.080   1.944   0.000  0.00  0.00    +0.022 C 
ENDBRANCH   9  11
ENDBRANCH   3   5
BRANCH   1  14
ATOM     14  C   UNL     1       1.429   1.650   0.000  0.00  0.00    +0.122 C 
BRANCH  14  15
ATOM     15  C   UNL     1       0.715   2.062   0.000  0.00  0.00    +0.051 C 
BRANCH  15  20
ATOM     16  C   UNL     1      -2.143   0.412   0.000  0.00  0.00    +0.052 C 
ATOM     17  C   UNL     1      -1.429   0.825   0.000  0.00  0.00    +0.059 A 
ATOM     18  N   UNL     1      -0.715   0.412   0.000  0.00  0.00    -0.248 NA
ATOM     19  C   UNL     1       0.000   0.825   0.000  0.00  0.00    +0.094 A 
ATOM     20  C   UNL     1       0.000   1.650   0.000  0.00  0.00    -0.001 A 
ATOM     21  C   UNL     1      -0.715   2.062   0.000  0.00  0.00    -0.001 A 
ATOM     22  C   UNL     1      -1.429   1.650   0.000  0.00  0.00    +0.014 A 
ENDBRANCH  15  20
ENDBRANCH  14  15
ENDBRANCH   1  14
TORSDOF 5
