REMARK  Name = 
REMARK  4 active torsions:
REMARK  status: ('A' for Active; 'I' for Inactive)
REMARK    1  A    between atoms: C_2  and  C_3
REMARK    2  A    between atoms: C_2  and  C_14
REMARK    3  A    between atoms: C_3  and  N_4
REMARK    4  A    between atoms: N_7  and  C_8
REMARK                            x       y       z     vdW  Elec       q    Type
REMARK                         _______ _______ _______ _____ _____    ______ ____
ROOT
ATOM      1  N   UNL     1       2.469  -1.040   0.000  0.00  0.00    -0.187 NA
ATOM      2  C   UNL     1       3.183  -1.452   0.000  0.00  0.00    +0.339 C 
ATOM      3  N   UNL     1       3.897  -1.040   0.000  0.00  0.00    -0.186 NA
ATOM      4  O   UNL     1       3.183  -2.277   0.000  0.00  0.00    -0.249 OA
ENDROOT
BRANCH   3   5
ATOM      5  C   UNL     1       4.612  -1.452   0.000  0.00  0.00    +0.126 C 
ATOM      6  C   UNL     1       4.698  -2.272   0.000  0.00  0.00    +0.135 C 
ATOM      7  C   UNL     1       4.085  -2.825   0.000  0.00  0.00    +0.034 C 
ATOM      8  O   UNL     1       5.505  -2.444   0.000  0.00  0.00    -0.354 OA
ATOM      9  C   UNL     1       5.918  -1.730   0.000  0.00  0.00    +0.144 C 
ATOM     10  C   UNL     1       5.366  -1.117   0.000  0.00  0.00    +0.056 C 
ENDBRANCH   3   5
BRANCH   1  11
ATOM     11  C   UNL     1       1.754  -1.452   0.000  0.00  0.00    +0.123 C 
BRANCH  11  13
ATOM     12  C   UNL     1       1.040  -0.215   0.000  0.00  0.00    +0.009 C 
ATOM     13  C   UNL     1       1.040  -1.040   0.000  0.00  0.00    +0.068 C 
BRANCH  13  14
ATOM     14  C   UNL     1       0.325  -1.452   0.000  0.00  0.00    +0.089 A 
ATOM     15  S   UNL     1      -0.429  -1.117   0.000  0.00  0.00    -0.075 S 
ATOM     16  C   UNL     1      -0.981  -1.730   0.000  0.00  0.00    +0.028 A 
ATOM     17  C   UNL     1      -1.801  -1.643   0.000  0.00  0.00    +0.040 C 
ATOM     18  C   UNL     1      -0.568  -2.444   0.000  0.00  0.00    +0.101 A 
ATOM     19  N   UNL     1       0.239  -2.272   0.000  0.00  0.00    -0.241 NA
ENDBRANCH  13  14
ENDBRANCH  11  13
ENDBRANCH   1  11
TORSDOF 4
