REMARK  Name = 
REMARK  1 active torsions:
REMARK  status: ('A' for Active; 'I' for Inactive)
REMARK    1  A    between atoms: N_3  and  C_4
REMARK                            x       y       z     vdW  Elec       q    Type
REMARK                         _______ _______ _______ _____ _____    ______ ____
ROOT
ATOM      1  O   UNL     1      -3.516  -1.202   0.000  0.00  0.00    -0.249 OA
ATOM      2  C   UNL     1      -2.802  -0.790   0.000  0.00  0.00    +0.345 C 
ATOM      3  N   UNL     1      -2.087  -1.202   0.000  0.00  0.00    -0.142 NA
ATOM      4  C   UNL     1      -2.087  -2.027   0.000  0.00  0.00    +0.156 A 
ATOM      5  N   UNL     1      -2.802  -2.440   0.000  0.00  0.00    -0.227 NA
ATOM      6  C   UNL     1      -2.802  -3.265   0.000  0.00  0.00    +0.100 A 
ATOM      7  C   UNL     1      -2.087  -3.678   0.000  0.00  0.00    +0.021 A 
ATOM      8  C   UNL     1      -1.373  -3.265   0.000  0.00  0.00    +0.005 A 
ATOM      9  C   UNL     1      -1.373  -2.440   0.000  0.00  0.00    +0.036 A 
ATOM     10  N   UNL     1      -2.802   0.035   0.000  0.00  0.00    -0.189 NA
ENDROOT
BRANCH  10  11
ATOM     11  C   UNL     1      -3.516   0.448   0.000  0.00  0.00    +0.097 C 
ATOM     12  C   UNL     1      -3.454   1.270   0.000  0.00  0.00    +0.022 C 
ATOM     13  C   UNL     1      -4.059   1.831   0.000  0.00  0.00    +0.002 C 
ATOM     14  C   UNL     1      -4.875   1.708   0.000  0.00  0.00    +0.000 C 
ATOM     15  C   UNL     1      -5.287   0.994   0.000  0.00  0.00    +0.000 C 
ATOM     16  C   UNL     1      -4.986   0.226   0.000  0.00  0.00    +0.002 C 
ATOM     17  C   UNL     1      -4.198  -0.017   0.000  0.00  0.00    +0.022 C 
ENDBRANCH  10  11
TORSDOF 1
