REMARK  Name = 
REMARK  6 active torsions:
REMARK  status: ('A' for Active; 'I' for Inactive)
REMARK    1  A    between atoms: C_2  and  O_3
REMARK    2  A    between atoms: O_3  and  C_4
REMARK    3  A    between atoms: C_6  and  N_7
REMARK    4  A    between atoms: N_7  and  C_8
REMARK    5  A    between atoms: C_8  and  C_9
REMARK    6  A    between atoms: C_9  and  C_10
REMARK                            x       y       z     vdW  Elec       q    Type
REMARK                         _______ _______ _______ _____ _____    ______ ____
ROOT
ATOM      1  N   UNL     1      -1.608  -3.484   0.000  0.00  0.00    -0.219 NA
ENDROOT
BRANCH   1   6
ATOM      2  C   UNL     1       0.384  -3.484   0.000  0.00  0.00    +0.118 C 
ATOM      3  C   UNL     1      -0.200  -2.901   0.000  0.00  0.00    +0.040 C 
ATOM      4  C   UNL     1       0.231  -2.197   0.000  0.00  0.00    +0.004 C 
ATOM      5  C   UNL     1      -0.631  -2.197   0.000  0.00  0.00    +0.004 C 
ATOM      6  C   UNL     1      -0.783  -3.484   0.000  0.00  0.00    +0.077 C 
ATOM      7  C   UNL     1      -0.200  -4.067   0.000  0.00  0.00    +0.047 C 
BRANCH   2   8
ATOM      8  O   UNL     1       1.208  -3.484   0.000  0.00  0.00    -0.356 OA
BRANCH   8  10
ATOM      9  C   UNL     1       2.446  -2.769   0.000  0.00  0.00    +0.035 C 
ATOM     10  C   UNL     1       1.621  -2.769   0.000  0.00  0.00    +0.142 C 
ENDBRANCH   8  10
ENDBRANCH   2   8
ENDBRANCH   1   6
BRANCH   1  11
ATOM     11  C   UNL     1      -2.021  -4.198   0.000  0.00  0.00    +0.093 C 
BRANCH  11  12
ATOM     12  C   UNL     1      -2.846  -4.198   0.000  0.00  0.00    +0.048 C 
BRANCH  12  13
ATOM     13  C   UNL     1      -3.258  -4.913   0.000  0.00  0.00    +0.008 A 
ATOM     14  C   UNL     1      -4.079  -4.999   0.000  0.00  0.00    +0.053 A 
ATOM     15  C   UNL     1      -4.631  -4.386   0.000  0.00  0.00    +0.051 C 
ATOM     16  N   UNL     1      -4.250  -5.806   0.000  0.00  0.00    -0.253 N 
ATOM     17  C   UNL     1      -5.004  -6.142   0.000  0.00  0.00    +0.153 C 
ATOM     18  N   UNL     1      -3.536  -6.218   0.000  0.00  0.00    -0.174 NA
ATOM     19  C   UNL     1      -2.923  -5.667   0.000  0.00  0.00    +0.076 A 
ATOM     20  C   UNL     1      -2.116  -5.838   0.000  0.00  0.00    +0.054 C 
ENDBRANCH  12  13
ENDBRANCH  11  12
ENDBRANCH   1  11
TORSDOF 6
