REMARK  Name = 
REMARK  3 active torsions:
REMARK  status: ('A' for Active; 'I' for Inactive)
REMARK    1  A    between atoms: C_4  and  N_5
REMARK    2  A    between atoms: N_8  and  C_9
REMARK    3  A    between atoms: C_9  and  C_10
REMARK                            x       y       z     vdW  Elec       q    Type
REMARK                         _______ _______ _______ _____ _____    ______ ____
ROOT
ATOM      1  N   UNL     1       1.387  -2.408   0.000  0.00  0.00    -0.142 NA
ATOM      2  C   UNL     1       2.102  -1.996   0.000  0.00  0.00    +0.345 C 
ATOM      3  N   UNL     1       2.816  -2.408   0.000  0.00  0.00    -0.187 NA
ATOM      4  O   UNL     1       2.102  -1.171   0.000  0.00  0.00    -0.249 OA
ENDROOT
BRANCH   1  10
ATOM      5  C   UNL     1      -0.556  -0.250   0.000  0.00  0.00    +0.054 C 
ATOM      6  C   UNL     1      -0.221  -1.004   0.000  0.00  0.00    +0.082 A 
ATOM      7  N   UNL     1      -0.633  -1.718   0.000  0.00  0.00    -0.172 NA
ATOM      8  N   UNL     1      -0.081  -2.331   0.000  0.00  0.00    -0.234 N 
ATOM      9  C   UNL     1      -0.253  -3.138   0.000  0.00  0.00    +0.155 C 
ATOM     10  C   UNL     1       0.672  -1.996   0.000  0.00  0.00    +0.154 A 
ATOM     11  C   UNL     1       0.586  -1.175   0.000  0.00  0.00    +0.052 A 
ENDBRANCH   1  10
BRANCH   3  12
ATOM     12  C   UNL     1       3.530  -1.996   0.000  0.00  0.00    +0.119 C 
BRANCH  12  13
ATOM     13  C   UNL     1       4.245  -2.408   0.000  0.00  0.00    +0.054 C 
ATOM     14  C   UNL     1       4.331  -3.229   0.000  0.00  0.00    +0.144 C 
ATOM     15  O   UNL     1       5.138  -3.400   0.000  0.00  0.00    -0.354 OA
ATOM     16  C   UNL     1       5.551  -2.686   0.000  0.00  0.00    +0.142 C 
ATOM     17  C   UNL     1       4.999  -2.073   0.000  0.00  0.00    +0.036 C 
ENDBRANCH  12  13
ENDBRANCH   3  12
TORSDOF 3
