REMARK  Name = 
REMARK  6 active torsions:
REMARK  status: ('A' for Active; 'I' for Inactive)
REMARK    1  A    between atoms: C_2  and  C_5
REMARK    2  A    between atoms: C_5  and  C_6
REMARK    3  A    between atoms: C_5  and  N_13
REMARK    4  A    between atoms: C_6  and  C_7
REMARK    5  A    between atoms: N_13  and  C_14
REMARK    6  A    between atoms: C_14  and  C_15
REMARK                            x       y       z     vdW  Elec       q    Type
REMARK                         _______ _______ _______ _____ _____    ______ ____
ROOT
ATOM      1  C   UNL     1      -1.429   0.000   0.000  0.00  0.00    +0.172 C 
ENDROOT
BRANCH   1   3
ATOM      2  F   UNL     1      -0.604   0.825   0.000  0.00  0.00    -0.168 F 
ATOM      3  C   UNL     1      -1.429   0.825   0.000  0.00  0.00    +0.412 C 
ATOM      4  F   UNL     1      -1.429   1.650   0.000  0.00  0.00    -0.168 F 
ATOM      5  F   UNL     1      -2.254   0.825   0.000  0.00  0.00    -0.168 F 
ENDBRANCH   1   3
BRANCH   1   6
ATOM      6  N   UNL     1      -2.143  -0.412   0.000  0.00  0.00    -0.211 NA
BRANCH   6   7
ATOM      7  C   UNL     1      -2.143  -1.238   0.000  0.00  0.00    +0.089 C 
BRANCH   7   8
ATOM      8  C   UNL     1      -2.858  -1.650   0.000  0.00  0.00    +0.022 C 
ATOM      9  C   UNL     1      -3.572  -1.238   0.000  0.00  0.00    +0.027 C 
ATOM     10  C   UNL     1      -4.287  -1.650   0.000  0.00  0.00    -0.031 C 
ATOM     11  C   UNL     1      -4.287  -2.475   0.000  0.00  0.00    -0.031 C 
ATOM     12  C   UNL     1      -3.572  -2.888   0.000  0.00  0.00    +0.026 C 
ATOM     13  C   UNL     1      -2.858  -2.475   0.000  0.00  0.00    +0.006 C 
ENDBRANCH   7   8
ENDBRANCH   6   7
ENDBRANCH   1   6
BRANCH   1  14
ATOM     14  C   UNL     1      -0.715  -0.412   0.000  0.00  0.00    +0.053 C 
BRANCH  14  15
ATOM     15  C   UNL     1      -0.715  -1.238   0.000  0.00  0.00    -0.017 A 
ATOM     16  C   UNL     1      -1.429  -1.650   0.000  0.00  0.00    +0.016 A 
ATOM     17  C   UNL     1      -1.429  -2.475   0.000  0.00  0.00    +0.099 A 
ATOM     18  N   UNL     1      -0.715  -2.888   0.000  0.00  0.00    -0.242 NA
ATOM     19  C   UNL     1       0.000  -2.475   0.000  0.00  0.00    +0.099 A 
ATOM     20  C   UNL     1       0.000  -1.650   0.000  0.00  0.00    +0.016 A 
ENDBRANCH  14  15
ENDBRANCH   1  14
TORSDOF 6
