REMARK  Name = 
REMARK  3 active torsions:
REMARK  status: ('A' for Active; 'I' for Inactive)
REMARK    1  A    between atoms: N_3  and  C_4
REMARK    2  A    between atoms: N_7  and  C_8
REMARK    3  A    between atoms: C_11  and  C_14
REMARK                            x       y       z     vdW  Elec       q    Type
REMARK                         _______ _______ _______ _____ _____    ______ ____
ROOT
ATOM      1  C   UNL     1       7.557   0.715   0.000  0.00  0.00    +0.094 A 
ATOM      2  C   UNL     1       8.272   0.302   0.000  0.00  0.00    +0.116 A 
ATOM      3  N   UNL     1       8.986   0.715   0.000  0.00  0.00    -0.238 NA
ATOM      4  C   UNL     1       8.986   1.540   0.000  0.00  0.00    +0.135 A 
ATOM      5  C   UNL     1       8.272   1.952   0.000  0.00  0.00    +0.025 A 
ATOM      6  C   UNL     1       7.557   1.540   0.000  0.00  0.00    +0.020 A 
ENDROOT
BRANCH   4   7
ATOM      7  C   UNL     1       9.701   1.952   0.000  0.00  0.00    +0.267 C 
ATOM      8  N   UNL     1      10.415   1.540   0.000  0.00  0.00    -0.275 N 
ATOM      9  C   UNL     1      10.415   0.715   0.000  0.00  0.00    +0.094 C 
ATOM     10  C   UNL     1      11.130   0.302   0.000  0.00  0.00    +0.022 C 
ATOM     11  C   UNL     1      11.844   0.715   0.000  0.00  0.00    +0.004 C 
ATOM     12  C   UNL     1      11.844   1.540   0.000  0.00  0.00    +0.022 C 
ATOM     13  C   UNL     1      11.130   1.952   0.000  0.00  0.00    +0.094 C 
ATOM     14  O   UNL     1       9.701   2.777   0.000  0.00  0.00    -0.268 OA
ENDBRANCH   4   7
BRANCH   1  17
ATOM     15  O   UNL     1       7.557  -0.935   0.000  0.00  0.00    -0.249 OA
ATOM     16  C   UNL     1       6.843  -0.523   0.000  0.00  0.00    +0.343 C 
ATOM     17  N   UNL     1       6.843   0.302   0.000  0.00  0.00    -0.159 NA
ATOM     18  N   UNL     1       6.128  -0.935   0.000  0.00  0.00    -0.189 NA
BRANCH  18  19
ATOM     19  C   UNL     1       6.128  -1.760   0.000  0.00  0.00    +0.097 C 
ATOM     20  C   UNL     1       5.716  -2.475   0.000  0.00  0.00    +0.023 C 
ATOM     21  C   UNL     1       6.541  -2.475   0.000  0.00  0.00    +0.023 C 
ENDBRANCH  18  19
ENDBRANCH   1  17
TORSDOF 3
