REMARK  Name = 
REMARK  5 active torsions:
REMARK  status: ('A' for Active; 'I' for Inactive)
REMARK    1  A    between atoms: C_4  and  C_17
REMARK    2  A    between atoms: C_6  and  N_7
REMARK    3  A    between atoms: N_10  and  C_11
REMARK    4  A    between atoms: C_11  and  C_12
REMARK    5  A    between atoms: C_12  and  C_13
REMARK                            x       y       z     vdW  Elec       q    Type
REMARK                         _______ _______ _______ _____ _____    ______ ____
ROOT
ATOM      1  C   UNL     1       1.605  -1.675   0.000  0.00  0.00    +0.155 C 
ATOM      2  N   UNL     1       0.992  -1.123   0.000  0.00  0.00    -0.234 N 
ATOM      3  C   UNL     1       1.078  -0.302   0.000  0.00  0.00    +0.154 A 
ATOM      4  C   UNL     1       0.324   0.034   0.000  0.00  0.00    +0.052 A 
ATOM      5  C   UNL     1      -0.228  -0.580   0.000  0.00  0.00    +0.081 A 
ATOM      6  N   UNL     1       0.185  -1.294   0.000  0.00  0.00    -0.172 NA
ENDROOT
BRANCH   3   7
ATOM      7  N   UNL     1       1.793   0.111   0.000  0.00  0.00    -0.142 NA
ATOM      8  C   UNL     1       2.507  -0.302   0.000  0.00  0.00    +0.345 C 
ATOM      9  N   UNL     1       3.221   0.111   0.000  0.00  0.00    -0.187 NA
ATOM     10  O   UNL     1       2.507  -1.127   0.000  0.00  0.00    -0.249 OA
BRANCH   9  11
ATOM     11  C   UNL     1       3.936  -0.302   0.000  0.00  0.00    +0.119 C 
BRANCH  11  12
ATOM     12  C   UNL     1       4.651   0.111   0.000  0.00  0.00    +0.051 C 
ATOM     13  C   UNL     1       5.181   0.743   0.000  0.00  0.00    +0.004 C 
ATOM     14  C   UNL     1       4.368   0.886   0.000  0.00  0.00    +0.004 C 
BRANCH  12  15
ATOM     15  C   UNL     1       5.181  -0.521   0.000  0.00  0.00    +0.184 C 
ATOM     16  O   UNL     1       4.899  -1.297   0.000  0.00  0.00    -0.220 OA
ENDBRANCH  12  15
ENDBRANCH  11  12
ENDBRANCH   9  11
ENDBRANCH   3   7
BRANCH   5  17
ATOM     17  C   UNL     1      -1.048  -0.493   0.000  0.00  0.00    +0.042 C 
ATOM     18  C   UNL     1      -1.567   0.148   0.000  0.00  0.00    +0.006 C 
ATOM     19  C   UNL     1      -2.208  -0.371   0.000  0.00  0.00    +0.001 C 
ATOM     20  C   UNL     1      -1.689  -1.012   0.000  0.00  0.00    +0.006 C 
ENDBRANCH   5  17
TORSDOF 5
