REMARK  Name = 
REMARK  3 active torsions:
REMARK  status: ('A' for Active; 'I' for Inactive)
REMARK    1  A    between atoms: C_7  and  N_8
REMARK    2  A    between atoms: N_11  and  C_12
REMARK    3  A    between atoms: C_16  and  C_18
REMARK                            x       y       z     vdW  Elec       q    Type
REMARK                         _______ _______ _______ _____ _____    ______ ____
ROOT
ATOM      1  N   UNL     1      -0.302   4.427   0.000  0.00  0.00    -0.160 NA
ATOM      2  C   UNL     1       0.412   4.014   0.000  0.00  0.00    +0.343 C 
ATOM      3  N   UNL     1       1.127   4.427   0.000  0.00  0.00    -0.189 NA
ATOM      4  O   UNL     1       0.412   3.189   0.000  0.00  0.00    -0.249 OA
ENDROOT
BRANCH   1   7
ATOM      5  C   UNL     1      -0.302   2.777   0.000  0.00  0.00    +0.054 C 
ATOM      6  C   UNL     1      -1.016   3.189   0.000  0.00  0.00    +0.076 A 
ATOM      7  C   UNL     1      -1.016   4.014   0.000  0.00  0.00    +0.089 A 
ATOM      8  C   UNL     1      -1.731   4.427   0.000  0.00  0.00    +0.021 A 
ATOM      9  C   UNL     1      -2.445   4.014   0.000  0.00  0.00    +0.036 A 
ATOM     10  C   UNL     1      -2.445   3.189   0.000  0.00  0.00    +0.131 A 
ATOM     11  N   UNL     1      -3.160   2.777   0.000  0.00  0.00    -0.293 N 
ATOM     12  C   UNL     1      -3.913   3.112   0.000  0.00  0.00    +0.092 C 
ATOM     13  C   UNL     1      -4.466   2.499   0.000  0.00  0.00    +0.023 C 
ATOM     14  C   UNL     1      -4.053   1.785   0.000  0.00  0.00    +0.023 C 
ATOM     15  C   UNL     1      -3.246   1.956   0.000  0.00  0.00    +0.092 C 
ATOM     16  N   UNL     1      -1.731   2.777   0.000  0.00  0.00    -0.234 NA
ENDBRANCH   1   7
BRANCH   3  17
ATOM     17  C   UNL     1       1.841   4.014   0.000  0.00  0.00    +0.102 C 
ATOM     18  C   UNL     1       1.841   3.189   0.000  0.00  0.00    +0.051 C 
ATOM     19  C   UNL     1       2.556   2.777   0.000  0.00  0.00    +0.117 C 
ATOM     20  O   UNL     1       3.270   3.189   0.000  0.00  0.00    -0.356 OA
ATOM     21  C   UNL     1       3.270   4.014   0.000  0.00  0.00    +0.144 C 
ATOM     22  C   UNL     1       2.556   4.427   0.000  0.00  0.00    +0.054 C 
BRANCH  19  23
ATOM     23  C   UNL     1       2.556   1.952   0.000  0.00  0.00    +0.027 C 
ATOM     24  C   UNL     1       2.143   1.238   0.000  0.00  0.00    +0.002 C 
ATOM     25  C   UNL     1       2.968   1.238   0.000  0.00  0.00    +0.002 C 
ENDBRANCH  19  23
ENDBRANCH   3  17
TORSDOF 3
