REMARK  Name = 
REMARK  6 active torsions:
REMARK  status: ('A' for Active; 'I' for Inactive)
REMARK    1  A    between atoms: O_2  and  C_3
REMARK    2  A    between atoms: C_3  and  C_4
REMARK    3  A    between atoms: C_4  and  C_5
REMARK    4  A    between atoms: N_7  and  C_8
REMARK    5  A    between atoms: C_11  and  C_15
REMARK    6  A    between atoms: C_19  and  C_22
REMARK                            x       y       z     vdW  Elec       q    Type
REMARK                         _______ _______ _______ _____ _____    ______ ____
ROOT
ATOM      1  C   UNL     1       1.127  -2.507   0.000  0.00  0.00    +0.061 C 
ATOM      2  C   UNL     1       1.382  -1.722   0.000  0.00  0.00    +0.103 C 
ATOM      3  C   UNL     1       0.715  -1.238   0.000  0.00  0.00    +0.297 C 
ATOM      4  O   UNL     1       0.162  -0.624   0.000  0.00  0.00    -0.194 OA
ATOM      5  N   UNL     1       0.047  -1.722   0.000  0.00  0.00    -0.162 N 
ATOM      6  N   UNL     1       0.302  -2.507   0.000  0.00  0.00    -0.183 NA
ENDROOT
BRANCH   5   7
ATOM      7  C   UNL     1      -0.738  -1.468   0.000  0.00  0.00    +0.163 A 
ATOM      8  C   UNL     1      -0.909  -0.660   0.000  0.00  0.00    +0.091 A 
ATOM      9 CL   UNL     1      -0.296  -0.108   0.000  0.00  0.00    -0.079 Cl
ATOM     10  C   UNL     1      -1.694  -0.406   0.000  0.00  0.00    +0.020 A 
ATOM     11  C   UNL     1      -2.307  -0.958   0.000  0.00  0.00    +0.091 A 
ATOM     12  C   UNL     1      -2.135  -1.765   0.000  0.00  0.00    +0.104 A 
ATOM     13  N   UNL     1      -1.351  -2.019   0.000  0.00  0.00    -0.227 NA
BRANCH  11  14
ATOM     14  C   UNL     1      -3.091  -0.703   0.000  0.00  0.00    +0.420 C 
ATOM     15  F   UNL     1      -3.346  -1.487   0.000  0.00  0.00    -0.166 F 
ATOM     16  F   UNL     1      -2.837   0.082   0.000  0.00  0.00    -0.166 F 
ATOM     17  F   UNL     1      -3.876  -0.448   0.000  0.00  0.00    -0.166 F 
ENDBRANCH  11  14
ENDBRANCH   5   7
BRANCH   3  18
ATOM     18  C   UNL     1       1.266  -0.624   0.000  0.00  0.00    +0.441 C 
ATOM     19  F   UNL     1       0.653  -0.072   0.000  0.00  0.00    -0.166 F 
ATOM     20  F   UNL     1       1.880  -1.176   0.000  0.00  0.00    -0.166 F 
ATOM     21  F   UNL     1       1.819  -0.011   0.000  0.00  0.00    -0.166 F 
ENDBRANCH   3  18
BRANCH   1  22
ATOM     22  C   UNL     1       1.612  -3.175   0.000  0.00  0.00    +0.075 C 
BRANCH  22  23
ATOM     23  C   UNL     1       2.432  -3.088   0.000  0.00  0.00    +0.148 C 
BRANCH  23  25
ATOM     24  C   UNL     1       3.738  -3.670   0.000  0.00  0.00    +0.174 C 
ATOM     25  O   UNL     1       2.917  -3.756   0.000  0.00  0.00    -0.351 OA
ENDBRANCH  23  25
ENDBRANCH  22  23
ENDBRANCH   1  22
TORSDOF 6
