REMARK  Name = 
REMARK  6 active torsions:
REMARK  status: ('A' for Active; 'I' for Inactive)
REMARK    1  A    between atoms: C_2  and  C_3
REMARK    2  A    between atoms: C_2  and  C_11
REMARK    3  A    between atoms: C_3  and  O_4
REMARK    4  A    between atoms: O_4  and  C_5
REMARK    5  A    between atoms: C_5  and  C_6
REMARK    6  A    between atoms: C_11  and  N_12
REMARK                            x       y       z     vdW  Elec       q    Type
REMARK                         _______ _______ _______ _____ _____    ______ ____
ROOT
ATOM      1  O   UNL     1       7.710  -0.026   0.000  0.00  0.00    -0.218 OA
ATOM      2  C   UNL     1       7.710  -0.851   0.000  0.00  0.00    +0.204 C 
ENDROOT
BRANCH   2   3
ATOM      3  C   UNL     1       8.425  -1.264   0.000  0.00  0.00    +0.143 C 
BRANCH   3   4
ATOM      4  N   UNL     1       9.139  -0.851   0.000  0.00  0.00    -0.306 N 
ATOM      5  C   UNL     1       9.893  -1.187   0.000  0.00  0.00    +0.079 A 
ATOM      6  C   UNL     1      10.445  -0.574   0.000  0.00  0.00    +0.099 A 
ATOM      7  C   UNL     1      11.252  -0.745   0.000  0.00  0.00    +0.021 A 
ATOM      8  C   UNL     1      11.507  -1.530   0.000  0.00  0.00    +0.002 A 
ATOM      9  C   UNL     1      10.955  -2.143   0.000  0.00  0.00    +0.002 A 
ATOM     10  N   UNL     1      10.033   0.141   0.000  0.00  0.00    -0.224 NA
ATOM     11  C   UNL     1      10.148  -1.971   0.000  0.00  0.00    +0.019 A 
ATOM     12  C   UNL     1       9.226  -0.031   0.000  0.00  0.00    +0.179 A 
ENDBRANCH   3   4
ENDBRANCH   2   3
BRANCH   2  13
ATOM     13  C   UNL     1       6.996  -1.264   0.000  0.00  0.00    +0.177 C 
BRANCH  13  14
ATOM     14  O   UNL     1       6.282  -0.851   0.000  0.00  0.00    -0.346 OA
BRANCH  14  15
ATOM     15  C   UNL     1       5.567  -1.264   0.000  0.00  0.00    +0.175 C 
BRANCH  15  16
ATOM     16  C   UNL     1       4.853  -0.851   0.000  0.00  0.00    +0.037 A 
ATOM     17  S   UNL     1       4.766  -0.031   0.000  0.00  0.00    -0.088 S 
ATOM     18  C   UNL     1       3.959   0.141   0.000  0.00  0.00    +0.035 A 
ATOM     19  C   UNL     1       3.547  -0.574   0.000  0.00  0.00    +0.007 A 
ATOM     20  C   UNL     1       4.099  -1.187   0.000  0.00  0.00    +0.005 A 
ENDBRANCH  15  16
ENDBRANCH  14  15
ENDBRANCH  13  14
ENDBRANCH   2  13
TORSDOF 6
