REMARK  Name = 
REMARK  5 active torsions:
REMARK  status: ('A' for Active; 'I' for Inactive)
REMARK    1  A    between atoms: O_2  and  C_3
REMARK    2  A    between atoms: C_3  and  C_4
REMARK    3  A    between atoms: N_6  and  C_7
REMARK    4  A    between atoms: C_7  and  C_8
REMARK    5  A    between atoms: N_10  and  C_11
REMARK                            x       y       z     vdW  Elec       q    Type
REMARK                         _______ _______ _______ _____ _____    ______ ____
ROOT
ATOM      1  C   UNL     1       3.313  -5.227   0.000  0.00  0.00    +0.266 C 
ATOM      2  N   UNL     1       3.798  -5.895   0.000  0.00  0.00    -0.206 NA
ATOM      3  O   UNL     1       2.493  -5.314   0.000  0.00  0.00    -0.271 OA
ENDROOT
BRANCH   2   4
ATOM      4  C   UNL     1       3.462  -6.648   0.000  0.00  0.00    +0.095 C 
ATOM      5  C   UNL     1       2.642  -6.735   0.000  0.00  0.00    +0.020 C 
ATOM      6  C   UNL     1       2.157  -6.067   0.000  0.00  0.00    +0.002 C 
ATOM      7  C   UNL     1       2.306  -7.488   0.000  0.00  0.00    +0.002 C 
ATOM      8  C   UNL     1       1.486  -7.574   0.000  0.00  0.00    +0.000 C 
ATOM      9  C   UNL     1       2.791  -8.156   0.000  0.00  0.00    +0.000 C 
ATOM     10  C   UNL     1       3.612  -8.069   0.000  0.00  0.00    +0.002 C 
ATOM     11  C   UNL     1       3.947  -7.316   0.000  0.00  0.00    +0.022 C 
ENDBRANCH   2   4
BRANCH   1  12
ATOM     12  C   UNL     1       3.649  -4.474   0.000  0.00  0.00    +0.220 C 
BRANCH  12  17
ATOM     13  C   UNL     1       2.751  -2.537   0.000  0.00  0.00    +0.257 A 
ATOM     14  O   UNL     1       2.084  -3.022   0.000  0.00  0.00    -0.389 OA
ATOM     15  C   UNL     1       2.339  -3.806   0.000  0.00  0.00    +0.439 A 
ATOM     16  O   UNL     1       1.854  -4.474   0.000  0.00  0.00    -0.221 OA
ATOM     17  N   UNL     1       3.164  -3.806   0.000  0.00  0.00    -0.173 N 
ATOM     18  N   UNL     1       3.419  -3.022   0.000  0.00  0.00    -0.128 NA
BRANCH  13  19
ATOM     19  C   UNL     1       2.751  -1.712   0.000  0.00  0.00    +0.229 C 
BRANCH  19  21
ATOM     20  C   UNL     1       2.037  -0.474   0.000  0.00  0.00    +0.175 C 
ATOM     21  O   UNL     1       2.037  -1.299   0.000  0.00  0.00    -0.342 OA
ENDBRANCH  19  21
ENDBRANCH  13  19
ENDBRANCH  12  17
ENDBRANCH   1  12
TORSDOF 5
