REMARK  Name = 
REMARK  4 active torsions:
REMARK  status: ('A' for Active; 'I' for Inactive)
REMARK    1  A    between atoms: O_2  and  C_3
REMARK    2  A    between atoms: C_6  and  N_7
REMARK    3  A    between atoms: N_10  and  C_11
REMARK    4  A    between atoms: C_11  and  C_13
REMARK                            x       y       z     vdW  Elec       q    Type
REMARK                         _______ _______ _______ _____ _____    ______ ____
ROOT
ATOM      1  N   UNL     1      -0.715   2.062   0.000  0.00  0.00    -0.159 NA
ATOM      2  C   UNL     1       0.000   2.475   0.000  0.00  0.00    +0.344 C 
ATOM      3  N   UNL     1       0.715   2.062   0.000  0.00  0.00    -0.186 NA
ATOM      4  O   UNL     1       0.000   3.300   0.000  0.00  0.00    -0.249 OA
ENDROOT
BRANCH   1   8
ATOM      5  C   UNL     1      -2.858   3.300   0.000  0.00  0.00    +0.225 A 
ATOM      6  N   UNL     1      -2.858   2.475   0.000  0.00  0.00    -0.209 NA
ATOM      7  C   UNL     1      -2.143   2.062   0.000  0.00  0.00    +0.119 A 
ATOM      8  C   UNL     1      -1.429   2.475   0.000  0.00  0.00    +0.094 A 
ATOM      9  C   UNL     1      -1.429   3.300   0.000  0.00  0.00    +0.023 A 
ATOM     10  C   UNL     1      -2.143   3.712   0.000  0.00  0.00    +0.059 A 
BRANCH   5  12
ATOM     11  C   UNL     1      -4.287   3.300   0.000  0.00  0.00    +0.254 C 
ATOM     12  O   UNL     1      -3.572   3.712   0.000  0.00  0.00    -0.456 OA
ENDBRANCH   5  12
ENDBRANCH   1   8
BRANCH   3  13
ATOM     13  C   UNL     1       1.429   2.475   0.000  0.00  0.00    +0.124 C 
ATOM     14  C   UNL     1       1.429   3.300   0.000  0.00  0.00    +0.026 C 
BRANCH  13  15
ATOM     15  C   UNL     1       2.143   2.062   0.000  0.00  0.00    +0.135 C 
ATOM     16  O   UNL     1       2.230   1.242   0.000  0.00  0.00    -0.354 OA
ATOM     17  C   UNL     1       3.037   1.071   0.000  0.00  0.00    +0.142 C 
ATOM     18  C   UNL     1       3.449   1.785   0.000  0.00  0.00    +0.035 C 
ATOM     19  C   UNL     1       2.897   2.398   0.000  0.00  0.00    +0.034 C 
ENDBRANCH  13  15
ENDBRANCH   3  13
TORSDOF 4
