REMARK  Name = 
REMARK  4 active torsions:
REMARK  status: ('A' for Active; 'I' for Inactive)
REMARK    1  A    between atoms: N_2  and  C_4
REMARK    2  A    between atoms: C_4  and  C_5
REMARK    3  A    between atoms: C_5  and  N_6
REMARK    4  A    between atoms: N_9  and  C_10
REMARK                            x       y       z     vdW  Elec       q    Type
REMARK                         _______ _______ _______ _____ _____    ______ ____
ROOT
ATOM      1  C   UNL     1      -0.715  -2.062   0.000  0.00  0.00    +0.132 C 
ENDROOT
BRANCH   1   2
ATOM      2  C   UNL     1      -1.429  -2.475   0.000  0.00  0.00    +0.070 C 
ATOM      3  C   UNL     1      -1.711  -1.700   0.000  0.00  0.00    +0.049 C 
ATOM      4  C   UNL     1      -2.524  -1.556   0.000  0.00  0.00    +0.144 C 
ATOM      5  O   UNL     1      -3.054  -2.188   0.000  0.00  0.00    -0.354 OA
ATOM      6  C   UNL     1      -2.772  -2.964   0.000  0.00  0.00    +0.144 C 
ATOM      7  C   UNL     1      -1.959  -3.107   0.000  0.00  0.00    +0.049 C 
BRANCH   2   9
ATOM      8  C   UNL     1      -1.181  -3.882   0.000  0.00  0.00    +0.090 C 
ATOM      9  N   UNL     1      -0.899  -3.107   0.000  0.00  0.00    -0.271 NA
ATOM     10  C   UNL     1      -0.086  -2.964   0.000  0.00  0.00    +0.090 C 
ENDBRANCH   2   9
ENDBRANCH   1   2
BRANCH   1  11
ATOM     11  N   UNL     1       0.000  -2.475   0.000  0.00  0.00    -0.186 NA
ATOM     12  C   UNL     1       0.715  -2.062   0.000  0.00  0.00    +0.344 C 
ATOM     13  N   UNL     1       1.429  -2.475   0.000  0.00  0.00    -0.159 NA
ATOM     14  O   UNL     1       0.715  -1.238   0.000  0.00  0.00    -0.249 OA
BRANCH  13  15
ATOM     15  C   UNL     1       2.143  -2.062   0.000  0.00  0.00    +0.094 A 
ATOM     16  C   UNL     1       2.858  -2.475   0.000  0.00  0.00    +0.115 A 
ATOM     17  N   UNL     1       3.572  -2.062   0.000  0.00  0.00    -0.241 NA
ATOM     18  C   UNL     1       3.572  -1.238   0.000  0.00  0.00    +0.099 A 
ATOM     19  C   UNL     1       2.858  -0.825   0.000  0.00  0.00    +0.022 A 
ATOM     20  C   UNL     1       2.143  -1.238   0.000  0.00  0.00    +0.020 A 
ENDBRANCH  13  15
ENDBRANCH   1  11
TORSDOF 4
