REMARK  Name = 
REMARK  4 active torsions:
REMARK  status: ('A' for Active; 'I' for Inactive)
REMARK    1  A    between atoms: C_2  and  C_5
REMARK    2  A    between atoms: C_8  and  C_9
REMARK    3  A    between atoms: C_9  and  C_10
REMARK    4  A    between atoms: C_10  and  N_11
REMARK                            x       y       z     vdW  Elec       q    Type
REMARK                         _______ _______ _______ _____ _____    ______ ____
ROOT
ATOM      1  C   UNL     1       1.387  -2.408   0.000  0.00  0.00    +0.076 C 
ENDROOT
BRANCH   1   4
ATOM      2  C   UNL     1      -0.633  -1.718   0.000  0.00  0.00    +0.065 A 
ATOM      3  N   UNL     1      -0.081  -2.331   0.000  0.00  0.00    -0.247 NA
ATOM      4  C   UNL     1       0.672  -1.996   0.000  0.00  0.00    +0.090 A 
ATOM      5  S   UNL     1       0.586  -1.175   0.000  0.00  0.00    -0.071 S 
ATOM      6  C   UNL     1      -0.221  -1.004   0.000  0.00  0.00    +0.051 A 
BRANCH   2   8
ATOM      7  C   UNL     1      -2.274  -1.891   0.000  0.00  0.00    +0.006 C 
ATOM      8  C   UNL     1      -1.454  -1.804   0.000  0.00  0.00    +0.036 C 
ATOM      9  C   UNL     1      -1.540  -0.984   0.000  0.00  0.00    +0.006 C 
ATOM     10  C   UNL     1      -1.367  -2.625   0.000  0.00  0.00    +0.006 C 
ENDBRANCH   2   8
ENDBRANCH   1   4
BRANCH   1  11
ATOM     11  C   UNL     1       2.102  -1.996   0.000  0.00  0.00    +0.124 C 
BRANCH  11  12
ATOM     12  N   UNL     1       2.816  -2.408   0.000  0.00  0.00    -0.188 NA
ATOM     13  C   UNL     1       3.530  -1.996   0.000  0.00  0.00    +0.323 C 
ATOM     14  N   UNL     1       4.245  -2.408   0.000  0.00  0.00    -0.263 N 
ATOM     15  C   UNL     1       4.331  -3.229   0.000  0.00  0.00    +0.095 C 
ATOM     16  C   UNL     1       5.138  -3.400   0.000  0.00  0.00    +0.023 C 
ATOM     17  C   UNL     1       5.551  -2.686   0.000  0.00  0.00    +0.023 C 
ATOM     18  C   UNL     1       4.999  -2.073   0.000  0.00  0.00    +0.095 C 
ATOM     19  O   UNL     1       3.530  -1.171   0.000  0.00  0.00    -0.251 OA
ENDBRANCH  11  12
ENDBRANCH   1  11
TORSDOF 4
