REMARK  Name = 
REMARK  6 active torsions:
REMARK  status: ('A' for Active; 'I' for Inactive)
REMARK    1  A    between atoms: C_2  and  C_5
REMARK    2  A    between atoms: N_11  and  C_12
REMARK    3  A    between atoms: C_12  and  C_13
REMARK    4  A    between atoms: N_15  and  C_16
REMARK    5  A    between atoms: C_16  and  C_17
REMARK    6  A    between atoms: C_16  and  C_20
REMARK                            x       y       z     vdW  Elec       q    Type
REMARK                         _______ _______ _______ _____ _____    ______ ____
ROOT
ATOM      1  C   UNL     1      -0.715   2.062   0.000  0.00  0.00    +0.090 A 
ATOM      2  C   UNL     1       0.000   1.650   0.000  0.00  0.00    +0.083 A 
ATOM      3  N   UNL     1       0.715   2.062   0.000  0.00  0.00    -0.285 N 
ATOM      4  C   UNL     1       0.715   2.888   0.000  0.00  0.00    +0.272 A 
ATOM      5  O   UNL     1       1.429   3.300   0.000  0.00  0.00    -0.266 OA
ATOM      6  C   UNL     1       0.000   3.300   0.000  0.00  0.00    +0.114 A 
ATOM      7 CL   UNL     1       0.000   4.125   0.000  0.00  0.00    -0.077 Cl
ATOM      8  C   UNL     1      -0.715   2.888   0.000  0.00  0.00    +0.022 A 
ENDROOT
BRANCH   1  10
ATOM      9  F   UNL     1      -2.143   1.238   0.000  0.00  0.00    -0.166 F 
ATOM     10  C   UNL     1      -1.429   1.650   0.000  0.00  0.00    +0.420 C 
ATOM     11  F   UNL     1      -1.841   2.365   0.000  0.00  0.00    -0.166 F 
ATOM     12  F   UNL     1      -1.016   0.935   0.000  0.00  0.00    -0.166 F 
ENDBRANCH   1  10
BRANCH   3  13
ATOM     13  C   UNL     1       1.429   1.650   0.000  0.00  0.00    +0.196 C 
BRANCH  13  14
ATOM     14  C   UNL     1       2.143   2.062   0.000  0.00  0.00    +0.264 C 
ATOM     15  N   UNL     1       2.858   1.650   0.000  0.00  0.00    -0.206 NA
ATOM     16  O   UNL     1       2.143   2.888   0.000  0.00  0.00    -0.271 OA
BRANCH  15  17
ATOM     17  C   UNL     1       3.572   2.062   0.000  0.00  0.00    +0.095 C 
BRANCH  17  18
ATOM     18  C   UNL     1       3.572   2.888   0.000  0.00  0.00    +0.020 C 
ATOM     19  C   UNL     1       3.985   3.602   0.000  0.00  0.00    +0.002 C 
ATOM     20  C   UNL     1       3.160   3.602   0.000  0.00  0.00    +0.002 C 
ENDBRANCH  17  18
BRANCH  17  21
ATOM     21  C   UNL     1       4.287   1.650   0.000  0.00  0.00    +0.020 C 
ATOM     22  C   UNL     1       4.699   0.935   0.000  0.00  0.00    +0.002 C 
ATOM     23  C   UNL     1       5.112   1.650   0.000  0.00  0.00    +0.002 C 
ENDBRANCH  17  21
ENDBRANCH  15  17
ENDBRANCH  13  14
ENDBRANCH   3  13
TORSDOF 6
