REMARK  Name = 
REMARK  5 active torsions:
REMARK  status: ('A' for Active; 'I' for Inactive)
REMARK    1  A    between atoms: C_2  and  C_3
REMARK    2  A    between atoms: C_2  and  N_15
REMARK    3  A    between atoms: N_5  and  C_6
REMARK    4  A    between atoms: C_6  and  C_7
REMARK    5  A    between atoms: C_7  and  N_8
REMARK                            x       y       z     vdW  Elec       q    Type
REMARK                         _______ _______ _______ _____ _____    ______ ____
ROOT
ATOM      1  C   UNL     1      -0.768  -3.001   0.000  0.00  0.00    +0.264 C 
ATOM      2  N   UNL     1      -0.053  -3.414   0.000  0.00  0.00    -0.202 NA
ATOM      3  O   UNL     1      -0.768  -2.176   0.000  0.00  0.00    -0.271 OA
ENDROOT
BRANCH   1   5
ATOM      4  C   UNL     1      -1.482  -4.239   0.000  0.00  0.00    +0.036 C 
ATOM      5  C   UNL     1      -1.482  -3.414   0.000  0.00  0.00    +0.184 C 
BRANCH   5   6
ATOM      6  N   UNL     1      -2.197  -3.001   0.000  0.00  0.00    -0.223 N 
ATOM      7  N   UNL     1      -2.283  -2.181   0.000  0.00  0.00    -0.145 NA
ATOM      8  C   UNL     1      -3.090  -2.009   0.000  0.00  0.00    +0.221 A 
ATOM      9  N   UNL     1      -3.503  -2.724   0.000  0.00  0.00    -0.201 NA
ATOM     10  C   UNL     1      -2.951  -3.337   0.000  0.00  0.00    +0.198 A 
ENDBRANCH   5   6
ENDBRANCH   1   5
BRANCH   2  11
ATOM     11  C   UNL     1       0.661  -3.001   0.000  0.00  0.00    +0.132 C 
BRANCH  11  12
ATOM     12  C   UNL     1       1.375  -3.414   0.000  0.00  0.00    +0.096 C 
BRANCH  12  13
ATOM     13  N   UNL     1       2.090  -3.001   0.000  0.00  0.00    -0.271 NA
ATOM     14  C   UNL     1       2.772  -3.466   0.000  0.00  0.00    +0.072 C 
ATOM     15  C   UNL     1       3.560  -3.223   0.000  0.00  0.00    +0.017 C 
ATOM     16  C   UNL     1       3.861  -2.455   0.000  0.00  0.00    +0.001 C 
ATOM     17  C   UNL     1       3.449  -1.740   0.000  0.00  0.00    +0.001 C 
ATOM     18  C   UNL     1       2.633  -1.617   0.000  0.00  0.00    +0.017 C 
ATOM     19  C   UNL     1       2.028  -2.179   0.000  0.00  0.00    +0.072 C 
ENDBRANCH  12  13
ENDBRANCH  11  12
ENDBRANCH   2  11
TORSDOF 5
