REMARK  Name = 
REMARK  2 active torsions:
REMARK  status: ('A' for Active; 'I' for Inactive)
REMARK    1  A    between atoms: N_2  and  C_7
REMARK    2  A    between atoms: C_5  and  C_7
REMARK                            x       y       z     vdW  Elec       q    Type
REMARK                         _______ _______ _______ _____ _____    ______ ____
ROOT
ATOM      1  C   UNL     1      -0.520  -3.765   0.000  0.00  0.00    +0.161 C 
ENDROOT
BRANCH   1   2
ATOM      2  C   UNL     1       0.033  -4.377   0.000  0.00  0.00    +0.166 C 
ATOM      3  C   UNL     1      -0.637  -4.864   0.000  0.00  0.00    +0.121 C 
ATOM      4  N   UNL     1      -0.379  -5.647   0.000  0.00  0.00    -0.215 NA
ATOM      5  C   UNL     1       0.446  -5.647   0.000  0.00  0.00    +0.091 C 
ATOM      6  O   UNL     1       0.583  -3.765   0.000  0.00  0.00    -0.222 OA
ATOM      7  C   UNL     1       0.700  -4.864   0.000  0.00  0.00    +0.053 C 
ENDBRANCH   1   2
BRANCH   1  12
ATOM      8  N   UNL     1       0.520  -2.728   0.000  0.00  0.00    -0.064 NA
ATOM      9  N   UNL     1       0.520  -1.903   0.000  0.00  0.00    -0.127 NA
ATOM     10  C   UNL     1      -0.267  -1.649   0.000  0.00  0.00    +0.144 A 
ATOM     11  C   UNL     1      -0.750  -2.315   0.000  0.00  0.00    +0.119 A 
ATOM     12  N   UNL     1      -0.267  -2.982   0.000  0.00  0.00    -0.228 N 
ENDBRANCH   1  12
TORSDOF 2
REMARK  Name = 
REMARK  2 active torsions:
REMARK  status: ('A' for Active; 'I' for Inactive)
REMARK    1  A    between atoms: N_2  and  C_7
REMARK    2  A    between atoms: C_5  and  C_7
REMARK                            x       y       z     vdW  Elec       q    Type
REMARK                         _______ _______ _______ _____ _____    ______ ____
ROOT
ATOM      1 CL   UNL     1       1.999   0.000   0.000  0.00  0.00    +0.000 Cl
ENDROOT
TORSDOF 0
REMARK  Name = 
REMARK  2 active torsions:
REMARK  status: ('A' for Active; 'I' for Inactive)
REMARK    1  A    between atoms: N_2  and  C_7
REMARK    2  A    between atoms: C_5  and  C_7
REMARK                            x       y       z     vdW  Elec       q    Type
REMARK                         _______ _______ _______ _____ _____    ______ ____
ROOT
ATOM      1 CL   UNL     1       0.000   0.000   0.000  0.00  0.00    +0.000 Cl
ENDROOT
TORSDOF 0
