REMARK  Name = 
REMARK  5 active torsions:
REMARK  status: ('A' for Active; 'I' for Inactive)
REMARK    1  A    between atoms: O_2  and  C_3
REMARK    2  A    between atoms: C_3  and  C_4
REMARK    3  A    between atoms: C_4  and  N_5
REMARK    4  A    between atoms: C_7  and  N_8
REMARK    5  A    between atoms: C_9  and  C_11
REMARK                            x       y       z     vdW  Elec       q    Type
REMARK                         _______ _______ _______ _____ _____    ______ ____
ROOT
ATOM      1  N   UNL     1      -2.649   5.412   0.000  0.00  0.00    -0.290 N 
ATOM      2  C   UNL     1      -3.363   5.825   0.000  0.00  0.00    +0.261 A 
ATOM      3  O   UNL     1      -3.363   6.650   0.000  0.00  0.00    -0.267 OA
ATOM      4  C   UNL     1      -4.078   5.412   0.000  0.00  0.00    +0.062 A 
ATOM      5  C   UNL     1      -4.078   4.588   0.000  0.00  0.00    +0.023 A 
ATOM      6  C   UNL     1      -3.363   4.175   0.000  0.00  0.00    +0.091 A 
ATOM      7  C   UNL     1      -2.649   4.588   0.000  0.00  0.00    +0.095 A 
ENDROOT
BRANCH   6   8
ATOM      8  N   UNL     1      -3.363   3.350   0.000  0.00  0.00    -0.178 NA
ATOM      9  C   UNL     1      -2.649   2.938   0.000  0.00  0.00    +0.245 C 
ATOM     10  O   UNL     1      -1.934   3.350   0.000  0.00  0.00    -0.273 OA
BRANCH   9  11
ATOM     11  C   UNL     1      -2.649   2.112   0.000  0.00  0.00    +0.079 C 
ATOM     12  C   UNL     1      -3.232   1.529   0.000  0.00  0.00    +0.009 C 
ATOM     13  C   UNL     1      -2.649   0.946   0.000  0.00  0.00    +0.001 C 
ATOM     14  C   UNL     1      -2.065   1.529   0.000  0.00  0.00    +0.009 C 
ENDBRANCH   9  11
ENDBRANCH   6   8
BRANCH   1  15
ATOM     15  C   UNL     1      -1.934   5.825   0.000  0.00  0.00    +0.141 C 
BRANCH  15  16
ATOM     16  C   UNL     1      -1.934   6.650   0.000  0.00  0.00    +0.167 C 
BRANCH  16  18
ATOM     17  C   UNL     1      -1.220   7.888   0.000  0.00  0.00    +0.174 C 
ATOM     18  O   UNL     1      -1.220   7.062   0.000  0.00  0.00    -0.349 OA
ENDBRANCH  16  18
ENDBRANCH  15  16
ENDBRANCH   1  15
TORSDOF 5
