REMARK  Name = 
REMARK  5 active torsions:
REMARK  status: ('A' for Active; 'I' for Inactive)
REMARK    1  A    between atoms: C_2  and  N_3
REMARK    2  A    between atoms: C_5  and  N_6
REMARK    3  A    between atoms: N_9  and  C_10
REMARK    4  A    between atoms: C_10  and  C_11
REMARK    5  A    between atoms: C_11  and  N_13
REMARK                            x       y       z     vdW  Elec       q    Type
REMARK                         _______ _______ _______ _____ _____    ______ ____
ROOT
ATOM      1  N   UNL     1       2.143  -3.712   0.000  0.00  0.00    -0.158 NA
ATOM      2  C   UNL     1       2.858  -4.125   0.000  0.00  0.00    +0.344 C 
ATOM      3  N   UNL     1       3.572  -3.712   0.000  0.00  0.00    -0.185 NA
ATOM      4  O   UNL     1       2.858  -4.950   0.000  0.00  0.00    -0.249 OA
ENDROOT
BRANCH   1   8
ATOM      5  N   UNL     1       0.123  -4.402   0.000  0.00  0.00    -0.248 N 
ATOM      6  N   UNL     1       0.536  -5.117   0.000  0.00  0.00    -0.166 NA
ATOM      7  C   UNL     1       1.343  -4.946   0.000  0.00  0.00    +0.138 A 
ATOM      8  C   UNL     1       1.429  -4.125   0.000  0.00  0.00    +0.114 A 
ATOM      9  C   UNL     1       0.675  -3.789   0.000  0.00  0.00    +0.113 A 
BRANCH   5  11
ATOM     10  C   UNL     1      -1.182  -4.984   0.000  0.00  0.00    +0.028 C 
ATOM     11  C   UNL     1      -0.697  -4.316   0.000  0.00  0.00    +0.128 C 
ENDBRANCH   5  11
ENDBRANCH   1   8
BRANCH   3  12
ATOM     12  C   UNL     1       4.287  -4.125   0.000  0.00  0.00    +0.133 C 
BRANCH  12  13
ATOM     13  C   UNL     1       5.001  -3.712   0.000  0.00  0.00    +0.079 C 
ATOM     14  C   UNL     1       5.001  -2.888   0.000  0.00  0.00    +0.019 C 
BRANCH  13  15
ATOM     15  N   UNL     1       5.716  -4.125   0.000  0.00  0.00    -0.268 NA
ATOM     16  C   UNL     1       5.716  -4.950   0.000  0.00  0.00    +0.105 C 
ATOM     17  C   UNL     1       6.430  -5.362   0.000  0.00  0.00    +0.159 C 
ATOM     18  O   UNL     1       7.145  -4.950   0.000  0.00  0.00    -0.351 OA
ATOM     19  C   UNL     1       7.145  -4.125   0.000  0.00  0.00    +0.159 C 
ATOM     20  C   UNL     1       6.430  -3.712   0.000  0.00  0.00    +0.105 C 
ENDBRANCH  13  15
ENDBRANCH  12  13
ENDBRANCH   3  12
TORSDOF 5
