REMARK  Name = 
REMARK  5 active torsions:
REMARK  status: ('A' for Active; 'I' for Inactive)
REMARK    1  A    between atoms: C_2  and  N_3
REMARK    2  A    between atoms: C_2  and  C_18
REMARK    3  A    between atoms: N_6  and  C_7
REMARK    4  A    between atoms: C_12  and  N_13
REMARK    5  A    between atoms: N_20  and  C_21
REMARK                            x       y       z     vdW  Elec       q    Type
REMARK                         _______ _______ _______ _____ _____    ______ ____
ROOT
ATOM      1  N   UNL     1       0.715  -2.062   0.000  0.00  0.00    -0.179 NA
ATOM      2  C   UNL     1       0.000  -1.650   0.000  0.00  0.00    +0.344 C 
ATOM      3  N   UNL     1      -0.715  -2.062   0.000  0.00  0.00    -0.158 NA
ATOM      4  O   UNL     1       0.000  -0.825   0.000  0.00  0.00    -0.249 OA
ENDROOT
BRANCH   3   5
ATOM      5  C   UNL     1      -0.715  -2.888   0.000  0.00  0.00    +0.106 A 
ATOM      6  C   UNL     1      -1.429  -3.300   0.000  0.00  0.00    +0.147 A 
ATOM      7  N   UNL     1      -1.429  -4.125   0.000  0.00  0.00    -0.228 NA
ATOM      8  C   UNL     1      -0.715  -4.537   0.000  0.00  0.00    +0.100 A 
ATOM      9  C   UNL     1       0.000  -4.125   0.000  0.00  0.00    +0.022 A 
ATOM     10  C   UNL     1       0.000  -3.300   0.000  0.00  0.00    +0.021 A 
BRANCH   6  11
ATOM     11  N   UNL     1      -2.143  -2.888   0.000  0.00  0.00    -0.292 N 
ATOM     12  C   UNL     1      -2.230  -2.067   0.000  0.00  0.00    +0.092 C 
ATOM     13  C   UNL     1      -3.037  -1.895   0.000  0.00  0.00    +0.023 C 
ATOM     14  C   UNL     1      -3.449  -2.610   0.000  0.00  0.00    +0.023 C 
ATOM     15  C   UNL     1      -2.897  -3.223   0.000  0.00  0.00    +0.092 C 
ENDBRANCH   6  11
ENDBRANCH   3   5
BRANCH   1  17
ATOM     16  C   UNL     1       1.429  -0.825   0.000  0.00  0.00    +0.033 C 
ATOM     17  C   UNL     1       1.429  -1.650   0.000  0.00  0.00    +0.174 C 
BRANCH  17  18
ATOM     18  C   UNL     1       2.143  -2.062   0.000  0.00  0.00    +0.261 C 
ATOM     19  N   UNL     1       2.858  -1.650   0.000  0.00  0.00    -0.206 NA
ATOM     20  O   UNL     1       2.143  -2.888   0.000  0.00  0.00    -0.271 OA
BRANCH  19  21
ATOM     21  C   UNL     1       2.858  -0.825   0.000  0.00  0.00    +0.095 C 
ATOM     22  C   UNL     1       3.525  -0.340   0.000  0.00  0.00    +0.022 C 
ATOM     23  C   UNL     1       3.270   0.445   0.000  0.00  0.00    +0.002 C 
ATOM     24  C   UNL     1       2.445   0.445   0.000  0.00  0.00    +0.002 C 
ATOM     25  C   UNL     1       2.190  -0.340   0.000  0.00  0.00    +0.022 C 
ENDBRANCH  19  21
ENDBRANCH  17  18
ENDBRANCH   1  17
TORSDOF 5
