REMARK  Name = 
REMARK  6 active torsions:
REMARK  status: ('A' for Active; 'I' for Inactive)
REMARK    1  A    between atoms: N_2  and  C_4
REMARK    2  A    between atoms: N_9  and  C_10
REMARK    3  A    between atoms: C_10  and  C_11
REMARK    4  A    between atoms: N_13  and  C_14
REMARK    5  A    between atoms: C_14  and  C_15
REMARK    6  A    between atoms: C_15  and  N_16
REMARK                            x       y       z     vdW  Elec       q    Type
REMARK                         _______ _______ _______ _____ _____    ______ ____
ROOT
ATOM      1  C   UNL     1       2.858   0.825   0.000  0.00  0.00    +0.265 C 
ATOM      2  N   UNL     1       3.572   1.238   0.000  0.00  0.00    -0.202 NA
ATOM      3  O   UNL     1       2.858   0.000   0.000  0.00  0.00    -0.271 OA
ENDROOT
BRANCH   1   4
ATOM      4  C   UNL     1       2.143   1.238   0.000  0.00  0.00    +0.196 C 
BRANCH   4   7
ATOM      5  C   UNL     1       0.715  -0.412   0.000  0.00  0.00    +0.307 A 
ATOM      6  C   UNL     1       1.429   0.000   0.000  0.00  0.00    +0.155 A 
ATOM      7  N   UNL     1       1.429   0.825   0.000  0.00  0.00    -0.280 N 
ATOM      8  C   UNL     1       0.715   1.238   0.000  0.00  0.00    +0.262 A 
ATOM      9  O   UNL     1       0.715   2.062   0.000  0.00  0.00    -0.267 OA
ATOM     10  C   UNL     1       0.000   0.825   0.000  0.00  0.00    +0.067 A 
ATOM     11  C   UNL     1       0.000   0.000   0.000  0.00  0.00    +0.082 A 
BRANCH   5  13
ATOM     12  O   UNL     1       0.000  -1.650   0.000  0.00  0.00    -0.576 OA
ATOM     13  N   UNL     1       0.715  -1.238   0.000  0.00  0.00    +0.082 N 
ATOM     14  O   UNL     1       1.429  -1.650   0.000  0.00  0.00    +0.042 OA
ENDBRANCH   5  13
ENDBRANCH   4   7
ENDBRANCH   1   4
BRANCH   2  15
ATOM     15  C   UNL     1       4.287   0.825   0.000  0.00  0.00    +0.137 C 
BRANCH  15  16
ATOM     16  C   UNL     1       5.001   1.238   0.000  0.00  0.00    +0.125 C 
BRANCH  16  17
ATOM     17  N   UNL     1       5.716   0.825   0.000  0.00  0.00    -0.219 N 
ATOM     18  C   UNL     1       5.802   0.004   0.000  0.00  0.00    +0.283 C 
ATOM     19  O   UNL     1       5.189  -0.547   0.000  0.00  0.00    -0.262 OA
ATOM     20  S   UNL     1       6.609  -0.167   0.000  0.00  0.00    -0.047 S 
ATOM     21  C   UNL     1       7.021   0.547   0.000  0.00  0.00    +0.152 C 
ATOM     22  C   UNL     1       6.469   1.161   0.000  0.00  0.00    +0.243 C 
ATOM     23  O   UNL     1       6.641   1.968   0.000  0.00  0.00    -0.273 OA
ENDBRANCH  16  17
ENDBRANCH  15  16
ENDBRANCH   2  15
TORSDOF 6
