REMARK  Name = 
REMARK  1 active torsions:
REMARK  status: ('A' for Active; 'I' for Inactive)
REMARK    1  A    between atoms: C_3  and  N_6
REMARK                            x       y       z     vdW  Elec       q    Type
REMARK                         _______ _______ _______ _____ _____    ______ ____
ROOT
ATOM      1  C   UNL     1       0.844  -2.275   0.000  0.00  0.00    +0.091 C 
ATOM      2  N   UNL     1       1.669  -2.275   0.000  0.00  0.00    -0.216 NA
ATOM      3  C   UNL     1       1.924  -1.490   0.000  0.00  0.00    +0.113 C 
ATOM      4  C   UNL     1       1.256  -1.005   0.000  0.00  0.00    +0.126 C 
ATOM      5  C   UNL     1       0.589  -1.490   0.000  0.00  0.00    +0.045 C 
ENDROOT
BRANCH   4   6
ATOM      6  N   UNL     1       1.256  -0.180   0.000  0.00  0.00    -0.231 N 
ATOM      7  N   UNL     1       1.924   0.305   0.000  0.00  0.00    -0.145 NA
ATOM      8  C   UNL     1       1.669   1.089   0.000  0.00  0.00    +0.221 A 
ATOM      9  N   UNL     1       0.844   1.089   0.000  0.00  0.00    -0.201 NA
ATOM     10  C   UNL     1       0.589   0.305   0.000  0.00  0.00    +0.197 A 
ENDBRANCH   4   6
TORSDOF 1
