REMARK  Name = 
REMARK  4 active torsions:
REMARK  status: ('A' for Active; 'I' for Inactive)
REMARK    1  A    between atoms: C_5  and  C_6
REMARK    2  A    between atoms: C_6  and  C_7
REMARK    3  A    between atoms: N_9  and  C_10
REMARK    4  A    between atoms: C_14  and  C_15
REMARK                            x       y       z     vdW  Elec       q    Type
REMARK                         _______ _______ _______ _____ _____    ______ ____
ROOT
ATOM      1  C   UNL     1      -0.608   6.003   0.000  0.00  0.00    +0.246 C 
ATOM      2  N   UNL     1      -1.322   5.590   0.000  0.00  0.00    -0.206 NA
ATOM      3  O   UNL     1       0.107   5.590   0.000  0.00  0.00    -0.273 OA
ENDROOT
BRANCH   2   4
ATOM      4  C   UNL     1      -1.322   4.765   0.000  0.00  0.00    +0.104 C 
ATOM      5  C   UNL     1      -1.990   4.280   0.000  0.00  0.00    +0.100 C 
ATOM      6  C   UNL     1      -1.735   3.496   0.000  0.00  0.00    +0.011 C 
ATOM      7  C   UNL     1      -0.910   3.496   0.000  0.00  0.00    +0.002 C 
ATOM      8  C   UNL     1      -0.655   4.280   0.000  0.00  0.00    +0.022 C 
BRANCH   5   9
ATOM      9  C   UNL     1      -2.774   4.535   0.000  0.00  0.00    +0.262 C 
ATOM     10  N   UNL     1      -2.946   5.342   0.000  0.00  0.00    -0.088 NA
ATOM     11  O   UNL     1      -3.387   3.983   0.000  0.00  0.00    -0.272 OA
ENDBRANCH   5   9
ENDBRANCH   2   4
BRANCH   1  12
ATOM     12  C   UNL     1      -0.608   6.828   0.000  0.00  0.00    +0.115 C 
BRANCH  12  17
ATOM     13  C   UNL     1       2.250   8.478   0.000  0.00  0.00    +0.052 C 
ATOM     14  C   UNL     1       1.536   8.065   0.000  0.00  0.00    +0.059 A 
ATOM     15  N   UNL     1       0.821   8.478   0.000  0.00  0.00    -0.248 NA
ATOM     16  C   UNL     1       0.107   8.065   0.000  0.00  0.00    +0.095 A 
ATOM     17  C   UNL     1       0.107   7.240   0.000  0.00  0.00    +0.006 A 
ATOM     18  C   UNL     1       0.821   6.828   0.000  0.00  0.00    -0.001 A 
ATOM     19  C   UNL     1       1.536   7.240   0.000  0.00  0.00    +0.014 A 
ENDBRANCH  12  17
ENDBRANCH   1  12
TORSDOF 4
