REMARK  Name = 
REMARK  2 active torsions:
REMARK  status: ('A' for Active; 'I' for Inactive)
REMARK    1  A    between atoms: C_7  and  N_10
REMARK    2  A    between atoms: N_13  and  C_14
REMARK                            x       y       z     vdW  Elec       q    Type
REMARK                         _______ _______ _______ _____ _____    ______ ____
ROOT
ATOM      1  N   UNL     1       2.858  -7.425   0.000  0.00  0.00    -0.189 NA
ATOM      2  C   UNL     1       2.143  -7.838   0.000  0.00  0.00    +0.343 C 
ATOM      3  N   UNL     1       2.143  -8.662   0.000  0.00  0.00    -0.159 NA
ATOM      4  O   UNL     1       1.429  -7.425   0.000  0.00  0.00    -0.249 OA
ENDROOT
BRANCH   3   5
ATOM      5  C   UNL     1       1.429  -9.075   0.000  0.00  0.00    +0.094 A 
ATOM      6  C   UNL     1       0.715  -8.662   0.000  0.00  0.00    +0.117 A 
ATOM      7  N   UNL     1       0.000  -9.075   0.000  0.00  0.00    -0.228 NA
ATOM      8  C   UNL     1       0.000  -9.900   0.000  0.00  0.00    +0.132 A 
ATOM      9  N   UNL     1      -0.715 -10.312   0.000  0.00  0.00    -0.293 N 
ATOM     10  C   UNL     1      -1.429  -9.900   0.000  0.00  0.00    +0.092 C 
ATOM     11  C   UNL     1      -2.143 -10.312   0.000  0.00  0.00    +0.022 C 
ATOM     12  C   UNL     1      -2.143 -11.137   0.000  0.00  0.00    +0.004 C 
ATOM     13  C   UNL     1      -1.429 -11.550   0.000  0.00  0.00    +0.022 C 
ATOM     14  C   UNL     1      -0.715 -11.137   0.000  0.00  0.00    +0.092 C 
ATOM     15  C   UNL     1       0.715 -10.312   0.000  0.00  0.00    +0.036 A 
ATOM     16  C   UNL     1       1.429  -9.900   0.000  0.00  0.00    +0.021 A 
ENDBRANCH   3   5
BRANCH   1  22
ATOM     17  C   UNL     1       2.143  -3.712   0.000  0.00  0.00    +0.095 C 
ATOM     18  C   UNL     1       2.858  -4.125   0.000  0.00  0.00    +0.226 C 
ATOM     19  N   UNL     1       2.858  -4.950   0.000  0.00  0.00    -0.279 N 
ATOM     20  C   UNL     1       2.143  -5.362   0.000  0.00  0.00    +0.095 C 
ATOM     21  C   UNL     1       2.143  -6.188   0.000  0.00  0.00    +0.043 C 
ATOM     22  C   UNL     1       2.858  -6.600   0.000  0.00  0.00    +0.100 C 
ATOM     23  C   UNL     1       3.572  -6.188   0.000  0.00  0.00    +0.043 C 
ATOM     24  C   UNL     1       3.572  -5.362   0.000  0.00  0.00    +0.095 C 
ATOM     25  O   UNL     1       3.572  -3.712   0.000  0.00  0.00    -0.275 OA
ENDBRANCH   1  22
TORSDOF 2
