REMARK  Name = 
REMARK  6 active torsions:
REMARK  status: ('A' for Active; 'I' for Inactive)
REMARK    1  A    between atoms: N_2  and  C_14
REMARK    2  A    between atoms: C_5  and  N_6
REMARK    3  A    between atoms: N_8  and  C_22
REMARK    4  A    between atoms: C_13  and  C_14
REMARK    5  A    between atoms: C_13  and  C_21
REMARK    6  A    between atoms: C_22  and  C_27
REMARK                            x       y       z     vdW  Elec       q    Type
REMARK                         _______ _______ _______ _____ _____    ______ ____
ROOT
ATOM      1  C   UNL     1       2.562   0.825   0.000  0.00  0.00    +0.149 A 
ATOM      2  C   UNL     1       3.275   1.238   0.000  0.00  0.00    +0.154 A 
ATOM      3  N   UNL     1       3.992   0.825   0.000  0.00  0.00    -0.207 NA
ATOM      4  C   UNL     1       3.992   0.000   0.000  0.00  0.00    +0.201 A 
ATOM      5  N   UNL     1       3.275  -0.412   0.000  0.00  0.00    -0.205 NA
ATOM      6  N   UNL     1       1.779   1.083   0.000  0.00  0.00    -0.219 NA
ATOM      7  C   UNL     1       1.292   0.412   0.000  0.00  0.00    +0.180 A 
ATOM      8  N   UNL     1       1.779  -0.254   0.000  0.00  0.00    -0.294 N 
ATOM      9  C   UNL     1       2.562   0.000   0.000  0.00  0.00    +0.167 A 
ENDROOT
BRANCH   2  10
ATOM     10  N   UNL     1       3.275   2.062   0.000  0.00  0.00    -0.289 N 
ATOM     11  C   UNL     1       2.562   2.475   0.000  0.00  0.00    +0.110 C 
ATOM     12  C   UNL     1       2.562   3.300   0.000  0.00  0.00    +0.094 C 
ATOM     13  N   UNL     1       3.275   3.712   0.000  0.00  0.00    -0.270 NA
ATOM     14  C   UNL     1       3.992   3.300   0.000  0.00  0.00    +0.064 C 
ATOM     15  C   UNL     1       4.804   3.158   0.000  0.00  0.00    +0.018 C 
ATOM     16  C   UNL     1       4.275   4.075   0.000  0.00  0.00    +0.018 C 
ATOM     17  C   UNL     1       3.992   2.475   0.000  0.00  0.00    +0.107 C 
BRANCH  13  18
ATOM     18  C   UNL     1       3.275   4.533   0.000  0.00  0.00    +0.108 C 
BRANCH  18  19
ATOM     19  C   UNL     1       3.992   4.950   0.000  0.00  0.00    +0.199 C 
ATOM     20  O   UNL     1       3.992   5.775   0.000  0.00  0.00    -0.219 OA
ENDBRANCH  18  19
ENDBRANCH  13  18
ENDBRANCH   2  10
BRANCH   8  21
ATOM     21  C   UNL     1       1.521  -1.038   0.000  0.00  0.00    +0.116 C 
BRANCH  21  22
ATOM     22  C   UNL     1       0.717  -1.208   0.000  0.00  0.00    +0.106 C 
ATOM     23  C   UNL     1       0.887  -2.017   0.000  0.00  0.00    +0.149 C 
ATOM     24  O   UNL     1       0.079  -2.188   0.000  0.00  0.00    -0.353 OA
ATOM     25  C   UNL     1      -0.092  -1.379   0.000  0.00  0.00    +0.149 C 
BRANCH  22  26
ATOM     26  C   UNL     1       0.546  -0.400   0.000  0.00  0.00    +0.189 C 
ATOM     27  O   UNL     1      -0.242  -0.146   0.000  0.00  0.00    -0.220 OA
ENDBRANCH  22  26
ENDBRANCH  21  22
ENDBRANCH   8  21
TORSDOF 6
