REMARK  Name = 
REMARK  3 active torsions:
REMARK  status: ('A' for Active; 'I' for Inactive)
REMARK    1  A    between atoms: C_2  and  N_4
REMARK    2  A    between atoms: C_8  and  N_9
REMARK    3  A    between atoms: N_12  and  C_13
REMARK                            x       y       z     vdW  Elec       q    Type
REMARK                         _______ _______ _______ _____ _____    ______ ____
ROOT
ATOM      1  N   UNL     1      -4.114  -0.796   0.000  0.00  0.00    -0.142 NA
ATOM      2  C   UNL     1      -4.727  -1.348   0.000  0.00  0.00    +0.345 C 
ATOM      3  N   UNL     1      -5.512  -1.093   0.000  0.00  0.00    -0.190 NA
ATOM      4  O   UNL     1      -4.556  -2.155   0.000  0.00  0.00    -0.249 OA
ENDROOT
BRANCH   3   5
ATOM      5  C   UNL     1      -6.125  -1.645   0.000  0.00  0.00    +0.085 C 
ATOM      6  C   UNL     1      -6.890  -1.954   0.000  0.00  0.00    +0.052 C 
ATOM      7  C   UNL     1      -7.005  -2.771   0.000  0.00  0.00    +0.144 C 
ATOM      8  O   UNL     1      -6.355  -3.279   0.000  0.00  0.00    -0.354 OA
ATOM      9  C   UNL     1      -5.590  -2.970   0.000  0.00  0.00    +0.144 C 
ATOM     10  C   UNL     1      -5.475  -2.153   0.000  0.00  0.00    +0.052 C 
ATOM     11  C   UNL     1      -6.562  -0.946   0.000  0.00  0.00    +0.022 C 
ENDBRANCH   3   5
BRANCH   1  13
ATOM     12  N   UNL     1      -2.662  -0.566   0.000  0.00  0.00    -0.238 N 
ATOM     13  C   UNL     1      -3.330  -1.051   0.000  0.00  0.00    +0.155 A 
ATOM     14  C   UNL     1      -3.075  -1.836   0.000  0.00  0.00    +0.058 A 
ATOM     15  C   UNL     1      -2.250  -1.836   0.000  0.00  0.00    +0.123 A 
ATOM     16  N   UNL     1      -1.995  -1.051   0.000  0.00  0.00    -0.167 NA
BRANCH  12  18
ATOM     17  C   UNL     1      -1.948   0.671   0.000  0.00  0.00    +0.026 C 
ATOM     18  C   UNL     1      -2.662   0.259   0.000  0.00  0.00    +0.107 C 
ATOM     19  C   UNL     1      -3.377   0.671   0.000  0.00  0.00    +0.026 C 
ENDBRANCH  12  18
ENDBRANCH   1  13
TORSDOF 3
