REMARK  Name = 
REMARK  3 active torsions:
REMARK  status: ('A' for Active; 'I' for Inactive)
REMARK    1  A    between atoms: C_2  and  C_3
REMARK    2  A    between atoms: C_2  and  N_9
REMARK    3  A    between atoms: C_3  and  N_4
REMARK                            x       y       z     vdW  Elec       q    Type
REMARK                         _______ _______ _______ _____ _____    ______ ____
ROOT
ATOM      1  N   UNL     1       0.204  -1.954   0.000  0.00  0.00    -0.188 NA
ATOM      2  C   UNL     1       0.918  -2.366   0.000  0.00  0.00    +0.323 C 
ATOM      3  N   UNL     1       1.633  -1.954   0.000  0.00  0.00    -0.261 N 
ATOM      4  C   UNL     1       2.315  -2.418   0.000  0.00  0.00    +0.116 C 
ATOM      5  C   UNL     1       3.103  -2.175   0.000  0.00  0.00    +0.115 C 
ATOM      6  N   UNL     1       3.404  -1.407   0.000  0.00  0.00    -0.278 N 
ATOM      7  C   UNL     1       4.227  -1.346   0.000  0.00  0.00    +0.226 C 
ATOM      8  C   UNL     1       4.692  -2.027   0.000  0.00  0.00    +0.095 C 
ATOM      9  O   UNL     1       4.585  -0.602   0.000  0.00  0.00    -0.275 OA
ATOM     10  C   UNL     1       2.992  -0.693   0.000  0.00  0.00    +0.095 C 
ATOM     11  C   UNL     1       2.176  -0.570   0.000  0.00  0.00    +0.043 C 
ATOM     12  C   UNL     1       1.571  -1.131   0.000  0.00  0.00    +0.097 C 
ATOM     13  O   UNL     1       0.918  -3.191   0.000  0.00  0.00    -0.251 OA
ENDROOT
BRANCH   1  15
ATOM     14  C   UNL     1      -0.510  -3.191   0.000  0.00  0.00    +0.026 C 
ATOM     15  C   UNL     1      -0.510  -2.366   0.000  0.00  0.00    +0.119 C 
BRANCH  15  16
ATOM     16  C   UNL     1      -1.225  -1.954   0.000  0.00  0.00    +0.129 C 
BRANCH  16  17
ATOM     17  N   UNL     1      -1.939  -2.366   0.000  0.00  0.00    -0.306 N 
ATOM     18  C   UNL     1      -2.693  -2.031   0.000  0.00  0.00    +0.179 A 
ATOM     19  N   UNL     1      -3.245  -2.644   0.000  0.00  0.00    -0.222 NA
ATOM     20  C   UNL     1      -2.833  -3.358   0.000  0.00  0.00    +0.119 A 
ATOM     21  C   UNL     1      -2.026  -3.187   0.000  0.00  0.00    +0.098 A 
ENDBRANCH  16  17
ENDBRANCH  15  16
ENDBRANCH   1  15
TORSDOF 3
