REMARK  Name = 
REMARK  4 active torsions:
REMARK  status: ('A' for Active; 'I' for Inactive)
REMARK    1  A    between atoms: N_1  and  C_8
REMARK    2  A    between atoms: N_2  and  C1*_5
REMARK    3  A    between atoms: C_8  and  C_11
REMARK    4  A    between atoms: C4*_13  and  C5*_23
REMARK                            x       y       z     vdW  Elec       q    Type
REMARK                         _______ _______ _______ _____ _____    ______ ____
ROOT
ATOM      1  N   UNL     1       0.713   1.238   0.000  0.00  0.00    -0.245 N 
ATOM      2  C   UNL     1       0.000   0.825   0.000  0.00  0.00    +0.262 A 
ATOM      3  O   UNL     1       0.000   0.000   0.000  0.00  0.00    -0.267 OA
ATOM      4  C   UNL     1      -0.717   1.238   0.000  0.00  0.00    +0.052 A 
ATOM      5  C   UNL     1      -0.717   2.062   0.000  0.00  0.00    +0.082 A 
ATOM      6  N   UNL     1       0.000   2.475   0.000  0.00  0.00    -0.257 N 
ATOM      7  C   UNL     1      -1.429   0.825   0.000  0.00  0.00    +0.038 C 
ATOM      8  C   UNL     1       0.713   2.062   0.000  0.00  0.00    +0.336 A 
ATOM      9  O   UNL     1       1.425   2.475   0.000  0.00  0.00    -0.246 OA
ENDROOT
BRANCH   6  10
ATOM     10  C1* UNL     1       0.000   3.300   0.000  0.00  0.00    +0.211 C 
ATOM     11  C2* UNL     1      -0.671   3.788   0.000  0.00  0.00    +0.089 C 
ATOM     12  C3* UNL     1      -0.412   4.567   0.000  0.00  0.00    +0.186 C 
ATOM     13  C4* UNL     1       0.412   4.567   0.000  0.00  0.00    +0.180 C 
ATOM     14  O3* UNL     1      -0.900   5.233   0.000  0.00  0.00    -0.220 OA
ATOM     15  O4* UNL     1       0.667   3.788   0.000  0.00  0.00    -0.332 OA
BRANCH  13  16
ATOM     16  C5* UNL     1       0.896   5.233   0.000  0.00  0.00    +0.214 C 
ATOM     17  O5* UNL     1       0.558   5.987   0.000  0.00  0.00    -0.218 OA
ENDBRANCH  13  16
ENDBRANCH   6  10
BRANCH   1  18
ATOM     18  C   UNL     1       1.425   0.825   0.000  0.00  0.00    +0.140 C 
BRANCH  18  19
ATOM     19  C   UNL     1       1.425   0.000   0.000  0.00  0.00    +0.003 A 
ATOM     20  C   UNL     1       0.713  -0.412   0.000  0.00  0.00    +0.012 A 
ATOM     21  C   UNL     1       0.713  -1.238   0.000  0.00  0.00    +0.059 A 
ATOM     22  N   UNL     1       1.425  -1.650   0.000  0.00  0.00    -0.250 NA
ATOM     23  C   UNL     1       2.142  -1.238   0.000  0.00  0.00    +0.081 A 
ATOM     24  C   UNL     1       2.854  -1.650   0.000  0.00  0.00    +0.019 A 
ATOM     25  C   UNL     1       3.571  -1.238   0.000  0.00  0.00    +0.002 A 
ATOM     26  C   UNL     1       3.571  -0.412   0.000  0.00  0.00    +0.000 A 
ATOM     27  C   UNL     1       2.854   0.000   0.000  0.00  0.00    +0.001 A 
ATOM     28  C   UNL     1       0.000  -1.650   0.000  0.00  0.00    +0.052 C 
ATOM     29  C   UNL     1       2.142  -0.412   0.000  0.00  0.00    +0.016 A 
ENDBRANCH  18  19
ENDBRANCH   1  18
TORSDOF 4
