REMARK  Name = 
REMARK  1 active torsions:
REMARK  status: ('A' for Active; 'I' for Inactive)
REMARK    1  A    between atoms: N_3  and  C_4
REMARK                            x       y       z     vdW  Elec       q    Type
REMARK                         _______ _______ _______ _____ _____    ______ ____
ROOT
ATOM      1  O   UNL     1      -2.751  -1.712   0.000  0.00  0.00    -0.249 OA
ATOM      2  C   UNL     1      -2.037  -1.299   0.000  0.00  0.00    +0.345 C 
ATOM      3  N   UNL     1      -1.322  -1.712   0.000  0.00  0.00    -0.134 NA
ATOM      4  C   UNL     1      -1.322  -2.537   0.000  0.00  0.00    +0.209 A 
ATOM      5  S   UNL     1      -1.990  -3.022   0.000  0.00  0.00    -0.027 S 
ATOM      6  C   UNL     1      -1.735  -3.806   0.000  0.00  0.00    +0.161 A 
ATOM      7  N   UNL     1      -0.910  -3.806   0.000  0.00  0.00    -0.137 NA
ATOM      8  N   UNL     1      -0.655  -3.022   0.000  0.00  0.00    -0.123 NA
ATOM      9  N   UNL     1      -2.037  -0.474   0.000  0.00  0.00    -0.189 NA
ENDROOT
BRANCH   9  10
ATOM     10  C   UNL     1      -2.751  -0.062   0.000  0.00  0.00    +0.097 C 
ATOM     11  C   UNL     1      -2.751   0.763   0.000  0.00  0.00    +0.022 C 
ATOM     12  C   UNL     1      -3.466   1.176   0.000  0.00  0.00    +0.002 C 
ATOM     13  C   UNL     1      -4.180   0.763   0.000  0.00  0.00    +0.000 C 
ATOM     14  C   UNL     1      -4.180  -0.062   0.000  0.00  0.00    +0.002 C 
ATOM     15  C   UNL     1      -3.466  -0.474   0.000  0.00  0.00    +0.022 C 
ENDBRANCH   9  10
TORSDOF 1
