REMARK  Name = 
REMARK  5 active torsions:
REMARK  status: ('A' for Active; 'I' for Inactive)
REMARK    1  A    between atoms: C_2  and  C_3
REMARK    2  A    between atoms: C_5  and  C_6
REMARK    3  A    between atoms: C_6  and  C_7
REMARK    4  A    between atoms: C_7  and  N_8
REMARK    5  A    between atoms: N_11  and  C_12
REMARK                            x       y       z     vdW  Elec       q    Type
REMARK                         _______ _______ _______ _____ _____    ______ ____
ROOT
ATOM      1  C   UNL     1      -0.667   1.310   0.000  0.00  0.00    +0.076 C 
ENDROOT
BRANCH   1   6
ATOM      2  C   UNL     1      -2.688   0.620   0.000  0.00  0.00    +0.061 A 
ATOM      3  C   UNL     1      -2.275  -0.095   0.000  0.00  0.00    +0.022 A 
ATOM      4  C   UNL     1      -2.611  -0.848   0.000  0.00  0.00    +0.039 C 
ATOM      5  S   UNL     1      -1.468   0.077   0.000  0.00  0.00    -0.075 S 
ATOM      6  C   UNL     1      -1.382   0.897   0.000  0.00  0.00    +0.089 A 
ATOM      7  N   UNL     1      -2.136   1.233   0.000  0.00  0.00    -0.247 NA
BRANCH   2   9
ATOM      8  C   UNL     1      -3.993   0.039   0.000  0.00  0.00    +0.007 C 
ATOM      9  C   UNL     1      -3.508   0.706   0.000  0.00  0.00    +0.046 C 
ENDBRANCH   2   9
ENDBRANCH   1   6
BRANCH   1  10
ATOM     10  C   UNL     1       0.047   0.897   0.000  0.00  0.00    +0.124 C 
BRANCH  10  11
ATOM     11  N   UNL     1       0.761   1.310   0.000  0.00  0.00    -0.187 NA
ATOM     12  C   UNL     1       1.476   0.897   0.000  0.00  0.00    +0.339 C 
ATOM     13  N   UNL     1       2.190   1.310   0.000  0.00  0.00    -0.189 NA
ATOM     14  O   UNL     1       1.476   0.072   0.000  0.00  0.00    -0.249 OA
BRANCH  13  15
ATOM     15  C   UNL     1       2.905   0.897   0.000  0.00  0.00    +0.097 C 
ATOM     16  C   UNL     1       3.317   0.183   0.000  0.00  0.00    +0.023 C 
ATOM     17  C   UNL     1       3.730   0.897   0.000  0.00  0.00    +0.023 C 
ENDBRANCH  13  15
ENDBRANCH  10  11
ENDBRANCH   1  10
TORSDOF 5
