REMARK  Name = 
REMARK  2 active torsions:
REMARK  status: ('A' for Active; 'I' for Inactive)
REMARK    1  A    between atoms: C_4  and  C_5
REMARK    2  A    between atoms: C_5  and  C_6
REMARK                            x       y       z     vdW  Elec       q    Type
REMARK                         _______ _______ _______ _____ _____    ______ ____
ROOT
ATOM      1 CL   UNL     1       0.000   0.000   0.000  0.00  0.00    +0.000 Cl
ENDROOT
TORSDOF 0
REMARK  Name = 
REMARK  2 active torsions:
REMARK  status: ('A' for Active; 'I' for Inactive)
REMARK    1  A    between atoms: C_4  and  C_5
REMARK    2  A    between atoms: C_5  and  C_6
REMARK                            x       y       z     vdW  Elec       q    Type
REMARK                         _______ _______ _______ _____ _____    ______ ____
ROOT
ATOM      1 CL   UNL     1       2.004   0.000   0.000  0.00  0.00    +0.000 Cl
ENDROOT
TORSDOF 0
REMARK  Name = 
REMARK  2 active torsions:
REMARK  status: ('A' for Active; 'I' for Inactive)
REMARK    1  A    between atoms: C_4  and  C_5
REMARK    2  A    between atoms: C_5  and  C_6
REMARK                            x       y       z     vdW  Elec       q    Type
REMARK                         _______ _______ _______ _____ _____    ______ ____
ROOT
ATOM      1  C   UNL     1       0.179  -3.712   0.000  0.00  0.00    +0.081 A 
ATOM      2  N   UNL     1      -0.489  -4.197   0.000  0.00  0.00    -0.227 NA
ATOM      3  C   UNL     1      -0.234  -4.982   0.000  0.00  0.00    +0.199 A 
ATOM      4  N   UNL     1       0.591  -4.982   0.000  0.00  0.00    -0.221 NA
ATOM      5  C   UNL     1       0.846  -4.197   0.000  0.00  0.00    +0.115 A 
ENDROOT
BRANCH   1   6
ATOM      6  C   UNL     1       0.179  -2.888   0.000  0.00  0.00    +0.068 C 
BRANCH   6   8
ATOM      7  N   UNL     1      -0.536  -1.650   0.000  0.00  0.00    -0.131 NA
ATOM      8  C   UNL     1      -0.536  -2.475   0.000  0.00  0.00    +0.116 C 
ENDBRANCH   6   8
ENDBRANCH   1   6
TORSDOF 2
