REMARK  Name = 
REMARK  5 active torsions:
REMARK  status: ('A' for Active; 'I' for Inactive)
REMARK    1  A    between atoms: O_2  and  C_3
REMARK    2  A    between atoms: C_8  and  N_9
REMARK    3  A    between atoms: N_12  and  C_13
REMARK    4  A    between atoms: C_13  and  C_14
REMARK    5  A    between atoms: C_14  and  C_15
REMARK                            x       y       z     vdW  Elec       q    Type
REMARK                         _______ _______ _______ _____ _____    ______ ____
ROOT
ATOM      1  N   UNL     1       2.143  -3.712   0.000  0.00  0.00    -0.186 NA
ATOM      2  C   UNL     1       2.858  -4.125   0.000  0.00  0.00    +0.339 C 
ATOM      3  N   UNL     1       3.572  -3.712   0.000  0.00  0.00    -0.187 NA
ATOM      4  O   UNL     1       2.858  -4.950   0.000  0.00  0.00    -0.249 OA
ENDROOT
BRANCH   1   6
ATOM      5  C   UNL     1       1.429  -4.950   0.000  0.00  0.00    +0.135 C 
ATOM      6  C   UNL     1       1.429  -4.125   0.000  0.00  0.00    +0.124 C 
ATOM      7  C   UNL     1       0.715  -3.712   0.000  0.00  0.00    +0.024 C 
ATOM      8  C   UNL     1       0.000  -4.125   0.000  0.00  0.00    +0.002 C 
ATOM      9  C   UNL     1       0.000  -4.950   0.000  0.00  0.00    +0.003 C 
ATOM     10  C   UNL     1       0.715  -5.362   0.000  0.00  0.00    +0.031 C 
BRANCH   5  12
ATOM     11  C   UNL     1       2.143  -6.188   0.000  0.00  0.00    +0.174 C 
ATOM     12  O   UNL     1       2.143  -5.362   0.000  0.00  0.00    -0.352 OA
ENDBRANCH   5  12
ENDBRANCH   1   6
BRANCH   3  13
ATOM     13  C   UNL     1       4.287  -4.125   0.000  0.00  0.00    +0.121 C 
BRANCH  13  14
ATOM     14  C   UNL     1       5.001  -3.712   0.000  0.00  0.00    +0.050 C 
BRANCH  14  15
ATOM     15  C   UNL     1       5.716  -4.125   0.000  0.00  0.00    -0.021 A 
ATOM     16  C   UNL     1       5.716  -4.950   0.000  0.00  0.00    -0.007 A 
ATOM     17  C   UNL     1       5.001  -5.362   0.000  0.00  0.00    +0.032 C 
ATOM     18  C   UNL     1       6.430  -5.362   0.000  0.00  0.00    +0.094 A 
ATOM     19  N   UNL     1       7.145  -4.950   0.000  0.00  0.00    -0.243 NA
ATOM     20  C   UNL     1       7.145  -4.125   0.000  0.00  0.00    +0.099 A 
ATOM     21  C   UNL     1       6.430  -3.712   0.000  0.00  0.00    +0.016 A 
ENDBRANCH  14  15
ENDBRANCH  13  14
ENDBRANCH   3  13
TORSDOF 5
