REMARK  Name = 
REMARK  6 active torsions:
REMARK  status: ('A' for Active; 'I' for Inactive)
REMARK    1  A    between atoms: C_2  and  N_4
REMARK    2  A    between atoms: C_5  and  C_7
REMARK    3  A    between atoms: C_7  and  N_8
REMARK    4  A    between atoms: C_11  and  C_12
REMARK    5  A    between atoms: N_14  and  C_16
REMARK    6  A    between atoms: C_16  and  C_17
REMARK                            x       y       z     vdW  Elec       q    Type
REMARK                         _______ _______ _______ _____ _____    ______ ____
ROOT
ATOM      1  N   UNL     1       3.572  -2.888   0.000  0.00  0.00    -0.290 N 
ATOM      2  C   UNL     1       3.572  -3.712   0.000  0.00  0.00    +0.261 A 
ATOM      3  O   UNL     1       2.858  -4.125   0.000  0.00  0.00    -0.267 OA
ATOM      4  C   UNL     1       4.287  -4.125   0.000  0.00  0.00    +0.057 A 
ATOM      5  C   UNL     1       5.001  -3.712   0.000  0.00  0.00    -0.012 A 
ATOM      6  C   UNL     1       5.716  -4.125   0.000  0.00  0.00    +0.031 C 
ATOM      7  C   UNL     1       5.001  -2.888   0.000  0.00  0.00    +0.062 A 
ATOM      8  C   UNL     1       4.287  -2.475   0.000  0.00  0.00    +0.045 A 
ATOM      9  C   UNL     1       4.287  -1.650   0.000  0.00  0.00    +0.050 C 
ENDROOT
BRANCH   7  10
ATOM     10  C   UNL     1       5.716  -2.475   0.000  0.00  0.00    +0.250 C 
ATOM     11  N   UNL     1       6.430  -2.888   0.000  0.00  0.00    -0.274 N 
ATOM     12  C   UNL     1       6.430  -3.712   0.000  0.00  0.00    +0.115 C 
ATOM     13  O   UNL     1       5.716  -1.650   0.000  0.00  0.00    -0.270 OA
BRANCH  11  14
ATOM     14  C   UNL     1       7.145  -2.475   0.000  0.00  0.00    +0.094 C 
BRANCH  14  15
ATOM     15  C   UNL     1       7.859  -2.888   0.000  0.00  0.00    +0.020 C 
ATOM     16  C   UNL     1       8.073  -3.684   0.000  0.00  0.00    +0.002 C 
ATOM     17  C   UNL     1       8.870  -3.471   0.000  0.00  0.00    +0.000 C 
ATOM     18  C   UNL     1       8.656  -2.674   0.000  0.00  0.00    +0.002 C 
ENDBRANCH  14  15
ENDBRANCH  11  14
ENDBRANCH   7  10
BRANCH   1  19
ATOM     19  C   UNL     1       2.858  -2.475   0.000  0.00  0.00    +0.196 C 
BRANCH  19  21
ATOM     20  N   UNL     1       1.429  -2.475   0.000  0.00  0.00    -0.206 NA
ATOM     21  C   UNL     1       2.143  -2.888   0.000  0.00  0.00    +0.264 C 
ATOM     22  O   UNL     1       2.143  -3.712   0.000  0.00  0.00    -0.271 OA
BRANCH  20  24
ATOM     23  C   UNL     1       0.000  -2.475   0.000  0.00  0.00    +0.023 C 
ATOM     24  C   UNL     1       0.715  -2.888   0.000  0.00  0.00    +0.095 C 
ATOM     25  C   UNL     1       0.715  -3.712   0.000  0.00  0.00    +0.023 C 
ENDBRANCH  20  24
ENDBRANCH  19  21
ENDBRANCH   1  19
TORSDOF 6
