REMARK  Name = 
REMARK  5 active torsions:
REMARK  status: ('A' for Active; 'I' for Inactive)
REMARK    1  A    between atoms: C_2  and  O_3
REMARK    2  A    between atoms: O_3  and  C_4
REMARK    3  A    between atoms: C_6  and  N_7
REMARK    4  A    between atoms: C_8  and  C_10
REMARK    5  A    between atoms: C_10  and  N_11
REMARK                            x       y       z     vdW  Elec       q    Type
REMARK                         _______ _______ _______ _____ _____    ______ ____
ROOT
ATOM      1  C   UNL     1       0.412  -0.171   0.000  0.00  0.00    +0.118 C 
ATOM      2  C   UNL     1       0.996   0.412   0.000  0.00  0.00    +0.044 C 
ATOM      3  C   UNL     1       1.481  -0.255   0.000  0.00  0.00    +0.004 C 
ATOM      4  C   UNL     1       2.265   0.000   0.000  0.00  0.00    +0.000 C 
ATOM      5  C   UNL     1       2.265   0.825   0.000  0.00  0.00    +0.000 C 
ATOM      6  C   UNL     1       1.481   1.080   0.000  0.00  0.00    +0.004 C 
ATOM      7  C   UNL     1       0.412   0.996   0.000  0.00  0.00    +0.100 C 
ATOM      8  C   UNL     1      -0.171   0.412   0.000  0.00  0.00    +0.051 C 
ENDROOT
BRANCH   7   9
ATOM      9  N   UNL     1       0.412   1.821   0.000  0.00  0.00    -0.205 NA
ATOM     10  C   UNL     1       1.127   2.233   0.000  0.00  0.00    +0.266 C 
ATOM     11  O   UNL     1       1.841   1.821   0.000  0.00  0.00    -0.271 OA
BRANCH  10  12
ATOM     12  C   UNL     1       1.127   3.058   0.000  0.00  0.00    +0.214 C 
BRANCH  12  13
ATOM     13  N   UNL     1       1.841   3.471   0.000  0.00  0.00    -0.240 N 
ATOM     14  N   UNL     1       2.595   3.135   0.000  0.00  0.00    -0.167 NA
ATOM     15  C   UNL     1       3.147   3.748   0.000  0.00  0.00    +0.122 A 
ATOM     16  C   UNL     1       2.735   4.463   0.000  0.00  0.00    +0.043 A 
ATOM     17  C   UNL     1       1.928   4.291   0.000  0.00  0.00    +0.097 A 
ENDBRANCH  12  13
ENDBRANCH  10  12
ENDBRANCH   7   9
BRANCH   1  18
ATOM     18  O   UNL     1       0.412  -0.996   0.000  0.00  0.00    -0.356 OA
BRANCH  18  20
ATOM     19  C   UNL     1       1.127  -2.233   0.000  0.00  0.00    +0.035 C 
ATOM     20  C   UNL     1       1.127  -1.408   0.000  0.00  0.00    +0.142 C 
ENDBRANCH  18  20
ENDBRANCH   1  18
TORSDOF 5
