REMARK  Name = 
REMARK  3 active torsions:
REMARK  status: ('A' for Active; 'I' for Inactive)
REMARK    1  A    between atoms: C_9  and  N_10
REMARK    2  A    between atoms: N_13  and  C_14
REMARK    3  A    between atoms: C_14  and  C_15
REMARK                            x       y       z     vdW  Elec       q    Type
REMARK                         _______ _______ _______ _____ _____    ______ ____
ROOT
ATOM      1  C   UNL     1       0.715  -1.238   0.000  0.00  0.00    +0.033 C 
ATOM      2  C   UNL     1       0.715  -0.412   0.000  0.00  0.00    -0.000 A 
ATOM      3  C   UNL     1       1.429   0.000   0.000  0.00  0.00    +0.088 A 
ATOM      4  C   UNL     1       1.429   0.825   0.000  0.00  0.00    +0.095 A 
ATOM      5  N   UNL     1       0.715   1.238   0.000  0.00  0.00    -0.291 N 
ATOM      6  C   UNL     1       0.715   2.062   0.000  0.00  0.00    +0.134 C 
ATOM      7  C   UNL     1       0.000   0.825   0.000  0.00  0.00    +0.261 A 
ATOM      8  O   UNL     1      -0.715   1.238   0.000  0.00  0.00    -0.267 OA
ATOM      9  C   UNL     1       0.000   0.000   0.000  0.00  0.00    +0.058 A 
ENDROOT
BRANCH   3  10
ATOM     10  N   UNL     1       2.143  -0.412   0.000  0.00  0.00    -0.160 NA
ATOM     11  C   UNL     1       2.858   0.000   0.000  0.00  0.00    +0.344 C 
ATOM     12  N   UNL     1       3.572  -0.412   0.000  0.00  0.00    -0.187 NA
ATOM     13  O   UNL     1       2.858   0.825   0.000  0.00  0.00    -0.249 OA
BRANCH  12  14
ATOM     14  C   UNL     1       4.287   0.000   0.000  0.00  0.00    +0.117 C 
BRANCH  14  15
ATOM     15  C   UNL     1       5.001  -0.412   0.000  0.00  0.00    +0.022 C 
ATOM     16  C   UNL     1       5.414  -1.127   0.000  0.00  0.00    +0.002 C 
ATOM     17  C   UNL     1       5.826  -0.412   0.000  0.00  0.00    +0.002 C 
ENDBRANCH  14  15
ENDBRANCH  12  14
ENDBRANCH   3  10
TORSDOF 3
