REMARK  Name = 
REMARK  4 active torsions:
REMARK  status: ('A' for Active; 'I' for Inactive)
REMARK    1  A    between atoms: C_2  and  C_3
REMARK    2  A    between atoms: C_2  and  N_9
REMARK    3  A    between atoms: C_3  and  N_4
REMARK    4  A    between atoms: C_10  and  C_12
REMARK                            x       y       z     vdW  Elec       q    Type
REMARK                         _______ _______ _______ _____ _____    ______ ____
ROOT
ATOM      1  N   UNL     1       2.816  -2.408   0.000  0.00  0.00    -0.205 NA
ATOM      2  C   UNL     1       3.530  -1.996   0.000  0.00  0.00    +0.243 C 
ATOM      3  O   UNL     1       3.530  -1.171   0.000  0.00  0.00    -0.273 OA
ENDROOT
BRANCH   2   4
ATOM      4  C   UNL     1       4.245  -2.408   0.000  0.00  0.00    +0.107 C 
ATOM      5  C   UNL     1       4.331  -3.229   0.000  0.00  0.00    +0.096 C 
ATOM      6  C   UNL     1       5.138  -3.400   0.000  0.00  0.00    +0.226 C 
ATOM      7  O   UNL     1       5.474  -4.154   0.000  0.00  0.00    -0.275 OA
ATOM      8  N   UNL     1       5.551  -2.686   0.000  0.00  0.00    -0.277 N 
ATOM      9  C   UNL     1       6.371  -2.599   0.000  0.00  0.00    +0.115 C 
ATOM     10  C   UNL     1       4.999  -2.073   0.000  0.00  0.00    +0.103 C 
ENDBRANCH   2   4
BRANCH   1  12
ATOM     11  C   UNL     1       2.102  -1.171   0.000  0.00  0.00    +0.025 C 
ATOM     12  C   UNL     1       2.102  -1.996   0.000  0.00  0.00    +0.118 C 
BRANCH  12  13
ATOM     13  C   UNL     1       1.387  -2.408   0.000  0.00  0.00    +0.129 C 
BRANCH  13  14
ATOM     14  N   UNL     1       0.672  -1.996   0.000  0.00  0.00    -0.306 N 
ATOM     15  C   UNL     1       0.586  -1.175   0.000  0.00  0.00    +0.179 A 
ATOM     16  N   UNL     1      -0.221  -1.004   0.000  0.00  0.00    -0.222 NA
ATOM     17  C   UNL     1      -0.633  -1.718   0.000  0.00  0.00    +0.119 A 
ATOM     18  C   UNL     1      -0.081  -2.331   0.000  0.00  0.00    +0.098 A 
ENDBRANCH  13  14
ENDBRANCH  12  13
ENDBRANCH   1  12
TORSDOF 4
