REMARK  Name = 
REMARK  5 active torsions:
REMARK  status: ('A' for Active; 'I' for Inactive)
REMARK    1  A    between atoms: C_2  and  C_4
REMARK    2  A    between atoms: C_7  and  C_8
REMARK    3  A    between atoms: C_8  and  C_9
REMARK    4  A    between atoms: C_9  and  N_10
REMARK    5  A    between atoms: N_10  and  C_11
REMARK                            x       y       z     vdW  Elec       q    Type
REMARK                         _______ _______ _______ _____ _____    ______ ____
ROOT
ATOM      1  C   UNL     1       1.854  -4.474   0.000  0.00  0.00    +0.107 C 
ENDROOT
BRANCH   1   4
ATOM      2  C   UNL     1       2.751  -2.537   0.000  0.00  0.00    +0.180 A 
ATOM      3  N   UNL     1       2.084  -3.022   0.000  0.00  0.00    -0.195 NA
ATOM      4  C   UNL     1       2.339  -3.806   0.000  0.00  0.00    +0.238 A 
ATOM      5  O   UNL     1       3.164  -3.806   0.000  0.00  0.00    -0.337 OA
ATOM      6  N   UNL     1       3.419  -3.022   0.000  0.00  0.00    -0.061 NA
BRANCH   2   8
ATOM      7  C   UNL     1       3.466  -1.299   0.000  0.00  0.00    +0.008 C 
ATOM      8  C   UNL     1       2.751  -1.712   0.000  0.00  0.00    +0.062 C 
ATOM      9  C   UNL     1       2.037  -1.299   0.000  0.00  0.00    +0.008 C 
ENDBRANCH   2   8
ENDBRANCH   1   4
BRANCH   1  10
ATOM     10  C   UNL     1       1.033  -4.387   0.000  0.00  0.00    +0.098 C 
BRANCH  10  11
ATOM     11  N   UNL     1       0.548  -5.055   0.000  0.00  0.00    -0.218 NA
BRANCH  11  12
ATOM     12  C   UNL     1      -0.272  -4.969   0.000  0.00  0.00    +0.084 C 
ATOM     13  C   UNL     1      -0.608  -4.215   0.000  0.00  0.00    +0.075 C 
ATOM     14  S   UNL     1      -1.428  -4.129   0.000  0.00  0.00    -0.139 S 
ATOM     15  C   UNL     1      -1.913  -4.796   0.000  0.00  0.00    +0.058 C 
ATOM     16  C   UNL     1      -1.577  -5.550   0.000  0.00  0.00    +0.013 C 
ATOM     17  C   UNL     1      -0.757  -5.636   0.000  0.00  0.00    +0.019 C 
ENDBRANCH  11  12
ENDBRANCH  10  11
ENDBRANCH   1  10
TORSDOF 5
