REMARK  Name = 
REMARK  6 active torsions:
REMARK  status: ('A' for Active; 'I' for Inactive)
REMARK    1  A    between atoms: N_1  and  C_7
REMARK    2  A    between atoms: C_5  and  N_8
REMARK    3  A    between atoms: C_11  and  C_24
REMARK    4  A    between atoms: C_11  and  C_25
REMARK    5  A    between atoms: N_12  and  C_19
REMARK    6  A    between atoms: C_19  and  C_20
REMARK                            x       y       z     vdW  Elec       q    Type
REMARK                         _______ _______ _______ _____ _____    ______ ____
ROOT
ATOM      1  N   UNL     1       1.782  -0.255   0.000  0.00  0.00    -0.296 N 
ATOM      2  C   UNL     1       1.294   0.413   0.000  0.00  0.00    +0.180 A 
ATOM      3  N   UNL     1       1.782   1.085   0.000  0.00  0.00    -0.219 NA
ATOM      4  C   UNL     1       2.567   0.826   0.000  0.00  0.00    +0.149 A 
ATOM      5  C   UNL     1       3.280   1.240   0.000  0.00  0.00    +0.154 A 
ATOM      6  N   UNL     1       3.998   0.826   0.000  0.00  0.00    -0.207 NA
ATOM      7  C   UNL     1       3.998   0.000   0.000  0.00  0.00    +0.201 A 
ATOM      8  N   UNL     1       3.280  -0.413   0.000  0.00  0.00    -0.205 NA
ATOM      9  C   UNL     1       2.567   0.000   0.000  0.00  0.00    +0.167 A 
ENDROOT
BRANCH   5  10
ATOM     10  N   UNL     1       3.280   2.066   0.000  0.00  0.00    -0.292 N 
ATOM     11  C   UNL     1       3.998   2.479   0.000  0.00  0.00    +0.092 C 
ATOM     12  C   UNL     1       3.998   3.305   0.000  0.00  0.00    +0.023 C 
ATOM     13  C   UNL     1       3.280   3.719   0.000  0.00  0.00    +0.023 C 
ATOM     14  C   UNL     1       2.567   3.305   0.000  0.00  0.00    +0.023 C 
ATOM     15  C   UNL     1       2.567   2.479   0.000  0.00  0.00    +0.092 C 
BRANCH  13  16
ATOM     16  C   UNL     1       3.280   4.541   0.000  0.00  0.00    +0.095 C 
ATOM     17  C   UNL     1       3.998   4.958   0.000  0.00  0.00    +0.023 C 
BRANCH  16  18
ATOM     18  N   UNL     1       2.567   4.958   0.000  0.00  0.00    -0.207 NA
ATOM     19  C   UNL     1       2.567   5.785   0.000  0.00  0.00    +0.242 C 
ATOM     20  C   UNL     1       3.280   6.198   0.000  0.00  0.00    +0.096 C 
ATOM     21  O   UNL     1       1.853   6.198   0.000  0.00  0.00    -0.273 OA
ENDBRANCH  16  18
ENDBRANCH  13  16
ENDBRANCH   5  10
BRANCH   1  22
ATOM     22  C   UNL     1       1.523  -1.039   0.000  0.00  0.00    +0.089 C 
ATOM     23  C   UNL     1       0.789  -1.415   0.000  0.00  0.00    +0.028 C 
ATOM     24  C   UNL     1       1.164  -2.149   0.000  0.00  0.00    +0.065 C 
ATOM     25  C   UNL     1       1.899  -1.774   0.000  0.00  0.00    +0.028 C 
BRANCH  24  26
ATOM     26  C   UNL     1       1.540  -2.888   0.000  0.00  0.00    +0.185 C 
ATOM     27  O   UNL     1       2.366  -2.930   0.000  0.00  0.00    -0.220 OA
ENDBRANCH  24  26
BRANCH  24  28
ATOM     28  C   UNL     1       0.430  -2.525   0.000  0.00  0.00    +0.185 C 
ATOM     29  O   UNL     1      -0.267  -2.074   0.000  0.00  0.00    -0.220 OA
ENDBRANCH  24  28
ENDBRANCH   1  22
TORSDOF 6
