REMARK  Name = 
REMARK  5 active torsions:
REMARK  status: ('A' for Active; 'I' for Inactive)
REMARK    1  A    between atoms: O_2  and  C_3
REMARK    2  A    between atoms: C_7  and  N_8
REMARK    3  A    between atoms: N_11  and  C_12
REMARK    4  A    between atoms: C_12  and  C_13
REMARK    5  A    between atoms: C_13  and  C_18
REMARK                            x       y       z     vdW  Elec       q    Type
REMARK                         _______ _______ _______ _____ _____    ______ ____
ROOT
ATOM      1  N   UNL     1       2.143   1.238   0.000  0.00  0.00    -0.142 NA
ATOM      2  C   UNL     1       2.858   0.825   0.000  0.00  0.00    +0.345 C 
ATOM      3  N   UNL     1       3.572   1.238   0.000  0.00  0.00    -0.186 NA
ATOM      4  O   UNL     1       2.858   0.000   0.000  0.00  0.00    -0.249 OA
ENDROOT
BRANCH   1   7
ATOM      5  C   UNL     1       0.715  -0.412   0.000  0.00  0.00    +0.321 A 
ATOM      6  N   UNL     1       1.429   0.000   0.000  0.00  0.00    -0.177 NA
ATOM      7  C   UNL     1       1.429   0.825   0.000  0.00  0.00    +0.162 A 
ATOM      8  C   UNL     1       0.715   1.238   0.000  0.00  0.00    +0.057 A 
ATOM      9  C   UNL     1       0.000   0.825   0.000  0.00  0.00    +0.107 A 
ATOM     10  N   UNL     1       0.000   0.000   0.000  0.00  0.00    -0.193 NA
BRANCH   5  12
ATOM     11  C   UNL     1       0.000  -1.650   0.000  0.00  0.00    +0.256 C 
ATOM     12  O   UNL     1       0.715  -1.238   0.000  0.00  0.00    -0.443 OA
ENDBRANCH   5  12
ENDBRANCH   1   7
BRANCH   3  13
ATOM     13  C   UNL     1       4.287   0.825   0.000  0.00  0.00    +0.125 C 
BRANCH  13  14
ATOM     14  C   UNL     1       5.001   1.238   0.000  0.00  0.00    +0.089 C 
ATOM     15  C   UNL     1       5.337   0.484   0.000  0.00  0.00    +0.010 C 
ATOM     16  C   UNL     1       6.157   0.570   0.000  0.00  0.00    +0.001 C 
ATOM     17  C   UNL     1       6.329   1.377   0.000  0.00  0.00    +0.001 C 
ATOM     18  C   UNL     1       5.614   1.790   0.000  0.00  0.00    +0.010 C 
BRANCH  14  19
ATOM     19  C   UNL     1       4.516   1.905   0.000  0.00  0.00    +0.226 C 
ATOM     20  N   UNL     1       4.852   2.659   0.000  0.00  0.00    -0.276 N 
ATOM     21  C   UNL     1       5.672   2.745   0.000  0.00  0.00    +0.115 C 
ATOM     22  C   UNL     1       4.367   3.326   0.000  0.00  0.00    +0.115 C 
ATOM     23  O   UNL     1       3.696   1.819   0.000  0.00  0.00    -0.275 OA
ENDBRANCH  14  19
ENDBRANCH  13  14
ENDBRANCH   3  13
TORSDOF 5
