REMARK  Name = 
REMARK  5 active torsions:
REMARK  status: ('A' for Active; 'I' for Inactive)
REMARK    1  A    between atoms: N_2  and  C_4
REMARK    2  A    between atoms: C_4  and  C_5
REMARK    3  A    between atoms: C_4  and  C_16
REMARK    4  A    between atoms: C_5  and  N_6
REMARK    5  A    between atoms: N_9  and  C_10
REMARK                            x       y       z     vdW  Elec       q    Type
REMARK                         _______ _______ _______ _____ _____    ______ ____
ROOT
ATOM      1  C   UNL     1       2.858  -4.125   0.000  0.00  0.00    +0.137 C 
ENDROOT
BRANCH   1   2
ATOM      2  N   UNL     1       3.572  -3.712   0.000  0.00  0.00    -0.185 NA
ATOM      3  C   UNL     1       4.287  -4.125   0.000  0.00  0.00    +0.340 C 
ATOM      4  N   UNL     1       5.001  -3.712   0.000  0.00  0.00    -0.185 NA
ATOM      5  O   UNL     1       4.287  -4.950   0.000  0.00  0.00    -0.249 OA
BRANCH   4   6
ATOM      6  C   UNL     1       5.716  -4.125   0.000  0.00  0.00    +0.119 C 
ATOM      7  C   UNL     1       5.716  -4.950   0.000  0.00  0.00    -0.009 C 
ATOM      8  C   UNL     1       6.430  -5.362   0.000  0.00  0.00    -0.029 C 
ATOM      9  C   UNL     1       7.145  -4.950   0.000  0.00  0.00    +0.026 C 
ATOM     10  C   UNL     1       7.145  -4.125   0.000  0.00  0.00    +0.007 C 
ATOM     11  C   UNL     1       6.430  -3.712   0.000  0.00  0.00    +0.027 C 
ENDBRANCH   4   6
ENDBRANCH   1   2
BRANCH   1  12
ATOM     12  C   UNL     1       2.143  -3.712   0.000  0.00  0.00    +0.105 C 
BRANCH  12  13
ATOM     13  C   UNL     1       1.429  -4.125   0.000  0.00  0.00    +0.034 A 
ATOM     14  C   UNL     1       0.675  -3.789   0.000  0.00  0.00    +0.094 A 
ATOM     15  N   UNL     1       0.123  -4.402   0.000  0.00  0.00    -0.248 N 
ATOM     16  C   UNL     1      -0.697  -4.316   0.000  0.00  0.00    +0.154 C 
ATOM     17  N   UNL     1       0.536  -5.117   0.000  0.00  0.00    -0.168 NA
ATOM     18  C   UNL     1       1.343  -4.946   0.000  0.00  0.00    +0.119 A 
ENDBRANCH  12  13
BRANCH  12  20
ATOM     19  C   UNL     1       1.429  -2.475   0.000  0.00  0.00    +0.090 C 
ATOM     20  N   UNL     1       2.143  -2.888   0.000  0.00  0.00    -0.266 NA
ATOM     21  C   UNL     1       2.858  -2.475   0.000  0.00  0.00    +0.090 C 
ENDBRANCH  12  20
ENDBRANCH   1  12
TORSDOF 5
