REMARK  Name = 
REMARK  6 active torsions:
REMARK  status: ('A' for Active; 'I' for Inactive)
REMARK    1  A    between atoms: C_2  and  C_3
REMARK    2  A    between atoms: C_2  and  N_17
REMARK    3  A    between atoms: N_5  and  C_6
REMARK    4  A    between atoms: C_6  and  C_7
REMARK    5  A    between atoms: C_7  and  C_8
REMARK    6  A    between atoms: C_8  and  N_9
REMARK                            x       y       z     vdW  Elec       q    Type
REMARK                         _______ _______ _______ _____ _____    ______ ____
ROOT
ATOM      1  C   UNL     1       2.733  -4.050   0.000  0.00  0.00    +0.117 C 
ENDROOT
BRANCH   1   3
ATOM      2  C   UNL     1       1.304  -4.050   0.000  0.00  0.00    +0.264 C 
ATOM      3  N   UNL     1       2.018  -4.462   0.000  0.00  0.00    -0.204 NA
ATOM      4  O   UNL     1       1.304  -3.225   0.000  0.00  0.00    -0.271 OA
BRANCH   2   6
ATOM      5  C   UNL     1       0.589  -5.287   0.000  0.00  0.00    +0.036 C 
ATOM      6  C   UNL     1       0.589  -4.462   0.000  0.00  0.00    +0.184 C 
BRANCH   6   7
ATOM      7  N   UNL     1      -0.125  -4.050   0.000  0.00  0.00    -0.223 N 
ATOM      8  N   UNL     1      -0.211  -3.229   0.000  0.00  0.00    -0.145 NA
ATOM      9  C   UNL     1      -1.018  -3.058   0.000  0.00  0.00    +0.221 A 
ATOM     10  N   UNL     1      -1.431  -3.772   0.000  0.00  0.00    -0.201 NA
ATOM     11  C   UNL     1      -0.879  -4.385   0.000  0.00  0.00    +0.198 A 
ENDBRANCH   6   7
ENDBRANCH   2   6
ENDBRANCH   1   3
BRANCH   1  12
ATOM     12  C   UNL     1       3.447  -4.462   0.000  0.00  0.00    +0.045 C 
BRANCH  12  13
ATOM     13  C   UNL     1       4.162  -4.050   0.000  0.00  0.00    +0.095 C 
BRANCH  13  14
ATOM     14  N   UNL     1       4.876  -4.462   0.000  0.00  0.00    -0.279 N 
ATOM     15  C   UNL     1       4.814  -5.285   0.000  0.00  0.00    +0.226 C 
ATOM     16  O   UNL     1       4.046  -5.586   0.000  0.00  0.00    -0.275 OA
ATOM     17  C   UNL     1       5.419  -5.846   0.000  0.00  0.00    +0.085 C 
ATOM     18  C   UNL     1       6.235  -5.723   0.000  0.00  0.00    +0.010 C 
ATOM     19  C   UNL     1       6.648  -5.008   0.000  0.00  0.00    +0.002 C 
ATOM     20  C   UNL     1       6.346  -4.240   0.000  0.00  0.00    +0.022 C 
ATOM     21  C   UNL     1       5.558  -3.997   0.000  0.00  0.00    +0.093 C 
ENDBRANCH  13  14
ENDBRANCH  12  13
ENDBRANCH   1  12
TORSDOF 6
