REMARK  Name = 
REMARK  5 active torsions:
REMARK  status: ('A' for Active; 'I' for Inactive)
REMARK    1  A    between atoms: C_2  and  C_3
REMARK    2  A    between atoms: C_5  and  C_6
REMARK    3  A    between atoms: C_6  and  C_7
REMARK    4  A    between atoms: C_7  and  N_8
REMARK    5  A    between atoms: N_11  and  C_12
REMARK                            x       y       z     vdW  Elec       q    Type
REMARK                         _______ _______ _______ _____ _____    ______ ____
ROOT
ATOM      1  N   UNL     1       4.592  -2.952   0.000  0.00  0.00    -0.187 NA
ATOM      2  C   UNL     1       5.307  -3.364   0.000  0.00  0.00    +0.339 C 
ATOM      3  N   UNL     1       6.021  -2.952   0.000  0.00  0.00    -0.189 NA
ATOM      4  O   UNL     1       5.307  -4.189   0.000  0.00  0.00    -0.249 OA
ENDROOT
BRANCH   3   5
ATOM      5  C   UNL     1       6.736  -3.364   0.000  0.00  0.00    +0.097 C 
ATOM      6  C   UNL     1       6.822  -4.185   0.000  0.00  0.00    +0.020 C 
ATOM      7  C   UNL     1       6.209  -4.737   0.000  0.00  0.00    +0.002 C 
ATOM      8  C   UNL     1       7.629  -4.356   0.000  0.00  0.00    +0.002 C 
ATOM      9  C   UNL     1       8.041  -3.642   0.000  0.00  0.00    +0.002 C 
ATOM     10  C   UNL     1       7.489  -3.029   0.000  0.00  0.00    +0.022 C 
ENDBRANCH   3   5
BRANCH   1  11
ATOM     11  C   UNL     1       3.878  -3.364   0.000  0.00  0.00    +0.123 C 
BRANCH  11  12
ATOM     12  C   UNL     1       3.163  -2.952   0.000  0.00  0.00    +0.070 C 
BRANCH  12  16
ATOM     13  C   UNL     1       1.143  -3.642   0.000  0.00  0.00    +0.088 A 
ATOM     14  S   UNL     1       1.556  -4.356   0.000  0.00  0.00    -0.071 S 
ATOM     15  C   UNL     1       2.363  -4.185   0.000  0.00  0.00    +0.051 A 
ATOM     16  C   UNL     1       2.449  -3.364   0.000  0.00  0.00    +0.067 A 
ATOM     17  N   UNL     1       1.695  -3.029   0.000  0.00  0.00    -0.247 NA
BRANCH  13  19
ATOM     18  C   UNL     1      -0.162  -4.223   0.000  0.00  0.00    +0.007 C 
ATOM     19  C   UNL     1       0.323  -3.556   0.000  0.00  0.00    +0.053 C 
ENDBRANCH  13  19
ENDBRANCH  12  16
ENDBRANCH  11  12
ENDBRANCH   1  11
TORSDOF 5
