REMARK  Name = 
REMARK  6 active torsions:
REMARK  status: ('A' for Active; 'I' for Inactive)
REMARK    1  A    between atoms: N_6  and  C_7
REMARK    2  A    between atoms: C_7  and  C_8
REMARK    3  A    between atoms: C_8  and  C_9
REMARK    4  A    between atoms: C_9  and  N_10
REMARK    5  A    between atoms: C_11  and  C_13
REMARK    6  A    between atoms: C_13  and  N_14
REMARK                            x       y       z     vdW  Elec       q    Type
REMARK                         _______ _______ _______ _____ _____    ______ ____
ROOT
ATOM      1  C   UNL     1       2.858   1.650   0.000  0.00  0.00    +0.117 C 
ENDROOT
BRANCH   1   2
ATOM      2  N   UNL     1       3.572   2.062   0.000  0.00  0.00    -0.204 NA
ATOM      3  C   UNL     1       4.287   1.650   0.000  0.00  0.00    +0.266 C 
ATOM      4  O   UNL     1       4.287   0.825   0.000  0.00  0.00    -0.271 OA
BRANCH   3   5
ATOM      5  C   UNL     1       5.001   2.062   0.000  0.00  0.00    +0.217 C 
BRANCH   5   6
ATOM      6  N   UNL     1       5.716   1.650   0.000  0.00  0.00    -0.201 N 
ATOM      7  N   UNL     1       5.802   0.830   0.000  0.00  0.00    -0.042 NA
ATOM      8  N   UNL     1       6.609   0.658   0.000  0.00  0.00    -0.023 NA
ATOM      9  N   UNL     1       7.021   1.373   0.000  0.00  0.00    -0.105 NA
ATOM     10  C   UNL     1       6.469   1.986   0.000  0.00  0.00    +0.222 A 
ENDBRANCH   5   6
ENDBRANCH   3   5
ENDBRANCH   1   2
BRANCH   1  11
ATOM     11  C   UNL     1       2.143   2.062   0.000  0.00  0.00    +0.041 C 
BRANCH  11  12
ATOM     12  C   UNL     1       1.429   1.650   0.000  0.00  0.00    +0.074 C 
BRANCH  12  16
ATOM     13  C   UNL     1      -1.429   1.650   0.000  0.00  0.00    +0.001 C 
ATOM     14  C   UNL     1      -0.715   2.062   0.000  0.00  0.00    +0.016 C 
ATOM     15  C   UNL     1       0.000   1.650   0.000  0.00  0.00    +0.072 C 
ATOM     16  N   UNL     1       0.715   2.062   0.000  0.00  0.00    -0.273 NA
ATOM     17  C   UNL     1       0.715   2.888   0.000  0.00  0.00    +0.072 C 
ATOM     18  C   UNL     1       0.000   3.300   0.000  0.00  0.00    +0.017 C 
ATOM     19  C   UNL     1      -0.715   2.888   0.000  0.00  0.00    +0.003 C 
ENDBRANCH  12  16
ENDBRANCH  11  12
ENDBRANCH   1  11
TORSDOF 6
