REMARK  Name = 
REMARK  8 active torsions:
REMARK  status: ('A' for Active; 'I' for Inactive)
REMARK    1  A    between atoms: C_2  and  N_3
REMARK    2  A    between atoms: C_2  and  C_12
REMARK    3  A    between atoms: N_3  and  C_4
REMARK    4  A    between atoms: C_4  and  C_5
REMARK    5  A    between atoms: C_5  and  C_6
REMARK    6  A    between atoms: C_6  and  N_7
REMARK    7  A    between atoms: N_7  and  S_8
REMARK    8  A    between atoms: C_12  and  N_14
REMARK                            x       y       z     vdW  Elec       q    Type
REMARK                         _______ _______ _______ _____ _____    ______ ____
ROOT
ATOM      1  C   UNL     1       5.307  -4.189   0.000  0.00  0.00    +0.021 C 
ATOM      2  C   UNL     1       5.307  -3.364   0.000  0.00  0.00    +0.095 C 
ENDROOT
BRANCH   2   3
ATOM      3  C   UNL     1       6.021  -2.952   0.000  0.00  0.00    +0.121 C 
ATOM      4  C   UNL     1       6.021  -2.127   0.000  0.00  0.00    +0.028 C 
BRANCH   3   5
ATOM      5  N   UNL     1       6.736  -3.364   0.000  0.00  0.00    -0.250 N 
ATOM      6  N   UNL     1       6.822  -4.185   0.000  0.00  0.00    -0.168 NA
ATOM      7  C   UNL     1       7.629  -4.356   0.000  0.00  0.00    +0.122 A 
ATOM      8  C   UNL     1       8.041  -3.642   0.000  0.00  0.00    +0.043 A 
ATOM      9  C   UNL     1       7.489  -3.029   0.000  0.00  0.00    +0.097 A 
ENDBRANCH   3   5
ENDBRANCH   2   3
BRANCH   2  10
ATOM     10  N   UNL     1       4.592  -2.952   0.000  0.00  0.00    -0.217 NA
BRANCH  10  11
ATOM     11  C   UNL     1       3.878  -3.364   0.000  0.00  0.00    +0.090 C 
BRANCH  11  12
ATOM     12  C   UNL     1       3.163  -2.952   0.000  0.00  0.00    +0.040 C 
BRANCH  12  13
ATOM     13  C   UNL     1       2.449  -3.364   0.000  0.00  0.00    +0.117 C 
BRANCH  13  14
ATOM     14  N   UNL     1       1.734  -2.952   0.000  0.00  0.00    -0.082 NA
BRANCH  14  15
ATOM     15  S   UNL     1       1.020  -3.364   0.000  0.00  0.00    +0.059 S 
ATOM     16  C   UNL     1       0.608  -2.650   0.000  0.00  0.00    +0.197 C 
ATOM     17  O   UNL     1       1.433  -4.079   0.000  0.00  0.00    -0.156 OA
ATOM     18  O   UNL     1       0.305  -3.777   0.000  0.00  0.00    -0.156 OA
ENDBRANCH  14  15
ENDBRANCH  13  14
ENDBRANCH  12  13
ENDBRANCH  11  12
ENDBRANCH  10  11
ENDBRANCH   2  10
TORSDOF 8
