REMARK  Name = 
REMARK  6 active torsions:
REMARK  status: ('A' for Active; 'I' for Inactive)
REMARK    1  A    between atoms: N_1  and  C_10
REMARK    2  A    between atoms: N_2  and  C_9
REMARK    3  A    between atoms: S_4  and  N_8
REMARK    4  A    between atoms: S_4  and  C_12
REMARK    5  A    between atoms: C_10  and  C_11
REMARK    6  A    between atoms: N_17  and  C_26
REMARK                            x       y       z     vdW  Elec       q    Type
REMARK                         _______ _______ _______ _____ _____    ______ ____
ROOT
ATOM      1  C   UNL     1       1.425  -4.950   0.000  0.00  0.00    +0.269 C 
ATOM      2  O   UNL     1       2.142  -4.537   0.000  0.00  0.00    -0.271 OA
ATOM      3  N   UNL     1       0.713  -4.537   0.000  0.00  0.00    -0.178 NA
ENDROOT
BRANCH   3   4
ATOM      4  C   UNL     1       0.713  -3.712   0.000  0.00  0.00    +0.074 A 
ATOM      5  C   UNL     1       0.000  -3.300   0.000  0.00  0.00    +0.018 A 
ATOM      6  C   UNL     1       0.000  -2.475   0.000  0.00  0.00    +0.021 A 
ATOM      7  C   UNL     1       0.713  -2.062   0.000  0.00  0.00    +0.122 A 
ATOM      8  C   UNL     1       1.425  -2.475   0.000  0.00  0.00    +0.021 A 
ATOM      9  C   UNL     1       1.425  -3.300   0.000  0.00  0.00    +0.018 A 
BRANCH   7  10
ATOM     10  S   UNL     1       0.713  -1.238   0.000  0.00  0.00    +0.063 S 
ATOM     11  O   UNL     1      -0.113  -1.238   0.000  0.00  0.00    -0.153 OA
ATOM     12  O   UNL     1       1.538  -1.238   0.000  0.00  0.00    -0.153 OA
BRANCH  10  13
ATOM     13  N   UNL     1       0.713  -0.412   0.000  0.00  0.00    -0.150 NA
ATOM     14  C   UNL     1       1.425   0.000   0.000  0.00  0.00    +0.128 C 
ATOM     15  C   UNL     1       1.425   0.825   0.000  0.00  0.00    +0.161 C 
ATOM     16  O   UNL     1       0.713   1.238   0.000  0.00  0.00    -0.351 OA
ATOM     17  C   UNL     1       0.000   0.825   0.000  0.00  0.00    +0.161 C 
ATOM     18  C   UNL     1       0.000   0.000   0.000  0.00  0.00    +0.128 C 
ENDBRANCH  10  13
ENDBRANCH   7  10
ENDBRANCH   3   4
BRANCH   1  19
ATOM     19  C   UNL     1       1.425  -5.775   0.000  0.00  0.00    +0.201 C 
BRANCH  19  20
ATOM     20  N   UNL     1       2.142  -6.188   0.000  0.00  0.00    -0.238 N 
ATOM     21  C   UNL     1       2.854  -5.775   0.000  0.00  0.00    +0.294 A 
ATOM     22  O   UNL     1       2.854  -4.950   0.000  0.00  0.00    -0.264 OA
ATOM     23  C   UNL     1       3.571  -6.188   0.000  0.00  0.00    +0.213 A 
ATOM     24  F   UNL     1       4.283  -5.775   0.000  0.00  0.00    -0.198 F 
ATOM     25  C   UNL     1       3.571  -7.013   0.000  0.00  0.00    +0.116 A 
ATOM     26  N   UNL     1       2.854  -7.425   0.000  0.00  0.00    -0.255 N 
ATOM     27  C   UNL     1       2.142  -7.013   0.000  0.00  0.00    +0.336 A 
ATOM     28  O   UNL     1       1.425  -7.425   0.000  0.00  0.00    -0.246 OA
BRANCH  26  29
ATOM     29  C   UNL     1       2.854  -8.250   0.000  0.00  0.00    +0.208 C 
ATOM     30  C   UNL     1       3.525  -8.733   0.000  0.00  0.00    +0.057 C 
ATOM     31  C   UNL     1       3.267  -9.517   0.000  0.00  0.00    +0.037 C 
ATOM     32  C   UNL     1       2.442  -9.517   0.000  0.00  0.00    +0.144 C 
ATOM     33  O   UNL     1       2.188  -8.733   0.000  0.00  0.00    -0.335 OA
ENDBRANCH  26  29
ENDBRANCH  19  20
ENDBRANCH   1  19
TORSDOF 6
