REMARK  Name = 
REMARK  4 active torsions:
REMARK  status: ('A' for Active; 'I' for Inactive)
REMARK    1  A    between atoms: C_2  and  C_5
REMARK    2  A    between atoms: N_13  and  C_14
REMARK    3  A    between atoms: C_14  and  C_15
REMARK    4  A    between atoms: C_15  and  N_16
REMARK                            x       y       z     vdW  Elec       q    Type
REMARK                         _______ _______ _______ _____ _____    ______ ____
ROOT
ATOM      1  C   UNL     1       0.715  -5.362   0.000  0.00  0.00    +0.076 A 
ATOM      2  C   UNL     1       1.429  -4.950   0.000  0.00  0.00    +0.040 A 
ATOM      3  C   UNL     1       1.429  -4.125   0.000  0.00  0.00    +0.156 A 
ATOM      4  N   UNL     1       2.143  -3.712   0.000  0.00  0.00    -0.142 NA
ATOM      5  C   UNL     1       2.858  -4.125   0.000  0.00  0.00    +0.345 C 
ATOM      6  N   UNL     1       3.572  -3.712   0.000  0.00  0.00    -0.185 NA
ATOM      7  O   UNL     1       2.858  -4.950   0.000  0.00  0.00    -0.249 OA
ATOM      8  N   UNL     1       0.715  -3.712   0.000  0.00  0.00    -0.227 NA
ATOM      9  C   UNL     1       0.000  -4.125   0.000  0.00  0.00    +0.100 A 
ATOM     10  C   UNL     1       0.000  -4.950   0.000  0.00  0.00    +0.025 A 
ENDROOT
BRANCH   1  12
ATOM     11  F   UNL     1       0.715  -7.013   0.000  0.00  0.00    -0.166 F 
ATOM     12  C   UNL     1       0.715  -6.188   0.000  0.00  0.00    +0.419 C 
ATOM     13  F   UNL     1      -0.111  -6.188   0.000  0.00  0.00    -0.166 F 
ATOM     14  F   UNL     1       1.540  -6.188   0.000  0.00  0.00    -0.166 F 
ENDBRANCH   1  12
BRANCH   6  15
ATOM     15  C   UNL     1       4.287  -4.125   0.000  0.00  0.00    +0.134 C 
BRANCH  15  16
ATOM     16  C   UNL     1       5.001  -3.712   0.000  0.00  0.00    +0.096 C 
BRANCH  16  17
ATOM     17  N   UNL     1       5.716  -4.125   0.000  0.00  0.00    -0.267 NA
ATOM     18  C   UNL     1       5.716  -4.950   0.000  0.00  0.00    +0.105 C 
ATOM     19  C   UNL     1       6.430  -5.362   0.000  0.00  0.00    +0.159 C 
ATOM     20  O   UNL     1       7.145  -4.950   0.000  0.00  0.00    -0.351 OA
ATOM     21  C   UNL     1       7.145  -4.125   0.000  0.00  0.00    +0.159 C 
ATOM     22  C   UNL     1       6.430  -3.712   0.000  0.00  0.00    +0.105 C 
ENDBRANCH  16  17
ENDBRANCH  15  16
ENDBRANCH   6  15
TORSDOF 4
