REMARK  Name = 
REMARK  4 active torsions:
REMARK  status: ('A' for Active; 'I' for Inactive)
REMARK    1  A    between atoms: C_4  and  C_5
REMARK    2  A    between atoms: C_5  and  C_6
REMARK    3  A    between atoms: C_6  and  N_7
REMARK    4  A    between atoms: N_10  and  C_11
REMARK                            x       y       z     vdW  Elec       q    Type
REMARK                         _______ _______ _______ _____ _____    ______ ____
ROOT
ATOM      1  N   UNL     1       6.996  -1.264   0.000  0.00  0.00    -0.187 NA
ATOM      2  C   UNL     1       7.710  -0.851   0.000  0.00  0.00    +0.339 C 
ATOM      3  N   UNL     1       8.425  -1.264   0.000  0.00  0.00    -0.188 NA
ATOM      4  O   UNL     1       7.710  -0.026   0.000  0.00  0.00    -0.249 OA
ENDROOT
BRANCH   3   5
ATOM      5  C   UNL     1       9.139  -0.851   0.000  0.00  0.00    +0.113 C 
ATOM      6  C   UNL     1       9.893  -1.187   0.000  0.00  0.00    +0.078 C 
ATOM      7  N   UNL     1      10.445  -0.574   0.000  0.00  0.00    -0.272 NA
ATOM      8  C   UNL     1      11.252  -0.745   0.000  0.00  0.00    +0.072 C 
ATOM      9  C   UNL     1      11.507  -1.530   0.000  0.00  0.00    +0.017 C 
ATOM     10  C   UNL     1      10.955  -2.143   0.000  0.00  0.00    +0.003 C 
ATOM     11  C   UNL     1      10.033   0.141   0.000  0.00  0.00    +0.074 C 
ATOM     12  C   UNL     1      10.148  -1.971   0.000  0.00  0.00    +0.018 C 
ATOM     13  C   UNL     1       9.226  -0.031   0.000  0.00  0.00    +0.040 C 
ENDBRANCH   3   5
BRANCH   1  14
ATOM     14  C   UNL     1       6.282  -0.851   0.000  0.00  0.00    +0.122 C 
BRANCH  14  15
ATOM     15  C   UNL     1       5.567  -1.264   0.000  0.00  0.00    +0.053 C 
BRANCH  15  20
ATOM     16  C   UNL     1       3.624   0.894   0.000  0.00  0.00    +0.154 C 
ATOM     17  N   UNL     1       3.959   0.141   0.000  0.00  0.00    -0.248 N 
ATOM     18  N   UNL     1       3.547  -0.574   0.000  0.00  0.00    -0.168 NA
ATOM     19  C   UNL     1       4.099  -1.187   0.000  0.00  0.00    +0.117 A 
ATOM     20  C   UNL     1       4.853  -0.851   0.000  0.00  0.00    +0.019 A 
ATOM     21  C   UNL     1       4.766  -0.031   0.000  0.00  0.00    +0.092 A 
ENDBRANCH  15  20
ENDBRANCH  14  15
ENDBRANCH   1  14
TORSDOF 4
