REMARK  Name = 
REMARK  5 active torsions:
REMARK  status: ('A' for Active; 'I' for Inactive)
REMARK    1  A    between atoms: C_2  and  S_5
REMARK    2  A    between atoms: S_5  and  C_6
REMARK    3  A    between atoms: C_6  and  C_7
REMARK    4  A    between atoms: N_9  and  C_10
REMARK    5  A    between atoms: C_10  and  C_11
REMARK                            x       y       z     vdW  Elec       q    Type
REMARK                         _______ _______ _______ _____ _____    ______ ____
ROOT
ATOM      1  C   UNL     1       0.715  -1.238   0.000  0.00  0.00    +0.004 A 
ATOM      2  C   UNL     1       0.000  -1.650   0.000  0.00  0.00    +0.032 A 
ATOM      3  C   UNL     1       0.000  -2.475   0.000  0.00  0.00    +0.132 A 
ATOM      4  N   UNL     1      -0.715  -2.888   0.000  0.00  0.00    -0.288 N 
ATOM      5  C   UNL     1      -1.429  -2.475   0.000  0.00  0.00    +0.124 C 
ATOM      6  C   UNL     1      -2.143  -2.888   0.000  0.00  0.00    +0.164 C 
ATOM      7  O   UNL     1      -2.143  -3.712   0.000  0.00  0.00    -0.350 OA
ATOM      8  C   UNL     1      -1.429  -4.125   0.000  0.00  0.00    +0.164 C 
ATOM      9  C   UNL     1      -0.715  -3.712   0.000  0.00  0.00    +0.124 C 
ATOM     10  N   UNL     1       0.715  -2.888   0.000  0.00  0.00    -0.229 NA
ATOM     11  C   UNL     1       1.429  -2.475   0.000  0.00  0.00    +0.100 A 
ATOM     12  C   UNL     1       1.429  -1.650   0.000  0.00  0.00    +0.018 A 
ENDROOT
BRANCH   1  13
ATOM     13  C   UNL     1       0.715  -0.412   0.000  0.00  0.00    +0.142 C 
BRANCH  13  15
ATOM     14  C   UNL     1       1.429   0.825   0.000  0.00  0.00    +0.253 C 
ATOM     15  N   UNL     1       1.429   0.000   0.000  0.00  0.00    -0.200 NA
ATOM     16  O   UNL     1       0.715   1.238   0.000  0.00  0.00    -0.272 OA
BRANCH  14  17
ATOM     17  C   UNL     1       2.143   1.238   0.000  0.00  0.00    +0.144 C 
BRANCH  17  18
ATOM     18  S   UNL     1       2.143   2.062   0.000  0.00  0.00    -0.132 S 
BRANCH  18  20
ATOM     19  C   UNL     1       3.572   2.888   0.000  0.00  0.00    +0.011 C 
ATOM     20  C   UNL     1       2.858   2.475   0.000  0.00  0.00    +0.040 C 
ATOM     21  C   UNL     1       3.270   1.760   0.000  0.00  0.00    +0.011 C 
ATOM     22  C   UNL     1       2.445   3.189   0.000  0.00  0.00    +0.011 C 
ENDBRANCH  18  20
ENDBRANCH  17  18
ENDBRANCH  14  17
ENDBRANCH  13  15
ENDBRANCH   1  13
TORSDOF 5
