REMARK  Name = 
REMARK  3 active torsions:
REMARK  status: ('A' for Active; 'I' for Inactive)
REMARK    1  A    between atoms: O_2  and  C_3
REMARK    2  A    between atoms: C_3  and  C_4
REMARK    3  A    between atoms: N_6  and  C_7
REMARK                            x       y       z     vdW  Elec       q    Type
REMARK                         _______ _______ _______ _____ _____    ______ ____
ROOT
ATOM      1  C   UNL     1       3.572  -2.888   0.000  0.00  0.00    +0.093 A 
ATOM      2  C   UNL     1       3.572  -3.712   0.000  0.00  0.00    +0.117 A 
ATOM      3  N   UNL     1       4.287  -4.125   0.000  0.00  0.00    -0.228 NA
ATOM      4  C   UNL     1       5.001  -3.712   0.000  0.00  0.00    +0.132 A 
ATOM      5  N   UNL     1       5.716  -4.125   0.000  0.00  0.00    -0.293 N 
ATOM      6  C   UNL     1       5.802  -4.946   0.000  0.00  0.00    +0.092 C 
ATOM      7  C   UNL     1       6.609  -5.117   0.000  0.00  0.00    +0.023 C 
ATOM      8  C   UNL     1       7.021  -4.402   0.000  0.00  0.00    +0.023 C 
ATOM      9  C   UNL     1       6.469  -3.789   0.000  0.00  0.00    +0.092 C 
ATOM     10  C   UNL     1       5.001  -2.888   0.000  0.00  0.00    +0.036 A 
ATOM     11  C   UNL     1       4.287  -2.475   0.000  0.00  0.00    +0.021 A 
ENDROOT
BRANCH   1  13
ATOM     12  C   UNL     1       2.143  -2.888   0.000  0.00  0.00    +0.276 C 
ATOM     13  N   UNL     1       2.858  -2.475   0.000  0.00  0.00    -0.176 NA
ATOM     14  O   UNL     1       2.143  -3.712   0.000  0.00  0.00    -0.270 OA
BRANCH  12  15
ATOM     15  C   UNL     1       1.429  -2.475   0.000  0.00  0.00    +0.229 C 
BRANCH  15  17
ATOM     16  C   UNL     1       0.000  -2.475   0.000  0.00  0.00    +0.175 C 
ATOM     17  O   UNL     1       0.715  -2.888   0.000  0.00  0.00    -0.342 OA
ENDBRANCH  15  17
ENDBRANCH  12  15
ENDBRANCH   1  13
TORSDOF 3
