REMARK  Name = 
REMARK  6 active torsions:
REMARK  status: ('A' for Active; 'I' for Inactive)
REMARK    1  A    between atoms: C_2  and  N_3
REMARK    2  A    between atoms: C_2  and  C_18
REMARK    3  A    between atoms: C_2  and  C_20
REMARK    4  A    between atoms: C_4  and  C_6
REMARK    5  A    between atoms: C_6  and  N_7
REMARK    6  A    between atoms: C_9  and  C_14
REMARK                            x       y       z     vdW  Elec       q    Type
REMARK                         _______ _______ _______ _____ _____    ______ ____
ROOT
ATOM      1  C   UNL     1      -0.570  -1.999   0.000  0.00  0.00    +0.196 C 
ENDROOT
BRANCH   1   2
ATOM      2  N   UNL     1      -0.982  -1.284   0.000  0.00  0.00    -0.285 N 
ATOM      3  C   UNL     1      -0.570  -0.570   0.000  0.00  0.00    +0.261 A 
ATOM      4  O   UNL     1       0.255  -0.570   0.000  0.00  0.00    -0.267 OA
ATOM      5  C   UNL     1      -0.982   0.145   0.000  0.00  0.00    +0.061 A 
ATOM      6  C   UNL     1      -1.807   0.145   0.000  0.00  0.00    +0.010 A 
ATOM      7  C   UNL     1      -2.220  -0.570   0.000  0.00  0.00    +0.089 A 
ATOM      8  C   UNL     1      -1.807  -1.284   0.000  0.00  0.00    +0.083 A 
BRANCH   7   9
ATOM      9  C   UNL     1      -3.045  -0.570   0.000  0.00  0.00    +0.420 C 
ATOM     10  F   UNL     1      -3.045   0.255   0.000  0.00  0.00    -0.166 F 
ATOM     11  F   UNL     1      -3.045  -1.395   0.000  0.00  0.00    -0.166 F 
ATOM     12  F   UNL     1      -3.870  -0.570   0.000  0.00  0.00    -0.166 F 
ENDBRANCH   7   9
ENDBRANCH   1   2
BRANCH   1  14
ATOM     13  N   UNL     1       0.668  -2.713   0.000  0.00  0.00    -0.193 NA
ATOM     14  C   UNL     1       0.255  -1.999   0.000  0.00  0.00    +0.265 C 
ATOM     15  O   UNL     1       0.668  -1.284   0.000  0.00  0.00    -0.271 OA
BRANCH  13  17
ATOM     16  C   UNL     1       1.493  -1.888   0.000  0.00  0.00    +0.037 C 
ATOM     17  C   UNL     1       1.493  -2.713   0.000  0.00  0.00    +0.157 C 
BRANCH  17  18
ATOM     18  C   UNL     1       1.493  -3.538   0.000  0.00  0.00    +0.032 C 
ATOM     19  C   UNL     1       1.080  -4.253   0.000  0.00  0.00    +0.003 C 
ATOM     20  C   UNL     1       1.905  -4.253   0.000  0.00  0.00    +0.003 C 
ENDBRANCH  17  18
BRANCH  17  21
ATOM     21  C   UNL     1       2.318  -2.713   0.000  0.00  0.00    +0.091 C 
ATOM     22  N   UNL     1       3.143  -2.713   0.000  0.00  0.00    -0.194 NA
ENDBRANCH  17  21
ENDBRANCH  13  17
ENDBRANCH   1  14
TORSDOF 6
