REMARK  Name = 
REMARK  5 active torsions:
REMARK  status: ('A' for Active; 'I' for Inactive)
REMARK    1  A    between atoms: C_6  and  N_7
REMARK    2  A    between atoms: N_10  and  C_11
REMARK    3  A    between atoms: C_11  and  C_12
REMARK    4  A    between atoms: C_12  and  N_13
REMARK    5  A    between atoms: C_12  and  C_16
REMARK                            x       y       z     vdW  Elec       q    Type
REMARK                         _______ _______ _______ _____ _____    ______ ____
ROOT
ATOM      1  C   UNL     1       1.428  -2.336   0.000  0.00  0.00    +0.137 C 
ENDROOT
BRANCH   1   4
ATOM      2  N   UNL     1      -0.222  -3.765   0.000  0.00  0.00    -0.189 NA
ATOM      3  C   UNL     1       0.190  -3.050   0.000  0.00  0.00    +0.339 C 
ATOM      4  N   UNL     1       1.015  -3.050   0.000  0.00  0.00    -0.185 NA
ATOM      5  O   UNL     1      -0.222  -2.336   0.000  0.00  0.00    -0.249 OA
BRANCH   2   8
ATOM      6  C   UNL     1      -1.277  -5.217   0.000  0.00  0.00    +0.002 C 
ATOM      7  C   UNL     1      -1.532  -4.432   0.000  0.00  0.00    +0.020 C 
ATOM      8  C   UNL     1      -1.047  -3.765   0.000  0.00  0.00    +0.097 C 
ATOM      9  C   UNL     1      -1.532  -3.097   0.000  0.00  0.00    +0.022 C 
ATOM     10  C   UNL     1      -2.317  -3.352   0.000  0.00  0.00    +0.002 C 
ATOM     11  C   UNL     1      -2.317  -4.177   0.000  0.00  0.00    +0.002 C 
ENDBRANCH   2   8
ENDBRANCH   1   4
BRANCH   1  12
ATOM     12  C   UNL     1       2.253  -2.336   0.000  0.00  0.00    +0.105 C 
BRANCH  12  13
ATOM     13  C   UNL     1       2.665  -1.621   0.000  0.00  0.00    +0.034 A 
ATOM     14  C   UNL     1       3.486  -1.535   0.000  0.00  0.00    +0.094 A 
ATOM     15  N   UNL     1       3.657  -0.728   0.000  0.00  0.00    -0.248 N 
ATOM     16  C   UNL     1       4.411  -0.393   0.000  0.00  0.00    +0.154 C 
ATOM     17  N   UNL     1       2.943  -0.316   0.000  0.00  0.00    -0.168 NA
ATOM     18  C   UNL     1       2.330  -0.868   0.000  0.00  0.00    +0.119 A 
ENDBRANCH  12  13
BRANCH  12  19
ATOM     19  N   UNL     1       2.665  -3.050   0.000  0.00  0.00    -0.266 NA
ATOM     20  C   UNL     1       2.253  -3.765   0.000  0.00  0.00    +0.090 C 
ATOM     21  C   UNL     1       3.490  -3.050   0.000  0.00  0.00    +0.090 C 
ENDBRANCH  12  19
ENDBRANCH   1  12
TORSDOF 5
