REMARK  Name = 
REMARK  4 active torsions:
REMARK  status: ('A' for Active; 'I' for Inactive)
REMARK    1  A    between atoms: C_2  and  C_4
REMARK    2  A    between atoms: C_4  and  C_5
REMARK    3  A    between atoms: C_10  and  C_12
REMARK    4  A    between atoms: C_12  and  C_13
REMARK                            x       y       z     vdW  Elec       q    Type
REMARK                         _______ _______ _______ _____ _____    ______ ____
ROOT
ATOM      1  C   UNL     1       3.595  -1.611   0.000  0.00  0.00    +0.077 A 
ATOM      2  N   UNL     1       2.928  -2.096   0.000  0.00  0.00    -0.226 NA
ATOM      3  C   UNL     1       3.182  -2.881   0.000  0.00  0.00    +0.186 A 
ATOM      4  N   UNL     1       2.697  -3.548   0.000  0.00  0.00    -0.154 NA
ATOM      5  C   UNL     1       1.877  -3.462   0.000  0.00  0.00    +0.248 C 
ATOM      6  O   UNL     1       1.541  -2.708   0.000  0.00  0.00    -0.273 OA
ATOM      7  S   UNL     1       4.007  -2.881   0.000  0.00  0.00    -0.049 S 
ATOM      8  C   UNL     1       4.262  -2.096   0.000  0.00  0.00    +0.053 A 
ENDROOT
BRANCH   1   9
ATOM      9  C   UNL     1       3.595  -0.786   0.000  0.00  0.00    +0.135 C 
BRANCH   9  11
ATOM     10  N   UNL     1       4.309   0.451   0.000  0.00  0.00    -0.087 NA
ATOM     11  C   UNL     1       4.309  -0.374   0.000  0.00  0.00    +0.267 C 
ATOM     12  O   UNL     1       5.024  -0.786   0.000  0.00  0.00    -0.271 OA
ENDBRANCH   9  11
ENDBRANCH   1   9
BRANCH   5  13
ATOM     13  C   UNL     1       1.392  -4.130   0.000  0.00  0.00    +0.092 C 
BRANCH  13  14
ATOM     14  C   UNL     1       0.572  -4.043   0.000  0.00  0.00    +0.031 C 
ATOM     15  C   UNL     1       0.159  -3.329   0.000  0.00  0.00    -0.031 C 
ATOM     16  C   UNL     1      -0.648  -3.500   0.000  0.00  0.00    -0.031 C 
ATOM     17  C   UNL     1      -0.734  -4.321   0.000  0.00  0.00    +0.026 C 
ATOM     18  C   UNL     1       0.020  -4.656   0.000  0.00  0.00    +0.009 C 
ENDBRANCH  13  14
ENDBRANCH   5  13
TORSDOF 4
