REMARK  Name = 
REMARK  4 active torsions:
REMARK  status: ('A' for Active; 'I' for Inactive)
REMARK    1  A    between atoms: C_2  and  C_3
REMARK    2  A    between atoms: C_2  and  C_15
REMARK    3  A    between atoms: C_3  and  N_4
REMARK    4  A    between atoms: C_15  and  C_16
REMARK                            x       y       z     vdW  Elec       q    Type
REMARK                         _______ _______ _______ _____ _____    ______ ____
ROOT
ATOM      1  N   UNL     1       1.139  -1.365   0.000  0.00  0.00    -0.229 N 
ATOM      2  C   UNL     1       1.923  -1.110   0.000  0.00  0.00    +0.100 A 
ATOM      3  C   UNL     1       1.923  -0.285   0.000  0.00  0.00    +0.123 A 
ATOM      4  C   UNL     1       2.638   0.127   0.000  0.00  0.00    +0.035 A 
ATOM      5  C   UNL     1       3.352  -0.285   0.000  0.00  0.00    +0.070 A 
ATOM      6  C   UNL     1       3.352  -1.110   0.000  0.00  0.00    +0.070 A 
ATOM      7 CL   UNL     1       4.067  -1.523   0.000  0.00  0.00    -0.081 Cl
ATOM      8 CL   UNL     1       4.067   0.127   0.000  0.00  0.00    -0.081 Cl
ATOM      9  N   UNL     1       1.139  -0.030   0.000  0.00  0.00    -0.129 NA
ATOM     10  C   UNL     1       2.638  -1.523   0.000  0.00  0.00    +0.033 A 
ATOM     11  N   UNL     1       0.654  -0.698   0.000  0.00  0.00    -0.064 NA
ENDROOT
BRANCH   1  12
ATOM     12  C   UNL     1       0.884  -2.150   0.000  0.00  0.00    +0.162 C 
BRANCH  12  14
ATOM     13  O   UNL     1       2.243  -2.592   0.000  0.00  0.00    -0.221 OA
ATOM     14  C   UNL     1       1.436  -2.763   0.000  0.00  0.00    +0.185 C 
BRANCH  14  15
ATOM     15  C   UNL     1       1.181  -3.548   0.000  0.00  0.00    +0.138 C 
BRANCH  15  16
ATOM     16  C   UNL     1       1.733  -4.161   0.000  0.00  0.00    +0.400 C 
ATOM     17  F   UNL     1       2.346  -3.609   0.000  0.00  0.00    -0.170 F 
ATOM     18  F   UNL     1       1.120  -4.713   0.000  0.00  0.00    -0.170 F 
ATOM     19  F   UNL     1       2.285  -4.774   0.000  0.00  0.00    -0.170 F 
ENDBRANCH  15  16
ENDBRANCH  14  15
ENDBRANCH  12  14
ENDBRANCH   1  12
TORSDOF 4
