REMARK  Name = 
REMARK  6 active torsions:
REMARK  status: ('A' for Active; 'I' for Inactive)
REMARK    1  A    between atoms: C_4  and  C_5
REMARK    2  A    between atoms: C_5  and  C_6
REMARK    3  A    between atoms: C_6  and  N_7
REMARK    4  A    between atoms: C_8  and  C_10
REMARK    5  A    between atoms: C_10  and  C_11
REMARK    6  A    between atoms: C_11  and  C_12
REMARK                            x       y       z     vdW  Elec       q    Type
REMARK                         _______ _______ _______ _____ _____    ______ ____
ROOT
ATOM      1  N   UNL     1       3.878  -3.364   0.000  0.00  0.00    -0.205 NA
ATOM      2  C   UNL     1       4.592  -2.952   0.000  0.00  0.00    +0.241 C 
ATOM      3  O   UNL     1       4.592  -2.127   0.000  0.00  0.00    -0.273 OA
ENDROOT
BRANCH   1   4
ATOM      4  C   UNL     1       3.163  -2.952   0.000  0.00  0.00    +0.121 C 
BRANCH   4   5
ATOM      5  C   UNL     1       2.449  -3.364   0.000  0.00  0.00    +0.070 C 
BRANCH   5  10
ATOM      6  C   UNL     1       0.506  -1.206   0.000  0.00  0.00    +0.059 C 
ATOM      7  C   UNL     1       0.841  -1.960   0.000  0.00  0.00    +0.088 A 
ATOM      8  S   UNL     1       0.429  -2.674   0.000  0.00  0.00    -0.071 S 
ATOM      9  C   UNL     1       0.981  -3.287   0.000  0.00  0.00    +0.051 A 
ATOM     10  C   UNL     1       1.734  -2.952   0.000  0.00  0.00    +0.067 A 
ATOM     11  N   UNL     1       1.648  -2.131   0.000  0.00  0.00    -0.247 NA
ENDBRANCH   5  10
ENDBRANCH   4   5
ENDBRANCH   1   4
BRANCH   2  12
ATOM     12  C   UNL     1       5.307  -3.364   0.000  0.00  0.00    +0.089 C 
BRANCH  12  13
ATOM     13  C   UNL     1       6.021  -2.952   0.000  0.00  0.00    +0.041 C 
BRANCH  13  14
ATOM     14  C   UNL     1       6.736  -3.364   0.000  0.00  0.00    +0.175 C 
ATOM     15  C   UNL     1       6.822  -4.185   0.000  0.00  0.00    +0.269 C 
ATOM     16  O   UNL     1       6.209  -4.737   0.000  0.00  0.00    -0.271 OA
ATOM     17  N   UNL     1       7.629  -4.356   0.000  0.00  0.00    -0.125 NA
ATOM     18  C   UNL     1       8.041  -3.642   0.000  0.00  0.00    +0.346 C 
ATOM     19  O   UNL     1       8.862  -3.556   0.000  0.00  0.00    -0.249 OA
ATOM     20  N   UNL     1       7.489  -3.029   0.000  0.00  0.00    -0.179 NA
ENDBRANCH  13  14
ENDBRANCH  12  13
ENDBRANCH   2  12
TORSDOF 6
