REMARK  Name = 
REMARK  4 active torsions:
REMARK  status: ('A' for Active; 'I' for Inactive)
REMARK    1  A    between atoms: C_4  and  N_5
REMARK    2  A    between atoms: N_8  and  C_9
REMARK    3  A    between atoms: C_9  and  C_11
REMARK    4  A    between atoms: C_9  and  C_13
REMARK                            x       y       z     vdW  Elec       q    Type
REMARK                         _______ _______ _______ _____ _____    ______ ____
ROOT
ATOM      1  N   UNL     1       3.649  -5.299   0.000  0.00  0.00    -0.142 NA
ATOM      2  C   UNL     1       3.313  -6.052   0.000  0.00  0.00    +0.345 C 
ATOM      3  N   UNL     1       3.798  -6.720   0.000  0.00  0.00    -0.188 NA
ATOM      4  O   UNL     1       2.493  -6.138   0.000  0.00  0.00    -0.249 OA
ENDROOT
BRANCH   1  10
ATOM      5  C   UNL     1       2.751  -2.537   0.000  0.00  0.00    +0.054 C 
ATOM      6  C   UNL     1       2.751  -3.362   0.000  0.00  0.00    +0.082 A 
ATOM      7  N   UNL     1       2.084  -3.846   0.000  0.00  0.00    -0.172 NA
ATOM      8  N   UNL     1       2.339  -4.631   0.000  0.00  0.00    -0.234 N 
ATOM      9  C   UNL     1       1.854  -5.299   0.000  0.00  0.00    +0.155 C 
ATOM     10  C   UNL     1       3.164  -4.631   0.000  0.00  0.00    +0.154 A 
ATOM     11  C   UNL     1       3.419  -3.846   0.000  0.00  0.00    +0.052 A 
ENDBRANCH   1  10
BRANCH   3  12
ATOM     12  C   UNL     1       3.462  -7.473   0.000  0.00  0.00    +0.111 C 
ATOM     13  C   UNL     1       2.709  -7.138   0.000  0.00  0.00    +0.024 C 
BRANCH  12  14
ATOM     14  C   UNL     1       3.127  -8.227   0.000  0.00  0.00    +0.021 C 
ATOM     15  C   UNL     1       2.306  -8.313   0.000  0.00  0.00    +0.002 C 
ATOM     16  C   UNL     1       1.971  -9.067   0.000  0.00  0.00    +0.000 C 
ATOM     17  C   UNL     1       2.456  -9.734   0.000  0.00  0.00    +0.000 C 
ATOM     18  C   UNL     1       3.276  -9.648   0.000  0.00  0.00    +0.000 C 
ATOM     19  C   UNL     1       3.612  -8.895   0.000  0.00  0.00    +0.002 C 
ENDBRANCH  12  14
BRANCH  12  20
ATOM     20  C   UNL     1       4.216  -7.809   0.000  0.00  0.00    +0.202 C 
ATOM     21  O   UNL     1       4.302  -8.629   0.000  0.00  0.00    -0.219 OA
ENDBRANCH  12  20
ENDBRANCH   3  12
TORSDOF 4
