REMARK  Name = 
REMARK  5 active torsions:
REMARK  status: ('A' for Active; 'I' for Inactive)
REMARK    1  A    between atoms: N_2  and  C_4
REMARK    2  A    between atoms: C_4  and  C_5
REMARK    3  A    between atoms: C_4  and  C_16
REMARK    4  A    between atoms: C_5  and  N_6
REMARK    5  A    between atoms: N_6  and  C_7
REMARK                            x       y       z     vdW  Elec       q    Type
REMARK                         _______ _______ _______ _____ _____    ______ ____
ROOT
ATOM      1  C   UNL     1       1.754  -1.452   0.000  0.00  0.00    +0.109 C 
ENDROOT
BRANCH   1   2
ATOM      2  C   UNL     1       1.040  -1.040   0.000  0.00  0.00    +0.101 C 
BRANCH   2   3
ATOM      3  C   UNL     1       0.325  -1.452   0.000  0.00  0.00    +0.033 A 
ATOM      4  C   UNL     1      -0.429  -1.117   0.000  0.00  0.00    +0.094 A 
ATOM      5  N   UNL     1      -0.981  -1.730   0.000  0.00  0.00    -0.248 N 
ATOM      6  C   UNL     1      -1.801  -1.643   0.000  0.00  0.00    +0.154 C 
ATOM      7  N   UNL     1      -0.568  -2.444   0.000  0.00  0.00    -0.168 NA
ATOM      8  C   UNL     1       0.239  -2.272   0.000  0.00  0.00    +0.119 A 
ENDBRANCH   2   3
BRANCH   2  10
ATOM      9  C   UNL     1       0.325   0.198   0.000  0.00  0.00    +0.090 C 
ATOM     10  N   UNL     1       1.040  -0.215   0.000  0.00  0.00    -0.267 NA
ATOM     11  C   UNL     1       1.754   0.198   0.000  0.00  0.00    +0.090 C 
ENDBRANCH   2  10
ENDBRANCH   1   2
BRANCH   1  12
ATOM     12  N   UNL     1       2.469  -1.040   0.000  0.00  0.00    -0.215 NA
BRANCH  12  13
ATOM     13  C   UNL     1       3.183  -1.452   0.000  0.00  0.00    +0.100 C 
ATOM     14  C   UNL     1       3.269  -2.272   0.000  0.00  0.00    +0.107 C 
ATOM     15  C   UNL     1       2.464  -2.453   0.000  0.00  0.00    +0.031 C 
ATOM     16  C   UNL     1       3.006  -3.054   0.000  0.00  0.00    +0.031 C 
ATOM     17  O   UNL     1       4.076  -2.444   0.000  0.00  0.00    -0.362 OA
ATOM     18  C   UNL     1       4.489  -1.730   0.000  0.00  0.00    +0.094 C 
ATOM     19  C   UNL     1       5.156  -2.215   0.000  0.00  0.00    +0.030 C 
ATOM     20  C   UNL     1       5.041  -1.117   0.000  0.00  0.00    +0.030 C 
ATOM     21  C   UNL     1       3.937  -1.117   0.000  0.00  0.00    +0.047 C 
ENDBRANCH  12  13
ENDBRANCH   1  12
TORSDOF 5
