REMARK  Name = 
REMARK  7 active torsions:
REMARK  status: ('A' for Active; 'I' for Inactive)
REMARK    1  A    between atoms: C_2  and  C_3
REMARK    2  A    between atoms: C_2  and  N_6
REMARK    3  A    between atoms: C_8  and  C_10
REMARK    4  A    between atoms: N_14  and  C_15
REMARK    5  A    between atoms: C_15  and  C_16
REMARK    6  A    between atoms: N_18  and  C_19
REMARK    7  A    between atoms: C_19  and  C_20
REMARK                            x       y       z     vdW  Elec       q    Type
REMARK                         _______ _______ _______ _____ _____    ______ ____
ROOT
ATOM      1  C   UNL     1      -0.715   2.062   0.000  0.00  0.00    +0.110 A 
ATOM      2  C   UNL     1       0.000   1.650   0.000  0.00  0.00    +0.266 A 
ATOM      3  O   UNL     1       0.000   0.825   0.000  0.00  0.00    -0.267 OA
ATOM      4  N   UNL     1       0.715   2.062   0.000  0.00  0.00    -0.285 N 
ATOM      5  C   UNL     1       0.715   2.888   0.000  0.00  0.00    +0.079 A 
ATOM      6  C   UNL     1       0.000   3.300   0.000  0.00  0.00    +0.019 A 
ATOM      7  C   UNL     1      -0.715   2.888   0.000  0.00  0.00    +0.011 A 
ENDROOT
BRANCH   1   9
ATOM      8  N   UNL     1      -2.143   2.062   0.000  0.00  0.00    -0.276 N 
ATOM      9  C   UNL     1      -1.429   1.650   0.000  0.00  0.00    +0.254 C 
ATOM     10  O   UNL     1      -1.429   0.825   0.000  0.00  0.00    -0.270 OA
ATOM     11  C   UNL     1      -2.143   2.888   0.000  0.00  0.00    +0.115 C 
BRANCH   8  13
ATOM     12  C   UNL     1      -2.858   0.825   0.000  0.00  0.00    +0.022 C 
ATOM     13  C   UNL     1      -2.858   1.650   0.000  0.00  0.00    +0.076 C 
BRANCH  13  14
ATOM     14  C   UNL     1      -3.572   2.062   0.000  0.00  0.00    +0.018 C 
ATOM     15  C   UNL     1      -3.985   2.777   0.000  0.00  0.00    +0.002 C 
ATOM     16  C   UNL     1      -4.397   2.062   0.000  0.00  0.00    +0.002 C 
ENDBRANCH  13  14
ENDBRANCH   8  13
ENDBRANCH   1   9
BRANCH   4  17
ATOM     17  C   UNL     1       1.429   1.650   0.000  0.00  0.00    +0.196 C 
BRANCH  17  18
ATOM     18  C   UNL     1       2.143   2.062   0.000  0.00  0.00    +0.265 C 
ATOM     19  N   UNL     1       2.858   1.650   0.000  0.00  0.00    -0.204 NA
ATOM     20  O   UNL     1       2.143   2.888   0.000  0.00  0.00    -0.271 OA
BRANCH  19  21
ATOM     21  C   UNL     1       3.572   2.062   0.000  0.00  0.00    +0.115 C 
BRANCH  21  22
ATOM     22  C   UNL     1       4.287   1.650   0.000  0.00  0.00    +0.022 C 
ATOM     23  C   UNL     1       4.500   0.853   0.000  0.00  0.00    +0.002 C 
ATOM     24  C   UNL     1       5.297   1.067   0.000  0.00  0.00    +0.000 C 
ATOM     25  C   UNL     1       5.084   1.863   0.000  0.00  0.00    +0.002 C 
ENDBRANCH  21  22
ENDBRANCH  19  21
ENDBRANCH  17  18
ENDBRANCH   4  17
TORSDOF 7
