REMARK  Name = 
REMARK  6 active torsions:
REMARK  status: ('A' for Active; 'I' for Inactive)
REMARK    1  A    between atoms: C_2  and  C_3
REMARK    2  A    between atoms: C_3  and  O_5
REMARK    3  A    between atoms: O_5  and  C_6
REMARK    4  A    between atoms: C_6  and  C_7
REMARK    5  A    between atoms: N_9  and  C_10
REMARK    6  A    between atoms: C_15  and  N_16
REMARK                            x       y       z     vdW  Elec       q    Type
REMARK                         _______ _______ _______ _____ _____    ______ ____
ROOT
ATOM      1  C   UNL     1       2.858  -3.300   0.000  0.00  0.00    +0.124 A 
ATOM      2  C   UNL     1       3.572  -3.712   0.000  0.00  0.00    +0.150 A 
ATOM      3  N   UNL     1       4.287  -3.300   0.000  0.00  0.00    -0.208 NA
ATOM      4  C   UNL     1       4.287  -2.475   0.000  0.00  0.00    +0.200 A 
ATOM      5  N   UNL     1       3.572  -2.062   0.000  0.00  0.00    -0.221 NA
ATOM      6  C   UNL     1       2.858  -2.475   0.000  0.00  0.00    +0.120 A 
ENDROOT
BRANCH   2   7
ATOM      7  N   UNL     1       3.572  -4.537   0.000  0.00  0.00    -0.292 N 
ATOM      8  C   UNL     1       2.905  -5.022   0.000  0.00  0.00    +0.092 C 
ATOM      9  C   UNL     1       3.160  -5.807   0.000  0.00  0.00    +0.023 C 
ATOM     10  C   UNL     1       3.985  -5.807   0.000  0.00  0.00    +0.023 C 
ATOM     11  C   UNL     1       4.240  -5.022   0.000  0.00  0.00    +0.092 C 
ENDBRANCH   2   7
BRANCH   1  13
ATOM     12  C   UNL     1       1.429  -3.300   0.000  0.00  0.00    +0.276 C 
ATOM     13  N   UNL     1       2.143  -3.712   0.000  0.00  0.00    -0.173 NA
ATOM     14  O   UNL     1       1.429  -2.475   0.000  0.00  0.00    -0.270 OA
BRANCH  12  15
ATOM     15  C   UNL     1       0.715  -3.712   0.000  0.00  0.00    +0.229 C 
BRANCH  15  16
ATOM     16  O   UNL     1       0.000  -3.300   0.000  0.00  0.00    -0.347 OA
BRANCH  16  17
ATOM     17  C   UNL     1      -0.715  -3.712   0.000  0.00  0.00    +0.116 C 
ATOM     18  C   UNL     1      -0.715  -4.537   0.000  0.00  0.00    +0.032 C 
BRANCH  17  20
ATOM     19  C   UNL     1      -2.143  -3.712   0.000  0.00  0.00    +0.003 C 
ATOM     20  C   UNL     1      -1.429  -3.300   0.000  0.00  0.00    +0.030 C 
ENDBRANCH  17  20
ENDBRANCH  16  17
ENDBRANCH  15  16
ENDBRANCH  12  15
ENDBRANCH   1  13
TORSDOF 6
