REMARK  Name = 
REMARK  5 active torsions:
REMARK  status: ('A' for Active; 'I' for Inactive)
REMARK    1  A    between atoms: C_2  and  C_3
REMARK    2  A    between atoms: N_11  and  C_12
REMARK    3  A    between atoms: C_12  and  C_13
REMARK    4  A    between atoms: C_13  and  C_14
REMARK    5  A    between atoms: C_17  and  C_18
REMARK                            x       y       z     vdW  Elec       q    Type
REMARK                         _______ _______ _______ _____ _____    ______ ____
ROOT
ATOM      1  C   UNL     1       0.715  -2.062   0.000  0.00  0.00    +0.106 C 
ATOM      2  N   UNL     1       0.715  -1.238   0.000  0.00  0.00    -0.259 N 
ATOM      3  C   UNL     1       1.429  -0.825   0.000  0.00  0.00    +0.323 C 
ATOM      4  N   UNL     1       2.143  -1.238   0.000  0.00  0.00    -0.188 NA
ATOM      5  O   UNL     1       1.429   0.000   0.000  0.00  0.00    -0.251 OA
ATOM      6  C   UNL     1       0.000  -0.825   0.000  0.00  0.00    +0.127 C 
ATOM      7  C   UNL     1      -0.715  -1.238   0.000  0.00  0.00    +0.164 C 
ATOM      8  O   UNL     1      -0.715  -2.062   0.000  0.00  0.00    -0.350 OA
ATOM      9  C   UNL     1       0.000  -2.475   0.000  0.00  0.00    +0.162 C 
ENDROOT
BRANCH   1  11
ATOM     10  C   UNL     1       1.429  -3.300   0.000  0.00  0.00    +0.002 C 
ATOM     11  C   UNL     1       1.429  -2.475   0.000  0.00  0.00    +0.022 C 
ENDBRANCH   1  11
BRANCH   4  12
ATOM     12  C   UNL     1       2.858  -0.825   0.000  0.00  0.00    +0.124 C 
BRANCH  12  13
ATOM     13  C   UNL     1       3.572  -1.238   0.000  0.00  0.00    +0.076 C 
BRANCH  13  14
ATOM     14  C   UNL     1       4.287  -0.825   0.000  0.00  0.00    +0.090 A 
ATOM     15  S   UNL     1       5.040  -1.161   0.000  0.00  0.00    -0.075 S 
ATOM     16  C   UNL     1       5.593  -0.547   0.000  0.00  0.00    +0.027 A 
ATOM     17  C   UNL     1       5.180   0.167   0.000  0.00  0.00    +0.101 A 
ATOM     18  N   UNL     1       4.373  -0.004   0.000  0.00  0.00    -0.241 NA
BRANCH  16  19
ATOM     19  C   UNL     1       6.413  -0.634   0.000  0.00  0.00    +0.035 C 
ATOM     20  C   UNL     1       6.898   0.034   0.000  0.00  0.00    +0.006 C 
ENDBRANCH  16  19
ENDBRANCH  13  14
ENDBRANCH  12  13
ENDBRANCH   4  12
TORSDOF 5
