REMARK  Name = 
REMARK  6 active torsions:
REMARK  status: ('A' for Active; 'I' for Inactive)
REMARK    1  A    between atoms: C_2  and  C_3
REMARK    2  A    between atoms: C_3  and  N_4
REMARK    3  A    between atoms: C_7  and  N_10
REMARK    4  A    between atoms: N_10  and  C_11
REMARK    5  A    between atoms: C_11  and  C_12
REMARK    6  A    between atoms: C_12  and  C_14
REMARK                            x       y       z     vdW  Elec       q    Type
REMARK                         _______ _______ _______ _____ _____    ______ ____
ROOT
ATOM      1  N   UNL     1      -2.143  -3.712   0.000  0.00  0.00    -0.216 NA
ENDROOT
BRANCH   1   5
ATOM      2  N   UNL     1      -2.143  -1.238   0.000  0.00  0.00    -0.273 NA
ATOM      3  C   UNL     1      -2.858  -1.650   0.000  0.00  0.00    +0.074 C 
ATOM      4  C   UNL     1      -2.858  -2.475   0.000  0.00  0.00    +0.035 C 
ATOM      5  C   UNL     1      -2.143  -2.888   0.000  0.00  0.00    +0.076 C 
ATOM      6  C   UNL     1      -1.429  -2.475   0.000  0.00  0.00    +0.035 C 
ATOM      7  C   UNL     1      -1.429  -1.650   0.000  0.00  0.00    +0.074 C 
BRANCH   2   8
ATOM      8  C   UNL     1      -2.143  -0.412   0.000  0.00  0.00    +0.072 C 
BRANCH   8  10
ATOM      9  C   UNL     1      -2.858   0.825   0.000  0.00  0.00    +0.001 C 
ATOM     10  C   UNL     1      -2.858   0.000   0.000  0.00  0.00    +0.017 C 
ENDBRANCH   8  10
ENDBRANCH   2   8
ENDBRANCH   1   5
BRANCH   1  11
ATOM     11  C   UNL     1      -2.858  -4.125   0.000  0.00  0.00    +0.126 C 
BRANCH  11  12
ATOM     12  C   UNL     1      -2.858  -4.950   0.000  0.00  0.00    +0.192 C 
ATOM     13  O   UNL     1      -3.572  -5.362   0.000  0.00  0.00    -0.217 OA
BRANCH  12  14
ATOM     14  C   UNL     1      -2.143  -5.362   0.000  0.00  0.00    +0.012 A 
ATOM     15  C   UNL     1      -2.143  -6.188   0.000  0.00  0.00    +0.019 A 
ATOM     16  C   UNL     1      -1.429  -6.600   0.000  0.00  0.00    +0.099 A 
ATOM     17  N   UNL     1      -0.715  -6.188   0.000  0.00  0.00    -0.242 NA
ATOM     18  C   UNL     1      -0.715  -5.362   0.000  0.00  0.00    +0.099 A 
ATOM     19  C   UNL     1      -1.429  -4.950   0.000  0.00  0.00    +0.019 A 
ENDBRANCH  12  14
ENDBRANCH  11  12
ENDBRANCH   1  11
TORSDOF 6
