REMARK  Name = 
REMARK  5 active torsions:
REMARK  status: ('A' for Active; 'I' for Inactive)
REMARK    1  A    between atoms: S_2  and  C_5
REMARK    2  A    between atoms: C_5  and  C_6
REMARK    3  A    between atoms: C_6  and  N_7
REMARK    4  A    between atoms: N_7  and  C_8
REMARK    5  A    between atoms: C_8  and  C_9
REMARK                            x       y       z     vdW  Elec       q    Type
REMARK                         _______ _______ _______ _____ _____    ______ ____
ROOT
ATOM      1  C   UNL     1       0.715  -1.238   0.000  0.00  0.00    +0.034 A 
ATOM      2  C   UNL     1       0.000  -1.650   0.000  0.00  0.00    +0.100 A 
ATOM      3  N   UNL     1       0.000  -2.475   0.000  0.00  0.00    -0.212 NA
ATOM      4  C   UNL     1       0.715  -2.888   0.000  0.00  0.00    +0.220 A 
ATOM      5  N   UNL     1       0.715  -3.712   0.000  0.00  0.00    -0.273 N 
ATOM      6  C   UNL     1       0.000  -4.125   0.000  0.00  0.00    +0.126 C 
ATOM      7  C   UNL     1       0.000  -4.950   0.000  0.00  0.00    +0.164 C 
ATOM      8  O   UNL     1       0.715  -5.362   0.000  0.00  0.00    -0.350 OA
ATOM      9  C   UNL     1       1.429  -4.950   0.000  0.00  0.00    +0.164 C 
ATOM     10  C   UNL     1       1.429  -4.125   0.000  0.00  0.00    +0.126 C 
ATOM     11  N   UNL     1       1.429  -2.475   0.000  0.00  0.00    -0.212 NA
ATOM     12  C   UNL     1       1.429  -1.650   0.000  0.00  0.00    +0.100 A 
ENDROOT
BRANCH   1  13
ATOM     13  C   UNL     1       0.715  -0.412   0.000  0.00  0.00    +0.118 C 
BRANCH  13  14
ATOM     14  N   UNL     1       0.000   0.000   0.000  0.00  0.00    -0.211 NA
BRANCH  14  15
ATOM     15  C   UNL     1       0.000   0.825   0.000  0.00  0.00    +0.114 C 
BRANCH  15  16
ATOM     16  C   UNL     1      -0.715   1.238   0.000  0.00  0.00    +0.170 C 
BRANCH  16  18
ATOM     17  C   UNL     1      -0.715   2.888   0.000  0.00  0.00    +0.176 C 
ATOM     18  S   UNL     1      -0.715   2.062   0.000  0.00  0.00    -0.007 S 
ATOM     19  O   UNL     1       0.111   2.062   0.000  0.00  0.00    -0.173 OA
ATOM     20  O   UNL     1      -1.540   2.062   0.000  0.00  0.00    -0.173 OA
ENDBRANCH  16  18
ENDBRANCH  15  16
ENDBRANCH  14  15
ENDBRANCH  13  14
ENDBRANCH   1  13
TORSDOF 5
