REMARK  Name = 
REMARK  3 active torsions:
REMARK  status: ('A' for Active; 'I' for Inactive)
REMARK    1  A    between atoms: N_3  and  C_4
REMARK    2  A    between atoms: C_4  and  C_5
REMARK    3  A    between atoms: C_5  and  N_10
REMARK                            x       y       z     vdW  Elec       q    Type
REMARK                         _______ _______ _______ _____ _____    ______ ____
ROOT
ATOM      1  C   UNL     1       0.715  -2.888   0.000  0.00  0.00    +0.132 C 
ENDROOT
BRANCH   1  11
ATOM      2  O   UNL     1       2.143  -3.712   0.000  0.00  0.00    -0.249 OA
ATOM      3  C   UNL     1       2.143  -2.888   0.000  0.00  0.00    +0.345 C 
ATOM      4  N   UNL     1       2.858  -2.475   0.000  0.00  0.00    -0.142 NA
ATOM      5  C   UNL     1       3.572  -2.888   0.000  0.00  0.00    +0.156 A 
ATOM      6  N   UNL     1       3.572  -3.712   0.000  0.00  0.00    -0.227 NA
ATOM      7  C   UNL     1       4.287  -4.125   0.000  0.00  0.00    +0.100 A 
ATOM      8  C   UNL     1       5.001  -3.712   0.000  0.00  0.00    +0.021 A 
ATOM      9  C   UNL     1       5.001  -2.888   0.000  0.00  0.00    +0.005 A 
ATOM     10  C   UNL     1       4.287  -2.475   0.000  0.00  0.00    +0.036 A 
ATOM     11  N   UNL     1       1.429  -2.475   0.000  0.00  0.00    -0.185 NA
ENDBRANCH   1  11
BRANCH   1  12
ATOM     12  C   UNL     1       0.000  -2.475   0.000  0.00  0.00    +0.076 C 
ATOM     13  C   UNL     1       0.485  -1.808   0.000  0.00  0.00    +0.074 C 
ATOM     14  S   UNL     1       0.000  -1.140   0.000  0.00  0.00    -0.139 S 
ATOM     15  C   UNL     1      -0.785  -1.395   0.000  0.00  0.00    +0.059 C 
ATOM     16  C   UNL     1      -0.785  -2.220   0.000  0.00  0.00    +0.029 C 
BRANCH  12  17
ATOM     17  N   UNL     1      -0.336  -3.229   0.000  0.00  0.00    -0.268 NA
ATOM     18  C   UNL     1      -1.156  -3.315   0.000  0.00  0.00    +0.105 C 
ATOM     19  C   UNL     1      -1.492  -4.069   0.000  0.00  0.00    +0.159 C 
ATOM     20  O   UNL     1      -1.007  -4.736   0.000  0.00  0.00    -0.351 OA
ATOM     21  C   UNL     1      -0.186  -4.650   0.000  0.00  0.00    +0.159 C 
ATOM     22  C   UNL     1       0.149  -3.896   0.000  0.00  0.00    +0.105 C 
ENDBRANCH  12  17
ENDBRANCH   1  12
TORSDOF 3
