REMARK  Name = 
REMARK  6 active torsions:
REMARK  status: ('A' for Active; 'I' for Inactive)
REMARK    1  A    between atoms: C_5  and  N_6
REMARK    2  A    between atoms: N_6  and  C_7
REMARK    3  A    between atoms: N_10  and  C_11
REMARK    4  A    between atoms: C_11  and  C_12
REMARK    5  A    between atoms: N_14  and  C_15
REMARK    6  A    between atoms: C_15  and  C_16
REMARK                            x       y       z     vdW  Elec       q    Type
REMARK                         _______ _______ _______ _____ _____    ______ ____
ROOT
ATOM      1  C   UNL     1      -3.249   4.911   0.000  0.00  0.00    +0.105 A 
ATOM      2  C   UNL     1      -2.697   4.298   0.000  0.00  0.00    +0.113 A 
ATOM      3  N   UNL     1      -1.943   4.633   0.000  0.00  0.00    -0.239 N 
ATOM      4  N   UNL     1      -2.030   5.454   0.000  0.00  0.00    -0.166 NA
ATOM      5  C   UNL     1      -2.836   5.625   0.000  0.00  0.00    +0.138 A 
ENDROOT
BRANCH   1   6
ATOM      6  N   UNL     1      -4.069   4.824   0.000  0.00  0.00    -0.236 NA
BRANCH   6  12
ATOM      7  C   UNL     1      -6.009   7.494   0.000  0.00  0.00    +0.000 C 
ATOM      8  C   UNL     1      -5.524   6.827   0.000  0.00  0.00    +0.000 C 
ATOM      9  C   UNL     1      -5.860   6.073   0.000  0.00  0.00    +0.002 C 
ATOM     10  C   UNL     1      -5.375   5.406   0.000  0.00  0.00    +0.020 C 
ATOM     11  C   UNL     1      -5.710   4.652   0.000  0.00  0.00    +0.002 C 
ATOM     12  C   UNL     1      -4.554   5.492   0.000  0.00  0.00    +0.093 C 
ATOM     13  C   UNL     1      -4.219   6.246   0.000  0.00  0.00    +0.022 C 
ATOM     14  C   UNL     1      -4.704   6.913   0.000  0.00  0.00    +0.002 C 
ENDBRANCH   6  12
ENDBRANCH   1   6
BRANCH   3  15
ATOM     15  C   UNL     1      -1.229   4.221   0.000  0.00  0.00    +0.214 C 
BRANCH  15  16
ATOM     16  C   UNL     1      -0.514   4.633   0.000  0.00  0.00    +0.266 C 
ATOM     17  N   UNL     1       0.200   4.221   0.000  0.00  0.00    -0.201 NA
ATOM     18  O   UNL     1      -0.514   5.458   0.000  0.00  0.00    -0.271 OA
BRANCH  17  19
ATOM     19  C   UNL     1       0.915   4.633   0.000  0.00  0.00    +0.151 C 
BRANCH  19  20
ATOM     20  C   UNL     1       1.629   4.221   0.000  0.00  0.00    +0.205 C 
ATOM     21  O   UNL     1       2.344   4.633   0.000  0.00  0.00    -0.218 OA
ENDBRANCH  19  20
ENDBRANCH  17  19
ENDBRANCH  15  16
ENDBRANCH   3  15
TORSDOF 6
