REMARK  Name = 
REMARK  5 active torsions:
REMARK  status: ('A' for Active; 'I' for Inactive)
REMARK    1  A    between atoms: N_2  and  C_3
REMARK    2  A    between atoms: C_3  and  C_4
REMARK    3  A    between atoms: N_13  and  C_14
REMARK    4  A    between atoms: C_14  and  C_15
REMARK    5  A    between atoms: C_15  and  C_16
REMARK                            x       y       z     vdW  Elec       q    Type
REMARK                         _______ _______ _______ _____ _____    ______ ____
ROOT
ATOM      1  C   UNL     1       2.143  -2.888   0.000  0.00  0.00    +0.116 C 
ATOM      2  N   UNL     1       2.143  -3.712   0.000  0.00  0.00    -0.261 N 
ATOM      3  C   UNL     1       2.858  -4.125   0.000  0.00  0.00    +0.323 C 
ATOM      4  N   UNL     1       3.572  -3.712   0.000  0.00  0.00    -0.188 NA
ATOM      5  O   UNL     1       2.858  -4.950   0.000  0.00  0.00    -0.251 OA
ENDROOT
BRANCH   4   6
ATOM      6  C   UNL     1       4.287  -4.125   0.000  0.00  0.00    +0.122 C 
BRANCH   6   7
ATOM      7  C   UNL     1       5.001  -3.712   0.000  0.00  0.00    +0.051 C 
BRANCH   7   8
ATOM      8  C   UNL     1       5.716  -4.125   0.000  0.00  0.00    -0.001 A 
ATOM      9  C   UNL     1       5.716  -4.950   0.000  0.00  0.00    +0.094 A 
ATOM     10  N   UNL     1       6.430  -5.362   0.000  0.00  0.00    -0.248 NA
ATOM     11  C   UNL     1       7.145  -4.950   0.000  0.00  0.00    +0.059 A 
ATOM     12  C   UNL     1       7.859  -5.362   0.000  0.00  0.00    +0.052 C 
ATOM     13  C   UNL     1       7.145  -4.125   0.000  0.00  0.00    +0.014 A 
ATOM     14  C   UNL     1       6.430  -3.712   0.000  0.00  0.00    -0.001 A 
ENDBRANCH   7   8
ENDBRANCH   6   7
ENDBRANCH   4   6
BRANCH   2  15
ATOM     15  C   UNL     1       1.429  -4.125   0.000  0.00  0.00    +0.098 C 
BRANCH  15  16
ATOM     16  C   UNL     1       0.715  -3.712   0.000  0.00  0.00    +0.050 C 
ATOM     17  C   UNL     1       0.715  -2.888   0.000  0.00  0.00    +0.154 C 
ATOM     18  O   UNL     1       1.429  -2.475   0.000  0.00  0.00    -0.223 OA
ATOM     19  C   UNL     1       0.000  -2.475   0.000  0.00  0.00    +0.033 C 
ATOM     20  C   UNL     1      -0.715  -2.888   0.000  0.00  0.00    +0.003 C 
ATOM     21  C   UNL     1      -0.715  -3.712   0.000  0.00  0.00    +0.000 C 
ATOM     22  C   UNL     1       0.000  -4.125   0.000  0.00  0.00    +0.004 C 
ENDBRANCH  15  16
ENDBRANCH   2  15
TORSDOF 5
