REMARK  Name = 
REMARK  6 active torsions:
REMARK  status: ('A' for Active; 'I' for Inactive)
REMARK    1  A    between atoms: N_1  and  C_8
REMARK    2  A    between atoms: N_2  and  C_7
REMARK    3  A    between atoms: C_8  and  C_9
REMARK    4  A    between atoms: N_10  and  C_12
REMARK    5  A    between atoms: S_11  and  C_14
REMARK    6  A    between atoms: S_11  and  C_19
REMARK                            x       y       z     vdW  Elec       q    Type
REMARK                         _______ _______ _______ _____ _____    ______ ____
ROOT
ATOM      1  C   UNL     1       4.179   3.242   0.000  0.00  0.00    +0.269 C 
ATOM      2  O   UNL     1       4.179   2.417   0.000  0.00  0.00    -0.271 OA
ATOM      3  N   UNL     1       3.462   3.654   0.000  0.00  0.00    -0.177 NA
ENDROOT
BRANCH   3   4
ATOM      4  C   UNL     1       2.750   3.242   0.000  0.00  0.00    +0.079 A 
ATOM      5  C   UNL     1       2.750   2.417   0.000  0.00  0.00    +0.017 A 
ATOM      6  C   UNL     1       2.033   2.004   0.000  0.00  0.00    +0.001 A 
ATOM      7  C   UNL     1       1.321   2.417   0.000  0.00  0.00    +0.001 A 
ATOM      8  C   UNL     1       1.321   3.242   0.000  0.00  0.00    +0.008 A 
ATOM      9  C   UNL     1       2.033   3.654   0.000  0.00  0.00    +0.045 A 
BRANCH   9  10
ATOM     10  S   UNL     1       2.033   4.475   0.000  0.00  0.00    -0.086 S 
BRANCH  10  11
ATOM     11  C   UNL     1       2.750   4.888   0.000  0.00  0.00    +0.030 A 
ATOM     12  C   UNL     1       3.462   4.475   0.000  0.00  0.00    +0.007 A 
ATOM     13  C   UNL     1       4.179   4.888   0.000  0.00  0.00    +0.012 A 
ATOM     14  C   UNL     1       4.179   5.713   0.000  0.00  0.00    +0.058 A 
ATOM     15  C   UNL     1       3.462   6.125   0.000  0.00  0.00    +0.012 A 
ATOM     16 CL   UNL     1       4.892   6.125   0.000  0.00  0.00    -0.082 Cl
ATOM     17  C   UNL     1       2.750   5.713   0.000  0.00  0.00    +0.007 A 
ENDBRANCH  10  11
ENDBRANCH   9  10
ENDBRANCH   3   4
BRANCH   1  18
ATOM     18  C   UNL     1       4.892   3.654   0.000  0.00  0.00    +0.201 C 
BRANCH  18  19
ATOM     19  N   UNL     1       5.608   3.242   0.000  0.00  0.00    -0.238 N 
ATOM     20  C   UNL     1       6.321   3.654   0.000  0.00  0.00    +0.294 A 
ATOM     21  O   UNL     1       6.321   4.475   0.000  0.00  0.00    -0.264 OA
ATOM     22  C   UNL     1       7.037   3.242   0.000  0.00  0.00    +0.213 A 
ATOM     23  F   UNL     1       7.750   3.654   0.000  0.00  0.00    -0.198 F 
ATOM     24  C   UNL     1       7.037   2.417   0.000  0.00  0.00    +0.116 A 
ATOM     25  N   UNL     1       6.321   2.004   0.000  0.00  0.00    -0.255 N 
ATOM     26  C   UNL     1       5.608   2.417   0.000  0.00  0.00    +0.336 A 
ATOM     27  O   UNL     1       4.892   2.004   0.000  0.00  0.00    -0.246 OA
BRANCH  25  28
ATOM     28  C   UNL     1       6.321   1.179   0.000  0.00  0.00    +0.208 C 
ATOM     29  C   UNL     1       6.987   0.692   0.000  0.00  0.00    +0.057 C 
ATOM     30  C   UNL     1       6.733  -0.092   0.000  0.00  0.00    +0.037 C 
ATOM     31  C   UNL     1       5.908  -0.092   0.000  0.00  0.00    +0.144 C 
ATOM     32  O   UNL     1       5.654   0.692   0.000  0.00  0.00    -0.335 OA
ENDBRANCH  25  28
ENDBRANCH  18  19
ENDBRANCH   1  18
TORSDOF 6
