REMARK  Name = 
REMARK  7 active torsions:
REMARK  status: ('A' for Active; 'I' for Inactive)
REMARK    1  A    between atoms: N_2  and  C_14
REMARK    2  A    between atoms: C_3  and  N_8
REMARK    3  A    between atoms: S_6  and  C_7
REMARK    4  A    between atoms: C_7  and  C_10
REMARK    5  A    between atoms: N_8  and  C_10
REMARK    6  A    between atoms: C_13  and  C_14
REMARK    7  A    between atoms: C_13  and  C_24
REMARK                            x       y       z     vdW  Elec       q    Type
REMARK                         _______ _______ _______ _____ _____    ______ ____
ROOT
ATOM      1  C   UNL     1       2.562   0.825   0.000  0.00  0.00    +0.149 A 
ATOM      2  N   UNL     1       1.779   1.083   0.000  0.00  0.00    -0.219 NA
ATOM      3  C   UNL     1       1.292   0.412   0.000  0.00  0.00    +0.180 A 
ATOM      4  N   UNL     1       1.779  -0.254   0.000  0.00  0.00    -0.294 N 
ATOM      5  C   UNL     1       2.562   0.000   0.000  0.00  0.00    +0.167 A 
ATOM      6  N   UNL     1       3.275  -0.412   0.000  0.00  0.00    -0.205 NA
ATOM      7  C   UNL     1       3.992   0.000   0.000  0.00  0.00    +0.201 A 
ATOM      8  N   UNL     1       3.992   0.825   0.000  0.00  0.00    -0.207 NA
ATOM      9  C   UNL     1       3.275   1.238   0.000  0.00  0.00    +0.154 A 
ENDROOT
BRANCH   9  10
ATOM     10  N   UNL     1       3.275   2.062   0.000  0.00  0.00    -0.290 N 
ATOM     11  C   UNL     1       2.562   2.475   0.000  0.00  0.00    +0.114 C 
BRANCH  10  12
ATOM     12  C   UNL     1       3.992   2.475   0.000  0.00  0.00    +0.096 C 
ATOM     13  C   UNL     1       4.704   2.062   0.000  0.00  0.00    +0.023 C 
BRANCH  12  14
ATOM     14  C   UNL     1       3.992   3.300   0.000  0.00  0.00    +0.147 C 
ATOM     15  C   UNL     1       3.275   3.712   0.000  0.00  0.00    +0.027 C 
BRANCH  14  16
ATOM     16  S   UNL     1       4.704   3.712   0.000  0.00  0.00    -0.008 S 
ATOM     17  C   UNL     1       5.117   3.000   0.000  0.00  0.00    +0.176 C 
ATOM     18  O   UNL     1       4.292   4.425   0.000  0.00  0.00    -0.173 OA
ATOM     19  O   UNL     1       5.421   4.125   0.000  0.00  0.00    -0.173 OA
ENDBRANCH  14  16
ENDBRANCH  12  14
ENDBRANCH  10  12
ENDBRANCH   9  10
BRANCH   4  20
ATOM     20  C   UNL     1       1.521  -1.038   0.000  0.00  0.00    +0.116 C 
BRANCH  20  21
ATOM     21  C   UNL     1       2.075  -1.650   0.000  0.00  0.00    +0.106 C 
ATOM     22  C   UNL     1       2.688  -1.100   0.000  0.00  0.00    +0.149 C 
ATOM     23  O   UNL     1       3.242  -1.712   0.000  0.00  0.00    -0.353 OA
ATOM     24  C   UNL     1       2.625  -2.263   0.000  0.00  0.00    +0.149 C 
BRANCH  21  25
ATOM     25  C   UNL     1       1.462  -2.204   0.000  0.00  0.00    +0.189 C 
ATOM     26  O   UNL     1       1.633  -3.008   0.000  0.00  0.00    -0.220 OA
ENDBRANCH  21  25
ENDBRANCH  20  21
ENDBRANCH   4  20
TORSDOF 7
