REMARK  Name = 
REMARK  6 active torsions:
REMARK  status: ('A' for Active; 'I' for Inactive)
REMARK    1  A    between atoms: O_2  and  C_3
REMARK    2  A    between atoms: C_3  and  C_4
REMARK    3  A    between atoms: C_4  and  N_5
REMARK    4  A    between atoms: C_6  and  S_7
REMARK    5  A    between atoms: S_7  and  C_8
REMARK    6  A    between atoms: C_8  and  C_9
REMARK                            x       y       z     vdW  Elec       q    Type
REMARK                         _______ _______ _______ _____ _____    ______ ____
ROOT
ATOM      1  N   UNL     1       0.325  -4.457   0.000  0.00  0.00    -0.304 N 
ATOM      2  C   UNL     1       0.580  -5.242   0.000  0.00  0.00    +0.079 A 
ATOM      3  C   UNL     1       1.405  -5.242   0.000  0.00  0.00    +0.099 A 
ATOM      4  C   UNL     1       1.817  -5.956   0.000  0.00  0.00    +0.021 A 
ATOM      5  C   UNL     1       1.405  -6.671   0.000  0.00  0.00    +0.002 A 
ATOM      6  C   UNL     1       0.580  -6.671   0.000  0.00  0.00    +0.002 A 
ATOM      7  N   UNL     1       1.659  -4.457   0.000  0.00  0.00    -0.221 NA
ATOM      8  C   UNL     1       0.167  -5.956   0.000  0.00  0.00    +0.019 A 
ATOM      9  C   UNL     1       0.992  -3.972   0.000  0.00  0.00    +0.172 A 
ENDROOT
BRANCH   1  10
ATOM     10  C   UNL     1      -0.460  -4.202   0.000  0.00  0.00    +0.140 C 
BRANCH  10  11
ATOM     11  C   UNL     1      -1.073  -4.754   0.000  0.00  0.00    +0.167 C 
BRANCH  11  13
ATOM     12  C   UNL     1      -2.471  -5.051   0.000  0.00  0.00    +0.174 C 
ATOM     13  O   UNL     1      -1.858  -4.499   0.000  0.00  0.00    -0.349 OA
ENDBRANCH  11  13
ENDBRANCH  10  11
ENDBRANCH   1  10
BRANCH   9  14
ATOM     14  S   UNL     1       0.992  -3.147   0.000  0.00  0.00    -0.067 S 
BRANCH  14  15
ATOM     15  C   UNL     1       1.706  -2.735   0.000  0.00  0.00    +0.152 C 
BRANCH  15  16
ATOM     16  C   UNL     1       2.421  -3.147   0.000  0.00  0.00    +0.258 C 
ATOM     17  N   UNL     1       3.135  -2.735   0.000  0.00  0.00    -0.156 NA
ATOM     18  C   UNL     1       3.850  -3.147   0.000  0.00  0.00    +0.196 A 
ATOM     19  N   UNL     1       3.936  -3.968   0.000  0.00  0.00    -0.060 NA
ATOM     20  O   UNL     1       4.743  -4.139   0.000  0.00  0.00    -0.356 OA
ATOM     21  C   UNL     1       5.156  -3.425   0.000  0.00  0.00    +0.156 A 
ATOM     22  C   UNL     1       5.976  -3.338   0.000  0.00  0.00    +0.075 C 
ATOM     23  C   UNL     1       4.604  -2.812   0.000  0.00  0.00    +0.075 A 
ATOM     24  O   UNL     1       2.421  -3.972   0.000  0.00  0.00    -0.272 OA
ENDBRANCH  15  16
ENDBRANCH  14  15
ENDBRANCH   9  14
TORSDOF 6
