REMARK  Name = 
REMARK  6 active torsions:
REMARK  status: ('A' for Active; 'I' for Inactive)
REMARK    1  A    between atoms: C_2  and  C_3
REMARK    2  A    between atoms: C_2  and  C_13
REMARK    3  A    between atoms: C_3  and  O_4
REMARK    4  A    between atoms: O_4  and  C_5
REMARK    5  A    between atoms: C_5  and  C_6
REMARK    6  A    between atoms: C_13  and  N_14
REMARK                            x       y       z     vdW  Elec       q    Type
REMARK                         _______ _______ _______ _____ _____    ______ ____
ROOT
ATOM      1  O   UNL     1       4.287  -4.950   0.000  0.00  0.00    -0.218 OA
ATOM      2  C   UNL     1       4.287  -4.125   0.000  0.00  0.00    +0.204 C 
ENDROOT
BRANCH   2   3
ATOM      3  C   UNL     1       5.001  -3.712   0.000  0.00  0.00    +0.146 C 
BRANCH   3   4
ATOM      4  N   UNL     1       5.716  -4.125   0.000  0.00  0.00    -0.275 N 
ATOM      5  C   UNL     1       5.716  -4.950   0.000  0.00  0.00    +0.353 A 
ATOM      6  O   UNL     1       5.001  -5.362   0.000  0.00  0.00    -0.244 OA
ATOM      7  N   UNL     1       6.430  -5.362   0.000  0.00  0.00    -0.152 NA
ATOM      8  C   UNL     1       7.145  -4.950   0.000  0.00  0.00    +0.295 A 
ATOM      9  O   UNL     1       7.859  -5.362   0.000  0.00  0.00    -0.264 OA
ATOM     10  C   UNL     1       7.145  -4.125   0.000  0.00  0.00    +0.133 A 
ATOM     11 CL   UNL     1       7.859  -3.712   0.000  0.00  0.00    -0.076 Cl
ATOM     12  C   UNL     1       6.430  -3.712   0.000  0.00  0.00    +0.096 A 
ENDBRANCH   3   4
ENDBRANCH   2   3
BRANCH   2  13
ATOM     13  C   UNL     1       3.572  -3.712   0.000  0.00  0.00    +0.177 C 
BRANCH  13  14
ATOM     14  O   UNL     1       2.858  -4.125   0.000  0.00  0.00    -0.346 OA
BRANCH  14  15
ATOM     15  C   UNL     1       2.143  -3.712   0.000  0.00  0.00    +0.169 C 
BRANCH  15  16
ATOM     16  C   UNL     1       1.429  -4.125   0.000  0.00  0.00    +0.007 A 
ATOM     17  C   UNL     1       0.715  -3.712   0.000  0.00  0.00    -0.001 A 
ATOM     18  C   UNL     1       0.000  -4.125   0.000  0.00  0.00    +0.011 A 
ATOM     19  C   UNL     1       0.000  -4.950   0.000  0.00  0.00    +0.058 A 
ATOM     20 CL   UNL     1      -0.715  -5.362   0.000  0.00  0.00    -0.082 Cl
ATOM     21  C   UNL     1       0.715  -5.362   0.000  0.00  0.00    +0.011 A 
ATOM     22  C   UNL     1       1.429  -4.950   0.000  0.00  0.00    -0.001 A 
ENDBRANCH  15  16
ENDBRANCH  14  15
ENDBRANCH  13  14
ENDBRANCH   2  13
TORSDOF 6
