REMARK  Name = 
REMARK  3 active torsions:
REMARK  status: ('A' for Active; 'I' for Inactive)
REMARK    1  A    between atoms: C_4  and  C_18
REMARK    2  A    between atoms: C_6  and  N_7
REMARK    3  A    between atoms: N_10  and  C_11
REMARK                            x       y       z     vdW  Elec       q    Type
REMARK                         _______ _______ _______ _____ _____    ______ ____
ROOT
ATOM      1  N   UNL     1      -1.021  -2.570   0.000  0.00  0.00    -0.142 NA
ATOM      2  C   UNL     1      -0.685  -1.816   0.000  0.00  0.00    +0.345 C 
ATOM      3  N   UNL     1      -1.170  -1.148   0.000  0.00  0.00    -0.190 NA
ATOM      4  O   UNL     1       0.135  -1.730   0.000  0.00  0.00    -0.249 OA
ENDROOT
BRANCH   3   5
ATOM      5  C   UNL     1      -0.835  -0.395   0.000  0.00  0.00    +0.085 C 
ATOM      6  C   UNL     1      -0.262   0.199   0.000  0.00  0.00    +0.052 C 
ATOM      7  C   UNL     1      -0.489   0.992   0.000  0.00  0.00    +0.144 C 
ATOM      8  O   UNL     1      -1.289   1.191   0.000  0.00  0.00    -0.354 OA
ATOM      9  C   UNL     1      -1.863   0.598   0.000  0.00  0.00    +0.144 C 
ATOM     10  C   UNL     1      -1.635  -0.195   0.000  0.00  0.00    +0.052 C 
ATOM     11  C   UNL     1      -0.151  -0.856   0.000  0.00  0.00    +0.022 C 
ENDBRANCH   3   5
BRANCH   1  14
ATOM     12  C   UNL     1       0.774  -2.570   0.000  0.00  0.00    +0.155 C 
ATOM     13  N   UNL     1       0.289  -3.237   0.000  0.00  0.00    -0.234 N 
ATOM     14  C   UNL     1      -0.536  -3.237   0.000  0.00  0.00    +0.154 A 
ATOM     15  C   UNL     1      -0.791  -4.022   0.000  0.00  0.00    +0.052 A 
ATOM     16  C   UNL     1      -0.123  -4.506   0.000  0.00  0.00    +0.081 A 
ATOM     17  N   UNL     1       0.544  -4.022   0.000  0.00  0.00    -0.172 NA
BRANCH  16  18
ATOM     18  C   UNL     1      -0.123  -5.332   0.000  0.00  0.00    +0.042 C 
ATOM     19  C   UNL     1      -0.707  -5.915   0.000  0.00  0.00    +0.006 C 
ATOM     20  C   UNL     1      -0.123  -6.498   0.000  0.00  0.00    +0.001 C 
ATOM     21  C   UNL     1       0.460  -5.915   0.000  0.00  0.00    +0.006 C 
ENDBRANCH  16  18
ENDBRANCH   1  14
TORSDOF 3
