REMARK  Name = 
REMARK  5 active torsions:
REMARK  status: ('A' for Active; 'I' for Inactive)
REMARK    1  A    between atoms: C_2  and  C_4
REMARK    2  A    between atoms: N_8  and  C_9
REMARK    3  A    between atoms: C_9  and  C_10
REMARK    4  A    between atoms: C_10  and  C_12
REMARK    5  A    between atoms: C_12  and  N_13
REMARK                            x       y       z     vdW  Elec       q    Type
REMARK                         _______ _______ _______ _____ _____    ______ ____
ROOT
ATOM      1  C   UNL     1       0.077  -2.321   0.000  0.00  0.00    +0.197 C 
ATOM      2  O   UNL     1      -0.475  -1.708   0.000  0.00  0.00    -0.219 OA
ENDROOT
BRANCH   1   3
ATOM      3  C   UNL     1      -0.178  -3.106   0.000  0.00  0.00    +0.145 C 
BRANCH   3   7
ATOM      4  C   UNL     1      -2.599  -3.621   0.000  0.00  0.00    +0.065 A 
ATOM      5  N   UNL     1      -2.047  -4.234   0.000  0.00  0.00    -0.230 NA
ATOM      6  C   UNL     1      -1.240  -4.062   0.000  0.00  0.00    +0.181 A 
ATOM      7  N   UNL     1      -0.985  -3.278   0.000  0.00  0.00    -0.276 N 
ATOM      8  C   UNL     1      -1.537  -2.665   0.000  0.00  0.00    +0.263 A 
ATOM      9  O   UNL     1      -1.282  -1.880   0.000  0.00  0.00    -0.267 OA
ATOM     10  C   UNL     1      -2.344  -2.836   0.000  0.00  0.00    +0.075 A 
BRANCH   4  12
ATOM     11  C   UNL     1      -3.661  -4.577   0.000  0.00  0.00    +0.006 C 
ATOM     12  C   UNL     1      -3.406  -3.792   0.000  0.00  0.00    +0.041 C 
ATOM     13  C   UNL     1      -3.958  -3.179   0.000  0.00  0.00    +0.006 C 
ENDBRANCH   4  12
ENDBRANCH   3   7
ENDBRANCH   1   3
BRANCH   1  14
ATOM     14  C   UNL     1       0.884  -2.150   0.000  0.00  0.00    +0.142 C 
BRANCH  14  15
ATOM     15  N   UNL     1       1.139  -1.365   0.000  0.00  0.00    -0.306 N 
ATOM     16  C   UNL     1       1.923  -1.110   0.000  0.00  0.00    +0.079 A 
ATOM     17  C   UNL     1       1.923  -0.285   0.000  0.00  0.00    +0.098 A 
ATOM     18  C   UNL     1       2.638   0.127   0.000  0.00  0.00    +0.016 A 
ATOM     19  C   UNL     1       3.352  -0.285   0.000  0.00  0.00    -0.024 A 
ATOM     20  C   UNL     1       3.352  -1.110   0.000  0.00  0.00    -0.024 A 
ATOM     21  C   UNL     1       4.067  -1.523   0.000  0.00  0.00    +0.031 C 
ATOM     22  C   UNL     1       4.067   0.127   0.000  0.00  0.00    +0.031 C 
ATOM     23  N   UNL     1       1.139  -0.030   0.000  0.00  0.00    -0.224 NA
ATOM     24  C   UNL     1       2.638  -1.523   0.000  0.00  0.00    +0.014 A 
ATOM     25  C   UNL     1       0.654  -0.698   0.000  0.00  0.00    +0.179 A 
ENDBRANCH  14  15
ENDBRANCH   1  14
TORSDOF 5
