REMARK  Name = 
REMARK  5 active torsions:
REMARK  status: ('A' for Active; 'I' for Inactive)
REMARK    1  A    between atoms: C_2  and  C_3
REMARK    2  A    between atoms: C_2  and  C_12
REMARK    3  A    between atoms: C_3  and  O_4
REMARK    4  A    between atoms: O_4  and  C_5
REMARK    5  A    between atoms: C_12  and  N_13
REMARK                            x       y       z     vdW  Elec       q    Type
REMARK                         _______ _______ _______ _____ _____    ______ ____
ROOT
ATOM      1  O   UNL     1       4.923   0.415   0.000  0.00  0.00    -0.217 OA
ATOM      2  C   UNL     1       4.923  -0.410   0.000  0.00  0.00    +0.218 C 
ENDROOT
BRANCH   2   3
ATOM      3  C   UNL     1       5.637  -0.822   0.000  0.00  0.00    +0.144 C 
BRANCH   3   4
ATOM      4  N   UNL     1       6.351  -0.410   0.000  0.00  0.00    -0.306 N 
ATOM      5  C   UNL     1       7.105  -0.745   0.000  0.00  0.00    +0.079 A 
ATOM      6  C   UNL     1       7.657  -0.132   0.000  0.00  0.00    +0.099 A 
ATOM      7  C   UNL     1       8.464  -0.304   0.000  0.00  0.00    +0.021 A 
ATOM      8  C   UNL     1       8.719  -1.088   0.000  0.00  0.00    +0.002 A 
ATOM      9  C   UNL     1       8.167  -1.701   0.000  0.00  0.00    +0.002 A 
ATOM     10  N   UNL     1       7.245   0.582   0.000  0.00  0.00    -0.224 NA
ATOM     11  C   UNL     1       7.360  -1.530   0.000  0.00  0.00    +0.019 A 
ATOM     12  C   UNL     1       6.438   0.411   0.000  0.00  0.00    +0.179 A 
ENDBRANCH   3   4
ENDBRANCH   2   3
BRANCH   2  13
ATOM     13  C   UNL     1       4.208  -0.822   0.000  0.00  0.00    +0.240 C 
BRANCH  13  14
ATOM     14  O   UNL     1       3.494  -0.410   0.000  0.00  0.00    -0.473 OA
BRANCH  14  15
ATOM     15  C   UNL     1       2.779  -0.822   0.000  0.00  0.00    +0.139 A 
ATOM     16  C   UNL     1       2.065  -0.410   0.000  0.00  0.00    +0.039 A 
ATOM     17  C   UNL     1       1.350  -0.822   0.000  0.00  0.00    +0.033 A 
ATOM     18  C   UNL     1       1.350  -1.647   0.000  0.00  0.00    +0.140 A 
ATOM     19  F   UNL     1       0.636  -2.060   0.000  0.00  0.00    -0.204 F 
ATOM     20  C   UNL     1       2.065  -2.060   0.000  0.00  0.00    +0.033 A 
ATOM     21  C   UNL     1       2.779  -1.647   0.000  0.00  0.00    +0.039 A 
ENDBRANCH  14  15
ENDBRANCH  13  14
ENDBRANCH   2  13
TORSDOF 5
