REMARK  Name = 
REMARK  6 active torsions:
REMARK  status: ('A' for Active; 'I' for Inactive)
REMARK    1  A    between atoms: O_2  and  C_3
REMARK    2  A    between atoms: C_3  and  C_4
REMARK    3  A    between atoms: C_4  and  O_5
REMARK    4  A    between atoms: O_5  and  C_6
REMARK    5  A    between atoms: C_6  and  C_7
REMARK    6  A    between atoms: N_9  and  C_10
REMARK                            x       y       z     vdW  Elec       q    Type
REMARK                         _______ _______ _______ _____ _____    ______ ____
ROOT
ATOM      1  C   UNL     1       7.859  -7.838   0.000  0.00  0.00    +0.093 A 
ATOM      2  C   UNL     1       7.859  -8.662   0.000  0.00  0.00    +0.117 A 
ATOM      3  N   UNL     1       8.574  -9.075   0.000  0.00  0.00    -0.228 NA
ATOM      4  C   UNL     1       9.288  -8.662   0.000  0.00  0.00    +0.132 A 
ATOM      5  N   UNL     1      10.003  -9.075   0.000  0.00  0.00    -0.293 N 
ATOM      6  C   UNL     1      10.003  -9.900   0.000  0.00  0.00    +0.092 C 
ATOM      7  C   UNL     1      10.717 -10.312   0.000  0.00  0.00    +0.022 C 
ATOM      8  C   UNL     1      11.431  -9.900   0.000  0.00  0.00    +0.004 C 
ATOM      9  C   UNL     1      11.431  -9.075   0.000  0.00  0.00    +0.022 C 
ATOM     10  C   UNL     1      10.717  -8.662   0.000  0.00  0.00    +0.092 C 
ATOM     11  C   UNL     1       9.288  -7.838   0.000  0.00  0.00    +0.036 A 
ATOM     12  C   UNL     1       8.574  -7.425   0.000  0.00  0.00    +0.021 A 
ENDROOT
BRANCH   1  14
ATOM     13  C   UNL     1       6.430  -7.838   0.000  0.00  0.00    +0.276 C 
ATOM     14  N   UNL     1       7.145  -7.425   0.000  0.00  0.00    -0.176 NA
ATOM     15  O   UNL     1       6.430  -8.662   0.000  0.00  0.00    -0.270 OA
BRANCH  13  16
ATOM     16  C   UNL     1       5.716  -7.425   0.000  0.00  0.00    +0.229 C 
BRANCH  16  17
ATOM     17  O   UNL     1       5.001  -7.838   0.000  0.00  0.00    -0.342 OA
BRANCH  17  18
ATOM     18  C   UNL     1       4.287  -7.425   0.000  0.00  0.00    +0.175 C 
BRANCH  18  19
ATOM     19  C   UNL     1       3.572  -7.838   0.000  0.00  0.00    +0.174 C 
BRANCH  19  21
ATOM     20  C   UNL     1       2.143  -7.838   0.000  0.00  0.00    +0.174 C 
ATOM     21  O   UNL     1       2.858  -7.425   0.000  0.00  0.00    -0.348 OA
ENDBRANCH  19  21
ENDBRANCH  18  19
ENDBRANCH  17  18
ENDBRANCH  16  17
ENDBRANCH  13  16
ENDBRANCH   1  14
TORSDOF 6
