REMARK  Name = 
REMARK  5 active torsions:
REMARK  status: ('A' for Active; 'I' for Inactive)
REMARK    1  A    between atoms: C_2  and  O_3
REMARK    2  A    between atoms: C_2  and  C_8
REMARK    3  A    between atoms: O_3  and  C_4
REMARK    4  A    between atoms: C_4  and  C_5
REMARK    5  A    between atoms: N_10  and  C_11
REMARK                            x       y       z     vdW  Elec       q    Type
REMARK                         _______ _______ _______ _____ _____    ______ ____
ROOT
ATOM      1  C   UNL     1       4.287  -4.125   0.000  0.00  0.00    +0.274 C 
ATOM      2  N   UNL     1       5.001  -3.712   0.000  0.00  0.00    -0.155 NA
ATOM      3  O   UNL     1       4.287  -4.950   0.000  0.00  0.00    -0.270 OA
ENDROOT
BRANCH   2   4
ATOM      4  C   UNL     1       5.716  -4.125   0.000  0.00  0.00    +0.194 A 
ATOM      5  C   UNL     1       5.716  -4.950   0.000  0.00  0.00    +0.229 A 
ATOM      6  O   UNL     1       5.001  -5.362   0.000  0.00  0.00    -0.284 OA
ATOM      7  C   UNL     1       6.430  -5.362   0.000  0.00  0.00    +0.047 A 
ATOM      8  C   UNL     1       7.145  -4.950   0.000  0.00  0.00    +0.024 A 
ATOM      9  C   UNL     1       7.145  -4.125   0.000  0.00  0.00    +0.101 A 
ATOM     10  N   UNL     1       6.430  -3.712   0.000  0.00  0.00    -0.224 NA
ENDBRANCH   2   4
BRANCH   1  12
ATOM     11  C   UNL     1       3.572  -2.888   0.000  0.00  0.00    +0.042 C 
ATOM     12  C   UNL     1       3.572  -3.712   0.000  0.00  0.00    +0.193 C 
BRANCH  12  13
ATOM     13  O   UNL     1       2.858  -4.125   0.000  0.00  0.00    -0.347 OA
BRANCH  13  14
ATOM     14  C   UNL     1       2.143  -3.712   0.000  0.00  0.00    +0.143 C 
BRANCH  14  15
ATOM     15  C   UNL     1       1.429  -4.125   0.000  0.00  0.00    +0.030 C 
ATOM     16  C   UNL     1       0.604  -4.125   0.000  0.00  0.00    +0.003 C 
ATOM     17  C   UNL     1       1.016  -4.840   0.000  0.00  0.00    +0.003 C 
ENDBRANCH  14  15
ENDBRANCH  13  14
ENDBRANCH  12  13
ENDBRANCH   1  12
TORSDOF 5
