REMARK  Name = 
REMARK  6 active torsions:
REMARK  status: ('A' for Active; 'I' for Inactive)
REMARK    1  A    between atoms: C_2  and  C_4
REMARK    2  A    between atoms: C_4  and  N_5
REMARK    3  A    between atoms: C_9  and  C_10
REMARK    4  A    between atoms: C_10  and  N_11
REMARK    5  A    between atoms: C_12  and  C_14
REMARK    6  A    between atoms: C_14  and  N_15
REMARK                            x       y       z     vdW  Elec       q    Type
REMARK                         _______ _______ _______ _____ _____    ______ ____
ROOT
ATOM      1  N   UNL     1       1.429  -2.475   0.000  0.00  0.00    -0.201 NA
ATOM      2  C   UNL     1       2.143  -2.888   0.000  0.00  0.00    +0.265 C 
ATOM      3  O   UNL     1       2.143  -3.712   0.000  0.00  0.00    -0.271 OA
ENDROOT
BRANCH   2   4
ATOM      4  C   UNL     1       2.858  -2.475   0.000  0.00  0.00    +0.197 C 
BRANCH   4   5
ATOM      5  N   UNL     1       3.572  -2.888   0.000  0.00  0.00    -0.271 N 
ATOM      6  C   UNL     1       3.572  -3.712   0.000  0.00  0.00    +0.334 A 
ATOM      7  O   UNL     1       2.858  -4.125   0.000  0.00  0.00    -0.246 OA
ATOM      8  N   UNL     1       4.287  -4.125   0.000  0.00  0.00    -0.247 N 
ATOM      9  C   UNL     1       4.287  -4.950   0.000  0.00  0.00    +0.138 C 
ATOM     10  C   UNL     1       5.001  -3.712   0.000  0.00  0.00    +0.266 A 
ATOM     11  O   UNL     1       5.716  -4.125   0.000  0.00  0.00    -0.267 OA
ATOM     12  C   UNL     1       5.001  -2.888   0.000  0.00  0.00    +0.080 A 
ATOM     13  C   UNL     1       4.287  -2.475   0.000  0.00  0.00    +0.085 A 
ENDBRANCH   4   5
ENDBRANCH   2   4
BRANCH   1  14
ATOM     14  C   UNL     1       0.715  -2.888   0.000  0.00  0.00    +0.146 C 
BRANCH  14  17
ATOM     15  N   UNL     1      -1.429  -2.475   0.000  0.00  0.00    -0.268 NA
ATOM     16  C   UNL     1      -0.715  -2.888   0.000  0.00  0.00    +0.104 C 
ATOM     17  C   UNL     1       0.000  -2.475   0.000  0.00  0.00    +0.153 C 
ATOM     18  O   UNL     1       0.000  -1.650   0.000  0.00  0.00    -0.352 OA
ATOM     19  C   UNL     1      -0.715  -1.238   0.000  0.00  0.00    +0.159 C 
ATOM     20  C   UNL     1      -1.429  -1.650   0.000  0.00  0.00    +0.105 C 
BRANCH  15  21
ATOM     21  C   UNL     1      -2.143  -2.888   0.000  0.00  0.00    +0.072 C 
BRANCH  21  23
ATOM     22  C   UNL     1      -3.572  -2.888   0.000  0.00  0.00    +0.001 C 
ATOM     23  C   UNL     1      -2.858  -2.475   0.000  0.00  0.00    +0.016 C 
ATOM     24  C   UNL     1      -2.858  -1.650   0.000  0.00  0.00    +0.001 C 
ENDBRANCH  21  23
ENDBRANCH  15  21
ENDBRANCH  14  17
ENDBRANCH   1  14
TORSDOF 6
