REMARK  Name = 
REMARK  5 active torsions:
REMARK  status: ('A' for Active; 'I' for Inactive)
REMARK    1  A    between atoms: C_2  and  C_4
REMARK    2  A    between atoms: C_4  and  O_5
REMARK    3  A    between atoms: C_4  and  C_12
REMARK    4  A    between atoms: O_5  and  C_6
REMARK    5  A    between atoms: C_6  and  C_7
REMARK                            x       y       z     vdW  Elec       q    Type
REMARK                         _______ _______ _______ _____ _____    ______ ____
ROOT
ATOM      1  C   UNL     1       3.572  -3.712   0.000  0.00  0.00    +0.193 C 
ENDROOT
BRANCH   1   2
ATOM      2  C   UNL     1       4.287  -4.125   0.000  0.00  0.00    +0.274 C 
ATOM      3  N   UNL     1       5.001  -3.712   0.000  0.00  0.00    -0.158 NA
ATOM      4  C   UNL     1       5.716  -4.125   0.000  0.00  0.00    +0.155 A 
ATOM      5  N   UNL     1       5.716  -4.950   0.000  0.00  0.00    -0.227 NA
ATOM      6  C   UNL     1       6.430  -5.362   0.000  0.00  0.00    +0.100 A 
ATOM      7  C   UNL     1       7.145  -4.950   0.000  0.00  0.00    +0.021 A 
ATOM      8  C   UNL     1       7.145  -4.125   0.000  0.00  0.00    +0.005 A 
ATOM      9  C   UNL     1       6.430  -3.712   0.000  0.00  0.00    +0.036 A 
ATOM     10  O   UNL     1       4.287  -4.950   0.000  0.00  0.00    -0.270 OA
ENDBRANCH   1   2
BRANCH   1  12
ATOM     11  C   UNL     1       4.287  -2.475   0.000  0.00  0.00    +0.003 C 
ATOM     12  C   UNL     1       3.572  -2.888   0.000  0.00  0.00    +0.036 C 
ATOM     13  C   UNL     1       2.858  -2.475   0.000  0.00  0.00    +0.003 C 
ENDBRANCH   1  12
BRANCH   1  14
ATOM     14  O   UNL     1       2.858  -4.125   0.000  0.00  0.00    -0.344 OA
BRANCH  14  15
ATOM     15  C   UNL     1       2.143  -3.712   0.000  0.00  0.00    +0.172 C 
BRANCH  15  16
ATOM     16  C   UNL     1       1.429  -4.125   0.000  0.00  0.00    +0.145 C 
ATOM     17  O   UNL     1       0.675  -3.789   0.000  0.00  0.00    -0.354 OA
ATOM     18  C   UNL     1       0.123  -4.402   0.000  0.00  0.00    +0.142 C 
ATOM     19  C   UNL     1       0.536  -5.117   0.000  0.00  0.00    +0.035 C 
ATOM     20  C   UNL     1       1.343  -4.946   0.000  0.00  0.00    +0.035 C 
ENDBRANCH  15  16
ENDBRANCH  14  15
ENDBRANCH   1  14
TORSDOF 5
