REMARK  Name = 
REMARK  5 active torsions:
REMARK  status: ('A' for Active; 'I' for Inactive)
REMARK    1  A    between atoms: O_2  and  C_3
REMARK    2  A    between atoms: C_3  and  C_4
REMARK    3  A    between atoms: C_4  and  N_5
REMARK    4  A    between atoms: C_9  and  S_12
REMARK    5  A    between atoms: S_12  and  N_15
REMARK                            x       y       z     vdW  Elec       q    Type
REMARK                         _______ _______ _______ _____ _____    ______ ____
ROOT
ATOM      1  N   UNL     1       2.858  -5.775   0.000  0.00  0.00    -0.218 NA
ATOM      2  C   UNL     1       3.572  -6.188   0.000  0.00  0.00    +0.148 A 
ATOM      3  N   UNL     1       3.572  -7.013   0.000  0.00  0.00    -0.226 NA
ATOM      4  C   UNL     1       4.287  -7.425   0.000  0.00  0.00    +0.120 A 
ATOM      5  C   UNL     1       5.001  -7.013   0.000  0.00  0.00    +0.141 A 
ATOM      6  C   UNL     1       5.001  -6.188   0.000  0.00  0.00    +0.024 A 
ATOM      7  C   UNL     1       4.287  -5.775   0.000  0.00  0.00    +0.037 A 
ENDROOT
BRANCH   5   8
ATOM      8  S   UNL     1       5.716  -7.425   0.000  0.00  0.00    +0.065 S 
ATOM      9  O   UNL     1       6.128  -6.710   0.000  0.00  0.00    -0.153 OA
ATOM     10  O   UNL     1       5.303  -8.139   0.000  0.00  0.00    -0.153 OA
BRANCH   8  11
ATOM     11  N   UNL     1       6.430  -7.838   0.000  0.00  0.00    -0.153 NA
ATOM     12  C   UNL     1       6.430  -8.662   0.000  0.00  0.00    +0.113 C 
ATOM     13  C   UNL     1       7.145  -9.075   0.000  0.00  0.00    +0.092 C 
ATOM     14  N   UNL     1       7.859  -8.662   0.000  0.00  0.00    -0.269 NA
ATOM     15  C   UNL     1       8.574  -9.075   0.000  0.00  0.00    +0.090 C 
ATOM     16  C   UNL     1       7.859  -7.838   0.000  0.00  0.00    +0.092 C 
ATOM     17  C   UNL     1       7.145  -7.425   0.000  0.00  0.00    +0.113 C 
ENDBRANCH   8  11
ENDBRANCH   5   8
BRANCH   1  18
ATOM     18  C   UNL     1       2.143  -6.188   0.000  0.00  0.00    +0.146 C 
BRANCH  18  19
ATOM     19  C   UNL     1       1.429  -5.775   0.000  0.00  0.00    +0.166 C 
BRANCH  19  21
ATOM     20  C   UNL     1       0.000  -5.775   0.000  0.00  0.00    +0.174 C 
ATOM     21  O   UNL     1       0.715  -6.188   0.000  0.00  0.00    -0.349 OA
ENDBRANCH  19  21
ENDBRANCH  18  19
ENDBRANCH   1  18
TORSDOF 5
