REMARK  Name = 
REMARK  3 active torsions:
REMARK  status: ('A' for Active; 'I' for Inactive)
REMARK    1  A    between atoms: C_2  and  N_3
REMARK    2  A    between atoms: C_5  and  N_6
REMARK    3  A    between atoms: N_9  and  C_10
REMARK                            x       y       z     vdW  Elec       q    Type
REMARK                         _______ _______ _______ _____ _____    ______ ____
ROOT
ATOM      1  N   UNL     1       2.899  -4.958   0.000  0.00  0.00    -0.158 NA
ATOM      2  C   UNL     1       2.564  -5.712   0.000  0.00  0.00    +0.344 C 
ATOM      3  N   UNL     1       3.049  -6.379   0.000  0.00  0.00    -0.189 NA
ATOM      4  O   UNL     1       1.743  -5.798   0.000  0.00  0.00    -0.249 OA
ENDROOT
BRANCH   3   5
ATOM      5  C   UNL     1       2.713  -7.133   0.000  0.00  0.00    +0.097 C 
ATOM      6  C   UNL     1       1.888  -7.157   0.000  0.00  0.00    +0.022 C 
ATOM      7  C   UNL     1       1.394  -7.817   0.000  0.00  0.00    +0.002 C 
ATOM      8  C   UNL     1       1.601  -8.616   0.000  0.00  0.00    +0.000 C 
ATOM      9  C   UNL     1       2.355  -8.951   0.000  0.00  0.00    +0.000 C 
ATOM     10  C   UNL     1       3.087  -8.571   0.000  0.00  0.00    +0.002 C 
ATOM     11  C   UNL     1       3.247  -7.762   0.000  0.00  0.00    +0.022 C 
ENDBRANCH   3   5
BRANCH   1  15
ATOM     12  N   UNL     1       2.002  -3.021   0.000  0.00  0.00    -0.248 N 
ATOM     13  N   UNL     1       1.334  -3.506   0.000  0.00  0.00    -0.166 NA
ATOM     14  C   UNL     1       1.589  -4.290   0.000  0.00  0.00    +0.138 A 
ATOM     15  C   UNL     1       2.414  -4.290   0.000  0.00  0.00    +0.114 A 
ATOM     16  C   UNL     1       2.669  -3.506   0.000  0.00  0.00    +0.113 A 
BRANCH  12  18
ATOM     17  C   UNL     1       1.287  -1.783   0.000  0.00  0.00    +0.028 C 
ATOM     18  C   UNL     1       2.002  -2.196   0.000  0.00  0.00    +0.128 C 
ENDBRANCH  12  18
ENDBRANCH   1  15
TORSDOF 3
