REMARK  Name = 
REMARK  1 active torsions:
REMARK  status: ('A' for Active; 'I' for Inactive)
REMARK    1  A    between atoms: N_9  and  C_10
REMARK                            x       y       z     vdW  Elec       q    Type
REMARK                         _______ _______ _______ _____ _____    ______ ____
ROOT
ATOM      1  C   UNL     1      -2.693  -4.558   0.000  0.00  0.00    +0.061 C 
ATOM      2  C   UNL     1      -2.141  -3.945   0.000  0.00  0.00    +0.113 A 
ATOM      3  S   UNL     1      -1.321  -4.031   0.000  0.00  0.00    -0.033 S 
ATOM      4  C   UNL     1      -0.985  -3.278   0.000  0.00  0.00    +0.209 A 
ATOM      5  N   UNL     1      -0.178  -3.106   0.000  0.00  0.00    -0.134 NA
ATOM      6  C   UNL     1       0.077  -2.321   0.000  0.00  0.00    +0.345 C 
ATOM      7  N   UNL     1       0.884  -2.150   0.000  0.00  0.00    -0.187 NA
ATOM      8  O   UNL     1      -0.475  -1.708   0.000  0.00  0.00    -0.249 OA
ATOM      9  N   UNL     1      -1.598  -2.726   0.000  0.00  0.00    -0.124 NA
ATOM     10  N   UNL     1      -2.313  -3.138   0.000  0.00  0.00    -0.144 NA
ENDROOT
BRANCH   7  11
ATOM     11  C   UNL     1       1.139  -1.365   0.000  0.00  0.00    +0.113 C 
ATOM     12  C   UNL     1       1.923  -1.110   0.000  0.00  0.00    +0.078 C 
ATOM     13  N   UNL     1       1.923  -0.285   0.000  0.00  0.00    -0.272 NA
ATOM     14  C   UNL     1       2.638   0.127   0.000  0.00  0.00    +0.072 C 
ATOM     15  C   UNL     1       3.352  -0.285   0.000  0.00  0.00    +0.017 C 
ATOM     16  C   UNL     1       3.352  -1.110   0.000  0.00  0.00    +0.003 C 
ATOM     17  C   UNL     1       1.139  -0.030   0.000  0.00  0.00    +0.074 C 
ATOM     18  C   UNL     1       2.638  -1.523   0.000  0.00  0.00    +0.018 C 
ATOM     19  C   UNL     1       0.654  -0.698   0.000  0.00  0.00    +0.040 C 
ENDBRANCH   7  11
TORSDOF 1
