REMARK  Name = 
REMARK  6 active torsions:
REMARK  status: ('A' for Active; 'I' for Inactive)
REMARK    1  A    between atoms: C_2  and  N_3
REMARK    2  A    between atoms: C_2  and  C_14
REMARK    3  A    between atoms: C_2  and  C_16
REMARK    4  A    between atoms: C_4  and  C_6
REMARK    5  A    between atoms: C_6  and  N_7
REMARK    6  A    between atoms: C_10  and  C_11
REMARK                            x       y       z     vdW  Elec       q    Type
REMARK                         _______ _______ _______ _____ _____    ______ ____
ROOT
ATOM      1  N   UNL     1       1.813  -2.139   0.000  0.00  0.00    -0.193 NA
ATOM      2  C   UNL     1       1.400  -1.424   0.000  0.00  0.00    +0.267 C 
ATOM      3  O   UNL     1       1.813  -0.710   0.000  0.00  0.00    -0.271 OA
ENDROOT
BRANCH   1   5
ATOM      4  C   UNL     1       2.638  -1.314   0.000  0.00  0.00    +0.037 C 
ATOM      5  C   UNL     1       2.638  -2.139   0.000  0.00  0.00    +0.157 C 
BRANCH   5   6
ATOM      6  C   UNL     1       2.638  -2.964   0.000  0.00  0.00    +0.032 C 
ATOM      7  C   UNL     1       2.225  -3.678   0.000  0.00  0.00    +0.003 C 
ATOM      8  C   UNL     1       3.050  -3.678   0.000  0.00  0.00    +0.003 C 
ENDBRANCH   5   6
BRANCH   5   9
ATOM      9  C   UNL     1       3.463  -2.139   0.000  0.00  0.00    +0.091 C 
ATOM     10  N   UNL     1       4.288  -2.139   0.000  0.00  0.00    -0.194 NA
ENDBRANCH   5   9
ENDBRANCH   1   5
BRANCH   2  11
ATOM     11  C   UNL     1       0.575  -1.424   0.000  0.00  0.00    +0.215 C 
BRANCH  11  12
ATOM     12  N   UNL     1       0.163  -0.710   0.000  0.00  0.00    -0.220 N 
ATOM     13  N   UNL     1       0.498   0.044   0.000  0.00  0.00    -0.137 NA
ATOM     14  C   UNL     1      -0.115   0.596   0.000  0.00  0.00    +0.252 A 
ATOM     15  N   UNL     1      -0.829   0.183   0.000  0.00  0.00    -0.195 NA
ATOM     16  C   UNL     1      -0.658  -0.624   0.000  0.00  0.00    +0.198 A 
BRANCH  14  17
ATOM     17  C   UNL     1      -0.028   1.416   0.000  0.00  0.00    +0.142 C 
ATOM     18  N   UNL     1       0.058   2.237   0.000  0.00  0.00    -0.188 NA
ENDBRANCH  14  17
ENDBRANCH  11  12
ENDBRANCH   2  11
TORSDOF 6
