REMARK  Name = 
REMARK  5 active torsions:
REMARK  status: ('A' for Active; 'I' for Inactive)
REMARK    1  A    between atoms: O_2  and  C_3
REMARK    2  A    between atoms: C_3  and  C_4
REMARK    3  A    between atoms: C_4  and  N_5
REMARK    4  A    between atoms: C_9  and  N_10
REMARK    5  A    between atoms: N_13  and  C_14
REMARK                            x       y       z     vdW  Elec       q    Type
REMARK                         _______ _______ _______ _____ _____    ______ ____
ROOT
ATOM      1  N   UNL     1      -2.037  -1.299   0.000  0.00  0.00    -0.251 N 
ATOM      2  C   UNL     1      -2.704  -1.784   0.000  0.00  0.00    +0.073 A 
ATOM      3  C   UNL     1      -3.489  -1.529   0.000  0.00  0.00    +0.053 C 
ATOM      4  C   UNL     1      -2.449  -2.569   0.000  0.00  0.00    +0.103 A 
ATOM      5  C   UNL     1      -1.624  -2.569   0.000  0.00  0.00    +0.095 A 
ATOM      6  C   UNL     1      -1.139  -3.236   0.000  0.00  0.00    +0.055 C 
ATOM      7  N   UNL     1      -1.369  -1.784   0.000  0.00  0.00    -0.173 NA
ENDROOT
BRANCH   4   8
ATOM      8  N   UNL     1      -2.934  -3.236   0.000  0.00  0.00    -0.159 NA
ATOM      9  C   UNL     1      -3.755  -3.150   0.000  0.00  0.00    +0.344 C 
ATOM     10  N   UNL     1      -4.239  -3.817   0.000  0.00  0.00    -0.189 NA
ATOM     11  O   UNL     1      -4.090  -2.396   0.000  0.00  0.00    -0.249 OA
BRANCH  10  12
ATOM     12  C   UNL     1      -3.904  -4.571   0.000  0.00  0.00    +0.097 C 
ATOM     13  C   UNL     1      -4.389  -5.238   0.000  0.00  0.00    +0.022 C 
ATOM     14  C   UNL     1      -4.053  -5.992   0.000  0.00  0.00    +0.002 C 
ATOM     15  C   UNL     1      -3.233  -6.078   0.000  0.00  0.00    +0.000 C 
ATOM     16  C   UNL     1      -2.748  -5.411   0.000  0.00  0.00    +0.002 C 
ATOM     17  C   UNL     1      -3.083  -4.657   0.000  0.00  0.00    +0.022 C 
ENDBRANCH  10  12
ENDBRANCH   4   8
BRANCH   1  18
ATOM     18  C   UNL     1      -2.037  -0.474   0.000  0.00  0.00    +0.159 C 
BRANCH  18  19
ATOM     19  C   UNL     1      -1.322  -0.062   0.000  0.00  0.00    +0.169 C 
BRANCH  19  21
ATOM     20  C   UNL     1      -0.608   1.176   0.000  0.00  0.00    +0.174 C 
ATOM     21  O   UNL     1      -1.322   0.763   0.000  0.00  0.00    -0.349 OA
ENDBRANCH  19  21
ENDBRANCH  18  19
ENDBRANCH   1  18
TORSDOF 5
