REMARK  Name = 
REMARK  2 active torsions:
REMARK  status: ('A' for Active; 'I' for Inactive)
REMARK    1  A    between atoms: C_4  and  C_13
REMARK    2  A    between atoms: C_5  and  C_10
REMARK                            x       y       z     vdW  Elec       q    Type
REMARK                         _______ _______ _______ _____ _____    ______ ____
ROOT
ATOM      1 CL   UNL     1       0.000   0.000   0.000  0.00  0.00    +0.000 Cl
ENDROOT
TORSDOF 0
REMARK  Name = 
REMARK  2 active torsions:
REMARK  status: ('A' for Active; 'I' for Inactive)
REMARK    1  A    between atoms: C_4  and  C_13
REMARK    2  A    between atoms: C_5  and  C_10
REMARK                            x       y       z     vdW  Elec       q    Type
REMARK                         _______ _______ _______ _____ _____    ______ ____
ROOT
ATOM      1  C   UNL     1       3.220   1.524   0.000  0.00  0.00    +0.115 C 
ATOM      2  N   UNL     1       3.220   0.699   0.000  0.00  0.00    -0.273 N 
ATOM      3  C   UNL     1       2.553   0.214   0.000  0.00  0.00    +0.257 C 
ATOM      4  O   UNL     1       1.768   0.469   0.000  0.00  0.00    -0.272 OA
ATOM      5  C   UNL     1       2.807  -0.571   0.000  0.00  0.00    +0.240 C 
ATOM      6  O   UNL     1       2.322  -1.238   0.000  0.00  0.00    -0.213 OA
ATOM      7  C   UNL     1       3.632  -0.571   0.000  0.00  0.00    +0.165 C 
ATOM      8  C   UNL     1       3.887   0.214   0.000  0.00  0.00    +0.115 C 
ENDROOT
BRANCH   8   9
ATOM      9  C   UNL     1       4.672   0.469   0.000  0.00  0.00    +0.036 A 
ATOM     10  C   UNL     1       5.339  -0.016   0.000  0.00  0.00    +0.094 A 
ATOM     11  N   UNL     1       6.007   0.469   0.000  0.00  0.00    -0.248 N 
ATOM     12  C   UNL     1       6.792   0.214   0.000  0.00  0.00    +0.154 C 
ATOM     13  N   UNL     1       5.752   1.254   0.000  0.00  0.00    -0.168 NA
ATOM     14  C   UNL     1       4.927   1.254   0.000  0.00  0.00    +0.119 A 
ENDBRANCH   8   9
BRANCH   7  15
ATOM     15  C   UNL     1       4.117  -1.238   0.000  0.00  0.00    +0.369 C 
ATOM     16  O   UNL     1       4.938  -1.152   0.000  0.00  0.00    -0.245 OA
ATOM     17  O   UNL     1       3.782  -1.992   0.000  0.00  0.00    -0.245 OA
ENDBRANCH   7  15
TORSDOF 2
