REMARK  Name = 
REMARK  7 active torsions:
REMARK  status: ('A' for Active; 'I' for Inactive)
REMARK    1  A    between atoms: N_2  and  C_10
REMARK    2  A    between atoms: C_5  and  N_7
REMARK    3  A    between atoms: C_10  and  C_11
REMARK    4  A    between atoms: C_11  and  C_15
REMARK    5  A    between atoms: N_12  and  C_18
REMARK    6  A    between atoms: C_18  and  C_23
REMARK    7  A    between atoms: N_19  and  C_23
REMARK                            x       y       z     vdW  Elec       q    Type
REMARK                         _______ _______ _______ _____ _____    ______ ____
ROOT
ATOM      1  C   UNL     1       2.563   0.825   0.000  0.00  0.00    +0.149 A 
ATOM      2  C   UNL     1       3.276   1.238   0.000  0.00  0.00    +0.154 A 
ATOM      3  N   UNL     1       3.992   0.825   0.000  0.00  0.00    -0.207 NA
ATOM      4  C   UNL     1       3.992   0.000   0.000  0.00  0.00    +0.201 A 
ATOM      5  N   UNL     1       3.276  -0.413   0.000  0.00  0.00    -0.205 NA
ATOM      6  N   UNL     1       1.780   1.083   0.000  0.00  0.00    -0.219 NA
ATOM      7  C   UNL     1       1.292   0.413   0.000  0.00  0.00    +0.180 A 
ATOM      8  N   UNL     1       1.780  -0.254   0.000  0.00  0.00    -0.292 N 
ATOM      9  C   UNL     1       2.563   0.000   0.000  0.00  0.00    +0.167 A 
ENDROOT
BRANCH   2  10
ATOM     10  N   UNL     1       3.276   2.063   0.000  0.00  0.00    -0.290 N 
ATOM     11  C   UNL     1       4.021   2.421   0.000  0.00  0.00    +0.094 C 
ATOM     12  C   UNL     1       4.205   3.226   0.000  0.00  0.00    +0.039 C 
ATOM     13  C   UNL     1       3.688   3.872   0.000  0.00  0.00    +0.074 C 
ATOM     14  N   UNL     1       2.863   3.872   0.000  0.00  0.00    -0.270 NA
ATOM     15  C   UNL     1       2.350   3.226   0.000  0.00  0.00    +0.094 C 
ATOM     16  C   UNL     1       2.534   2.421   0.000  0.00  0.00    +0.109 C 
BRANCH  14  17
ATOM     17  C   UNL     1       2.509   4.613   0.000  0.00  0.00    +0.090 C 
BRANCH  17  18
ATOM     18  C   UNL     1       2.971   5.293   0.000  0.00  0.00    +0.090 C 
BRANCH  18  19
ATOM     19  N   UNL     1       2.613   6.039   0.000  0.00  0.00    -0.269 NA
ATOM     20  C   UNL     1       3.080   6.718   0.000  0.00  0.00    +0.090 C 
ATOM     21  C   UNL     1       1.792   6.097   0.000  0.00  0.00    +0.090 C 
ENDBRANCH  18  19
ENDBRANCH  17  18
ENDBRANCH  14  17
ENDBRANCH   2  10
BRANCH   8  22
ATOM     22  C   UNL     1       1.521  -1.038   0.000  0.00  0.00    +0.144 C 
BRANCH  22  23
ATOM     23  C   UNL     1       2.075  -1.650   0.000  0.00  0.00    +0.201 C 
ATOM     24  O   UNL     1       2.884  -1.480   0.000  0.00  0.00    -0.218 OA
BRANCH  23  25
ATOM     25  C   UNL     1       1.821  -2.434   0.000  0.00  0.00    +0.147 C 
ATOM     26  C   UNL     1       2.305  -3.105   0.000  0.00  0.00    +0.035 C 
ATOM     27  C   UNL     1       1.821  -3.772   0.000  0.00  0.00    +0.035 C 
ATOM     28  C   UNL     1       1.034  -3.517   0.000  0.00  0.00    +0.142 C 
ATOM     29  O   UNL     1       1.034  -2.692   0.000  0.00  0.00    -0.354 OA
ENDBRANCH  23  25
ENDBRANCH  22  23
ENDBRANCH   8  22
TORSDOF 7
