REMARK  Name = 
REMARK  9 active torsions:
REMARK  status: ('A' for Active; 'I' for Inactive)
REMARK    1  A    between atoms: N_2  and  C_10
REMARK    2  A    between atoms: C_5  and  N_6
REMARK    3  A    between atoms: C_10  and  C_11
REMARK    4  A    between atoms: C_11  and  C_15
REMARK    5  A    between atoms: C_18  and  O_20
REMARK    6  A    between atoms: O_20  and  C_24
REMARK    7  A    between atoms: O_21  and  C_25
REMARK    8  A    between atoms: O_21  and  C_26
REMARK    9  A    between atoms: C_24  and  C_25
REMARK                            x       y       z     vdW  Elec       q    Type
REMARK                         _______ _______ _______ _____ _____    ______ ____
ROOT
ATOM      1  C   UNL     1       7.937  -6.159   0.000  0.00  0.00    +0.149 A 
ATOM      2  C   UNL     1       7.604  -5.410   0.000  0.00  0.00    +0.154 A 
ATOM      3  N   UNL     1       8.087  -4.739   0.000  0.00  0.00    -0.207 NA
ATOM      4  C   UNL     1       8.908  -4.827   0.000  0.00  0.00    +0.201 A 
ATOM      5  N   UNL     1       9.245  -5.580   0.000  0.00  0.00    -0.205 NA
ATOM      6  N   UNL     1       7.604  -6.913   0.000  0.00  0.00    -0.219 NA
ATOM      7  C   UNL     1       8.216  -7.467   0.000  0.00  0.00    +0.180 A 
ATOM      8  N   UNL     1       8.928  -7.054   0.000  0.00  0.00    -0.292 N 
ATOM      9  C   UNL     1       8.758  -6.247   0.000  0.00  0.00    +0.167 A 
ENDROOT
BRANCH   2  10
ATOM     10  N   UNL     1       6.784  -5.322   0.000  0.00  0.00    -0.289 N 
ATOM     11  C   UNL     1       6.372  -4.606   0.000  0.00  0.00    +0.095 C 
ATOM     12  C   UNL     1       5.564  -4.781   0.000  0.00  0.00    +0.053 C 
ATOM     13  C   UNL     1       5.476  -5.601   0.000  0.00  0.00    +0.137 C 
ATOM     14  C   UNL     1       6.230  -5.934   0.000  0.00  0.00    +0.122 C 
BRANCH  13  15
ATOM     15  O   UNL     1       4.764  -6.013   0.000  0.00  0.00    -0.352 OA
BRANCH  15  16
ATOM     16  C   UNL     1       4.048  -5.601   0.000  0.00  0.00    +0.174 C 
BRANCH  16  17
ATOM     17  C   UNL     1       3.336  -6.013   0.000  0.00  0.00    +0.174 C 
BRANCH  17  18
ATOM     18  O   UNL     1       2.624  -5.601   0.000  0.00  0.00    -0.351 OA
BRANCH  18  19
ATOM     19  C   UNL     1       1.907  -6.013   0.000  0.00  0.00    +0.142 C 
ATOM     20  C   UNL     1       1.195  -5.601   0.000  0.00  0.00    +0.035 C 
ENDBRANCH  18  19
ENDBRANCH  17  18
ENDBRANCH  16  17
ENDBRANCH  15  16
ENDBRANCH  13  15
ENDBRANCH   2  10
BRANCH   8  21
ATOM     21  C   UNL     1       9.682  -7.388   0.000  0.00  0.00    +0.144 C 
BRANCH  21  22
ATOM     22  C   UNL     1      10.348  -6.904   0.000  0.00  0.00    +0.201 C 
ATOM     23  O   UNL     1      10.265  -6.084   0.000  0.00  0.00    -0.218 OA
BRANCH  22  24
ATOM     24  C   UNL     1      11.102  -7.242   0.000  0.00  0.00    +0.147 C 
ATOM     25  C   UNL     1      11.819  -6.830   0.000  0.00  0.00    +0.035 C 
ATOM     26  C   UNL     1      12.431  -7.379   0.000  0.00  0.00    +0.035 C 
ATOM     27  C   UNL     1      12.093  -8.133   0.000  0.00  0.00    +0.142 C 
ATOM     28  O   UNL     1      11.273  -8.046   0.000  0.00  0.00    -0.354 OA
ENDBRANCH  22  24
ENDBRANCH  21  22
ENDBRANCH   8  21
TORSDOF 9
