REMARK  Name = 
REMARK  4 active torsions:
REMARK  status: ('A' for Active; 'I' for Inactive)
REMARK    1  A    between atoms: O_2  and  C_3
REMARK    2  A    between atoms: C_3  and  C_4
REMARK    3  A    between atoms: C_4  and  N_6
REMARK    4  A    between atoms: C_13  and  C_15
REMARK                            x       y       z     vdW  Elec       q    Type
REMARK                         _______ _______ _______ _____ _____    ______ ____
ROOT
ATOM      1  N   UNL     1       1.874  -3.835   0.000  0.00  0.00    -0.186 NA
ATOM      2  C   UNL     1       2.589  -3.422   0.000  0.00  0.00    +0.345 C 
ATOM      3  N   UNL     1       3.303  -3.835   0.000  0.00  0.00    -0.134 NA
ATOM      4  C   UNL     1       4.018  -3.422   0.000  0.00  0.00    +0.209 A 
ATOM      5  S   UNL     1       4.771  -3.758   0.000  0.00  0.00    -0.033 S 
ATOM      6  C   UNL     1       5.323  -3.145   0.000  0.00  0.00    +0.112 A 
ATOM      7  N   UNL     1       4.911  -2.430   0.000  0.00  0.00    -0.144 NA
ATOM      8  N   UNL     1       4.104  -2.602   0.000  0.00  0.00    -0.124 NA
ATOM      9  O   UNL     1       2.589  -2.598   0.000  0.00  0.00    -0.249 OA
ENDROOT
BRANCH   6  10
ATOM     10  C   UNL     1       6.144  -3.231   0.000  0.00  0.00    +0.048 C 
ATOM     11  C   UNL     1       6.811  -3.716   0.000  0.00  0.00    +0.007 C 
ATOM     12  C   UNL     1       6.898  -2.896   0.000  0.00  0.00    +0.007 C 
ENDBRANCH   6  10
BRANCH   1  13
ATOM     13  C   UNL     1       1.160  -3.422   0.000  0.00  0.00    +0.127 C 
ATOM     14  C   UNL     1       1.160  -2.598   0.000  0.00  0.00    +0.026 C 
BRANCH  13  15
ATOM     15  C   UNL     1       0.445  -3.835   0.000  0.00  0.00    +0.164 C 
BRANCH  15  17
ATOM     16  C   UNL     1      -0.984  -3.835   0.000  0.00  0.00    +0.174 C 
ATOM     17  O   UNL     1      -0.269  -3.422   0.000  0.00  0.00    -0.349 OA
ENDBRANCH  15  17
ENDBRANCH  13  15
ENDBRANCH   1  13
TORSDOF 4
