REMARK  Name = 
REMARK  5 active torsions:
REMARK  status: ('A' for Active; 'I' for Inactive)
REMARK    1  A    between atoms: C_7  and  O_8
REMARK    2  A    between atoms: O_8  and  C_9
REMARK    3  A    between atoms: C_9  and  C_10
REMARK    4  A    between atoms: C_10  and  C_12
REMARK    5  A    between atoms: C_12  and  N_13
REMARK                            x       y       z     vdW  Elec       q    Type
REMARK                         _______ _______ _______ _____ _____    ______ ____
ROOT
ATOM      1  C   UNL     1       2.143  -2.888   0.000  0.00  0.00    +0.218 C 
ATOM      2  O   UNL     1       2.143  -3.712   0.000  0.00  0.00    -0.217 OA
ENDROOT
BRANCH   1   3
ATOM      3  C   UNL     1       1.429  -2.475   0.000  0.00  0.00    +0.240 C 
BRANCH   3   4
ATOM      4  O   UNL     1       0.715  -2.888   0.000  0.00  0.00    -0.472 OA
BRANCH   4   8
ATOM      5  C   UNL     1      -2.143  -2.888   0.000  0.00  0.00    +0.031 C 
ATOM      6  C   UNL     1      -1.429  -2.475   0.000  0.00  0.00    -0.019 A 
ATOM      7  C   UNL     1      -0.715  -2.888   0.000  0.00  0.00    +0.034 A 
ATOM      8  C   UNL     1       0.000  -2.475   0.000  0.00  0.00    +0.149 A 
ATOM      9  C   UNL     1       0.000  -1.650   0.000  0.00  0.00    +0.091 A 
ATOM     10 CL   UNL     1       0.715  -1.238   0.000  0.00  0.00    -0.079 Cl
ATOM     11  C   UNL     1      -0.715  -1.238   0.000  0.00  0.00    +0.014 A 
ATOM     12  C   UNL     1      -1.429  -1.650   0.000  0.00  0.00    -0.003 A 
ENDBRANCH   4   8
ENDBRANCH   3   4
ENDBRANCH   1   3
BRANCH   1  13
ATOM     13  C   UNL     1       2.858  -2.475   0.000  0.00  0.00    +0.147 C 
BRANCH  13  14
ATOM     14  N   UNL     1       3.572  -2.888   0.000  0.00  0.00    -0.276 N 
ATOM     15  C   UNL     1       3.572  -3.712   0.000  0.00  0.00    +0.259 A 
ATOM     16  O   UNL     1       2.858  -4.125   0.000  0.00  0.00    -0.267 OA
ATOM     17  C   UNL     1       4.287  -4.125   0.000  0.00  0.00    +0.048 A 
ATOM     18  C   UNL     1       4.287  -4.950   0.000  0.00  0.00    +0.037 C 
ATOM     19  C   UNL     1       5.001  -3.712   0.000  0.00  0.00    +0.062 A 
ATOM     20  C   UNL     1       5.716  -4.125   0.000  0.00  0.00    +0.052 C 
ATOM     21  N   UNL     1       5.001  -2.888   0.000  0.00  0.00    -0.230 NA
ATOM     22  C   UNL     1       4.287  -2.475   0.000  0.00  0.00    +0.181 A 
ENDBRANCH  13  14
ENDBRANCH   1  13
TORSDOF 5
