REMARK  Name = 
REMARK  4 active torsions:
REMARK  status: ('A' for Active; 'I' for Inactive)
REMARK    1  A    between atoms: C_2  and  C_19
REMARK    2  A    between atoms: N_10  and  C_11
REMARK    3  A    between atoms: C_11  and  C_12
REMARK    4  A    between atoms: C_12  and  C_13
REMARK                            x       y       z     vdW  Elec       q    Type
REMARK                         _______ _______ _______ _____ _____    ______ ____
ROOT
ATOM      1  O   UNL     1      -3.140  -4.075   0.000  0.00  0.00    -0.217 OA
ATOM      2  C   UNL     1      -2.858  -3.300   0.000  0.00  0.00    +0.216 C 
ATOM      3  C   UNL     1      -2.143  -3.712   0.000  0.00  0.00    +0.061 C 
ATOM      4  C   UNL     1      -1.429  -3.300   0.000  0.00  0.00    +0.098 C 
ATOM      5  N   UNL     1      -1.429  -2.475   0.000  0.00  0.00    -0.263 N 
ATOM      6  C   UNL     1      -0.715  -2.062   0.000  0.00  0.00    +0.323 C 
ATOM      7  N   UNL     1       0.000  -2.475   0.000  0.00  0.00    -0.188 NA
ATOM      8  O   UNL     1      -0.715  -1.238   0.000  0.00  0.00    -0.251 OA
ATOM      9  C   UNL     1      -2.143  -2.062   0.000  0.00  0.00    +0.098 C 
ATOM     10  C   UNL     1      -2.858  -2.475   0.000  0.00  0.00    +0.061 C 
ENDROOT
BRANCH   2  11
ATOM     11  C   UNL     1      -3.670  -3.157   0.000  0.00  0.00    +0.423 C 
ATOM     12  F   UNL     1      -3.814  -3.969   0.000  0.00  0.00    -0.167 F 
ATOM     13  F   UNL     1      -3.527  -2.344   0.000  0.00  0.00    -0.167 F 
ATOM     14  F   UNL     1      -4.483  -3.014   0.000  0.00  0.00    -0.167 F 
ENDBRANCH   2  11
BRANCH   7  15
ATOM     15  C   UNL     1       0.715  -2.062   0.000  0.00  0.00    +0.122 C 
BRANCH  15  16
ATOM     16  C   UNL     1       1.429  -2.475   0.000  0.00  0.00    +0.051 C 
BRANCH  16  17
ATOM     17  C   UNL     1       2.143  -2.062   0.000  0.00  0.00    -0.001 A 
ATOM     18  C   UNL     1       2.858  -2.475   0.000  0.00  0.00    +0.095 A 
ATOM     19  N   UNL     1       3.572  -2.062   0.000  0.00  0.00    -0.243 NA
ATOM     20  C   UNL     1       3.572  -1.238   0.000  0.00  0.00    +0.099 A 
ATOM     21  C   UNL     1       2.858  -0.825   0.000  0.00  0.00    +0.020 A 
ATOM     22  C   UNL     1       2.143  -1.238   0.000  0.00  0.00    -0.001 A 
ENDBRANCH  16  17
ENDBRANCH  15  16
ENDBRANCH   7  15
TORSDOF 4
