REMARK  Name = 
REMARK  5 active torsions:
REMARK  status: ('A' for Active; 'I' for Inactive)
REMARK    1  A    between atoms: C_2  and  C_3
REMARK    2  A    between atoms: C_5  and  C_6
REMARK    3  A    between atoms: C_6  and  C_7
REMARK    4  A    between atoms: C_7  and  N_8
REMARK    5  A    between atoms: N_11  and  C_12
REMARK                            x       y       z     vdW  Elec       q    Type
REMARK                         _______ _______ _______ _____ _____    ______ ____
ROOT
ATOM      1  N   UNL     1       3.572  -3.712   0.000  0.00  0.00    -0.187 NA
ATOM      2  C   UNL     1       4.287  -4.125   0.000  0.00  0.00    +0.339 C 
ATOM      3  N   UNL     1       5.001  -3.712   0.000  0.00  0.00    -0.189 NA
ATOM      4  O   UNL     1       4.287  -4.950   0.000  0.00  0.00    -0.249 OA
ENDROOT
BRANCH   3   5
ATOM      5  C   UNL     1       5.716  -4.125   0.000  0.00  0.00    +0.097 C 
ATOM      6  C   UNL     1       5.716  -4.950   0.000  0.00  0.00    +0.024 C 
ATOM      7  C   UNL     1       6.430  -5.362   0.000  0.00  0.00    +0.035 C 
ATOM      8  C   UNL     1       7.145  -4.950   0.000  0.00  0.00    +0.152 C 
ATOM      9  O   UNL     1       7.859  -5.362   0.000  0.00  0.00    -0.223 OA
ATOM     10  C   UNL     1       7.145  -4.125   0.000  0.00  0.00    +0.035 C 
ATOM     11  C   UNL     1       6.430  -3.712   0.000  0.00  0.00    +0.024 C 
ENDBRANCH   3   5
BRANCH   1  12
ATOM     12  C   UNL     1       2.858  -4.125   0.000  0.00  0.00    +0.123 C 
BRANCH  12  13
ATOM     13  C   UNL     1       2.143  -3.712   0.000  0.00  0.00    +0.070 C 
BRANCH  13  17
ATOM     14  C   UNL     1       0.123  -4.402   0.000  0.00  0.00    +0.088 A 
ATOM     15  S   UNL     1       0.536  -5.117   0.000  0.00  0.00    -0.071 S 
ATOM     16  C   UNL     1       1.343  -4.946   0.000  0.00  0.00    +0.051 A 
ATOM     17  C   UNL     1       1.429  -4.125   0.000  0.00  0.00    +0.067 A 
ATOM     18  N   UNL     1       0.675  -3.789   0.000  0.00  0.00    -0.247 NA
BRANCH  14  20
ATOM     19  C   UNL     1      -1.182  -4.984   0.000  0.00  0.00    +0.007 C 
ATOM     20  C   UNL     1      -0.697  -4.316   0.000  0.00  0.00    +0.053 C 
ENDBRANCH  14  20
ENDBRANCH  13  17
ENDBRANCH  12  13
ENDBRANCH   1  12
TORSDOF 5
