REMARK  Name = 
REMARK  3 active torsions:
REMARK  status: ('A' for Active; 'I' for Inactive)
REMARK    1  A    between atoms: C_2  and  C_3
REMARK    2  A    between atoms: C_3  and  C_4
REMARK    3  A    between atoms: C_6  and  C_9
REMARK                            x       y       z     vdW  Elec       q    Type
REMARK                         _______ _______ _______ _____ _____    ______ ____
ROOT
ATOM      1  C   UNL     1      -0.640   4.161   0.000  0.00  0.00    +0.089 A 
ATOM      2  S   UNL     1      -1.465   4.161   0.000  0.00  0.00    -0.071 S 
ATOM      3  C   UNL     1      -1.720   3.376   0.000  0.00  0.00    +0.051 A 
ATOM      4  C   UNL     1      -1.053   2.891   0.000  0.00  0.00    +0.065 A 
ATOM      5  N   UNL     1      -0.385   3.376   0.000  0.00  0.00    -0.247 NA
ENDROOT
BRANCH   4   6
ATOM      6  C   UNL     1      -1.053   2.066   0.000  0.00  0.00    +0.041 C 
ATOM      7  C   UNL     1      -1.465   1.352   0.000  0.00  0.00    +0.006 C 
ATOM      8  C   UNL     1      -0.640   1.352   0.000  0.00  0.00    +0.006 C 
ENDBRANCH   4   6
BRANCH   1   9
ATOM      9  C   UNL     1      -0.155   4.828   0.000  0.00  0.00    +0.073 C 
BRANCH   9  11
ATOM     10  N   UNL     1      -0.006   6.249   0.000  0.00  0.00    -0.131 NA
ATOM     11  C   UNL     1      -0.491   5.582   0.000  0.00  0.00    +0.116 C 
ENDBRANCH   9  11
ENDBRANCH   1   9
TORSDOF 3
