REMARK  Name = 
REMARK  4 active torsions:
REMARK  status: ('A' for Active; 'I' for Inactive)
REMARK    1  A    between atoms: N_5  and  C_6
REMARK    2  A    between atoms: C_6  and  C_7
REMARK    3  A    between atoms: C_7  and  N_8
REMARK    4  A    between atoms: N_11  and  C_12
REMARK                            x       y       z     vdW  Elec       q    Type
REMARK                         _______ _______ _______ _____ _____    ______ ____
ROOT
ATOM      1  N   UNL     1       3.572  -3.712   0.000  0.00  0.00    -0.185 NA
ATOM      2  C   UNL     1       4.287  -4.125   0.000  0.00  0.00    +0.344 C 
ATOM      3  N   UNL     1       5.001  -3.712   0.000  0.00  0.00    -0.159 NA
ATOM      4  O   UNL     1       4.287  -4.950   0.000  0.00  0.00    -0.249 OA
ENDROOT
BRANCH   3   5
ATOM      5  C   UNL     1       5.716  -4.125   0.000  0.00  0.00    +0.094 A 
ATOM      6  C   UNL     1       5.716  -4.950   0.000  0.00  0.00    +0.117 A 
ATOM      7  N   UNL     1       6.430  -5.362   0.000  0.00  0.00    -0.228 NA
ATOM      8  C   UNL     1       7.145  -4.950   0.000  0.00  0.00    +0.132 A 
ATOM      9  N   UNL     1       7.859  -5.362   0.000  0.00  0.00    -0.290 N 
ATOM     10  C   UNL     1       7.859  -6.188   0.000  0.00  0.00    +0.114 C 
ATOM     11  C   UNL     1       8.574  -4.950   0.000  0.00  0.00    +0.114 C 
ATOM     12  C   UNL     1       7.145  -4.125   0.000  0.00  0.00    +0.036 A 
ATOM     13  C   UNL     1       6.430  -3.712   0.000  0.00  0.00    +0.021 A 
ENDBRANCH   3   5
BRANCH   1  14
ATOM     14  C   UNL     1       2.858  -4.125   0.000  0.00  0.00    +0.134 C 
BRANCH  14  15
ATOM     15  C   UNL     1       2.143  -3.712   0.000  0.00  0.00    +0.096 C 
BRANCH  15  20
ATOM     16  C   UNL     1      -0.715  -5.362   0.000  0.00  0.00    +0.000 C 
ATOM     17  C   UNL     1       0.000  -4.950   0.000  0.00  0.00    +0.003 C 
ATOM     18  C   UNL     1       0.715  -5.362   0.000  0.00  0.00    +0.017 C 
ATOM     19  C   UNL     1       1.429  -4.950   0.000  0.00  0.00    +0.072 C 
ATOM     20  N   UNL     1       1.429  -4.125   0.000  0.00  0.00    -0.271 NA
ATOM     21  C   UNL     1       0.715  -3.712   0.000  0.00  0.00    +0.072 C 
ATOM     22  C   UNL     1       0.000  -4.125   0.000  0.00  0.00    +0.017 C 
ENDBRANCH  15  20
ENDBRANCH  14  15
ENDBRANCH   1  14
TORSDOF 4
