REMARK  Name = 
REMARK  6 active torsions:
REMARK  status: ('A' for Active; 'I' for Inactive)
REMARK    1  A    between atoms: O_2  and  C_3
REMARK    2  A    between atoms: C_3  and  C_4
REMARK    3  A    between atoms: C_4  and  N_5
REMARK    4  A    between atoms: C_7  and  C_12
REMARK    5  A    between atoms: N_18  and  C_19
REMARK    6  A    between atoms: C_19  and  C_20
REMARK                            x       y       z     vdW  Elec       q    Type
REMARK                         _______ _______ _______ _____ _____    ______ ____
ROOT
ATOM      1  C   UNL     1       3.100  -3.266   0.000  0.00  0.00    +0.269 C 
ATOM      2  N   UNL     1       3.100  -4.091   0.000  0.00  0.00    -0.273 N 
ATOM      3  C   UNL     1       2.357  -4.449   0.000  0.00  0.00    +0.111 C 
ATOM      4  C   UNL     1       2.173  -5.253   0.000  0.00  0.00    +0.094 C 
ATOM      5  N   UNL     1       2.687  -5.898   0.000  0.00  0.00    -0.263 NA
ATOM      6  C   UNL     1       3.512  -5.898   0.000  0.00  0.00    +0.074 C 
ATOM      7  C   UNL     1       4.027  -5.253   0.000  0.00  0.00    +0.039 C 
ATOM      8  C   UNL     1       3.843  -4.449   0.000  0.00  0.00    +0.095 C 
ATOM      9  O   UNL     1       3.814  -2.853   0.000  0.00  0.00    -0.268 OA
ENDROOT
BRANCH   1  15
ATOM     10  N   UNL     1       1.671  -1.616   0.000  0.00  0.00    -0.214 N 
ATOM     11  C   UNL     1       0.957  -2.029   0.000  0.00  0.00    +0.277 A 
ATOM     12  O   UNL     1       0.242  -1.616   0.000  0.00  0.00    -0.266 OA
ATOM     13  C   UNL     1       0.957  -2.853   0.000  0.00  0.00    +0.064 A 
ATOM     14  C   UNL     1       1.671  -3.266   0.000  0.00  0.00    +0.030 A 
ATOM     15  C   UNL     1       2.385  -2.853   0.000  0.00  0.00    +0.154 A 
ATOM     16  N   UNL     1       2.385  -2.029   0.000  0.00  0.00    -0.162 NA
BRANCH  10  17
ATOM     17  C   UNL     1       1.671  -0.791   0.000  0.00  0.00    +0.163 C 
BRANCH  17  18
ATOM     18  C   UNL     1       0.957  -0.379   0.000  0.00  0.00    +0.169 C 
BRANCH  18  20
ATOM     19  C   UNL     1       0.242   0.859   0.000  0.00  0.00    +0.174 C 
ATOM     20  O   UNL     1       0.957   0.447   0.000  0.00  0.00    -0.349 OA
ENDBRANCH  18  20
ENDBRANCH  17  18
ENDBRANCH  10  17
ENDBRANCH   1  15
BRANCH   5  21
ATOM     21  C   UNL     1       2.329  -6.642   0.000  0.00  0.00    +0.162 C 
BRANCH  21  22
ATOM     22  C   UNL     1       1.507  -6.703   0.000  0.00  0.00    +0.277 C 
ATOM     23  N   UNL     1       1.042  -6.022   0.000  0.00  0.00    -0.087 NA
ATOM     24  O   UNL     1       1.149  -7.447   0.000  0.00  0.00    -0.270 OA
ENDBRANCH  21  22
ENDBRANCH   5  21
TORSDOF 6
