REMARK  Name = 
REMARK  4 active torsions:
REMARK  status: ('A' for Active; 'I' for Inactive)
REMARK    1  A    between atoms: N_2  and  C_4
REMARK    2  A    between atoms: C_4  and  C_7
REMARK    3  A    between atoms: C_7  and  N_8
REMARK    4  A    between atoms: N_11  and  C_12
REMARK                            x       y       z     vdW  Elec       q    Type
REMARK                         _______ _______ _______ _____ _____    ______ ____
ROOT
ATOM      1  C   UNL     1       0.715  -1.238   0.000  0.00  0.00    +0.094 A 
ATOM      2  C   UNL     1       0.000  -1.650   0.000  0.00  0.00    +0.117 A 
ATOM      3  N   UNL     1       0.000  -2.475   0.000  0.00  0.00    -0.228 NA
ATOM      4  C   UNL     1       0.715  -2.888   0.000  0.00  0.00    +0.132 A 
ATOM      5  N   UNL     1       0.715  -3.712   0.000  0.00  0.00    -0.288 N 
ATOM      6  C   UNL     1       0.000  -4.125   0.000  0.00  0.00    +0.124 C 
ATOM      7  C   UNL     1       0.000  -4.950   0.000  0.00  0.00    +0.164 C 
ATOM      8  O   UNL     1       0.715  -5.362   0.000  0.00  0.00    -0.350 OA
ATOM      9  C   UNL     1       1.429  -4.950   0.000  0.00  0.00    +0.164 C 
ATOM     10  C   UNL     1       1.429  -4.125   0.000  0.00  0.00    +0.124 C 
ATOM     11  C   UNL     1       1.429  -2.475   0.000  0.00  0.00    +0.036 A 
ATOM     12  C   UNL     1       1.429  -1.650   0.000  0.00  0.00    +0.021 A 
ENDROOT
BRANCH   1  15
ATOM     13  N   UNL     1       0.000   0.825   0.000  0.00  0.00    -0.186 NA
ATOM     14  C   UNL     1       0.000   0.000   0.000  0.00  0.00    +0.344 C 
ATOM     15  N   UNL     1       0.715  -0.412   0.000  0.00  0.00    -0.159 NA
ATOM     16  O   UNL     1      -0.715  -0.412   0.000  0.00  0.00    -0.249 OA
BRANCH  13  17
ATOM     17  C   UNL     1      -0.715   1.238   0.000  0.00  0.00    +0.131 C 
BRANCH  17  18
ATOM     18  C   UNL     1      -0.715   2.062   0.000  0.00  0.00    +0.066 C 
ATOM     19  C   UNL     1       0.111   2.062   0.000  0.00  0.00    +0.018 C 
ATOM     20  C   UNL     1      -1.540   2.062   0.000  0.00  0.00    +0.018 C 
BRANCH  18  22
ATOM     21  C   UNL     1      -1.429   3.300   0.000  0.00  0.00    +0.090 C 
ATOM     22  N   UNL     1      -0.715   2.888   0.000  0.00  0.00    -0.271 NA
ATOM     23  C   UNL     1       0.000   3.300   0.000  0.00  0.00    +0.090 C 
ENDBRANCH  18  22
ENDBRANCH  17  18
ENDBRANCH  13  17
ENDBRANCH   1  15
TORSDOF 4
