REMARK  Name = 
REMARK  5 active torsions:
REMARK  status: ('A' for Active; 'I' for Inactive)
REMARK    1  A    between atoms: C_2  and  C_5
REMARK    2  A    between atoms: C_5  and  N_6
REMARK    3  A    between atoms: C_9  and  C_10
REMARK    4  A    between atoms: C_10  and  N_11
REMARK    5  A    between atoms: N_14  and  C_15
REMARK                            x       y       z     vdW  Elec       q    Type
REMARK                         _______ _______ _______ _____ _____    ______ ____
ROOT
ATOM      1  N   UNL     1      -0.633  -1.718   0.000  0.00  0.00    -0.266 NA
ATOM      2  C   UNL     1      -0.081  -2.331   0.000  0.00  0.00    +0.074 C 
ATOM      3  C   UNL     1       0.672  -1.996   0.000  0.00  0.00    +0.039 C 
ATOM      4  C   UNL     1       0.586  -1.175   0.000  0.00  0.00    +0.020 C 
ATOM      5  C   UNL     1      -0.221  -1.004   0.000  0.00  0.00    +0.072 C 
ENDROOT
BRANCH   1   6
ATOM      6  C   UNL     1      -1.454  -1.804   0.000  0.00  0.00    +0.177 C 
BRANCH   6   8
ATOM      7  F   UNL     1      -2.424  -0.469   0.000  0.00  0.00    -0.168 F 
ATOM      8  C   UNL     1      -1.939  -1.137   0.000  0.00  0.00    +0.412 C 
ATOM      9  F   UNL     1      -1.271  -0.652   0.000  0.00  0.00    -0.168 F 
ATOM     10  F   UNL     1      -2.606  -1.622   0.000  0.00  0.00    -0.168 F 
ENDBRANCH   6   8
ENDBRANCH   1   6
BRANCH   3  11
ATOM     11  C   UNL     1       1.387  -2.408   0.000  0.00  0.00    +0.118 C 
BRANCH  11  12
ATOM     12  N   UNL     1       2.102  -1.996   0.000  0.00  0.00    -0.187 NA
ATOM     13  C   UNL     1       2.816  -2.408   0.000  0.00  0.00    +0.344 C 
ATOM     14  N   UNL     1       3.530  -1.996   0.000  0.00  0.00    -0.158 NA
ATOM     15  O   UNL     1       2.816  -3.233   0.000  0.00  0.00    -0.249 OA
BRANCH  14  16
ATOM     16  C   UNL     1       4.245  -2.408   0.000  0.00  0.00    +0.117 A 
ATOM     17  C   UNL     1       4.331  -3.229   0.000  0.00  0.00    +0.140 A 
ATOM     18  N   UNL     1       5.138  -3.400   0.000  0.00  0.00    -0.145 NA
ATOM     19  N   UNL     1       5.551  -2.686   0.000  0.00  0.00    -0.145 NA
ATOM     20  C   UNL     1       4.999  -2.073   0.000  0.00  0.00    +0.140 A 
ENDBRANCH  14  16
ENDBRANCH  11  12
ENDBRANCH   3  11
TORSDOF 5
