REMARK  Name = 
REMARK  2 active torsions:
REMARK  status: ('A' for Active; 'I' for Inactive)
REMARK    1  A    between atoms: N_2  and  C_13
REMARK    2  A    between atoms: C_13  and  C_17
REMARK                            x       y       z     vdW  Elec       q    Type
REMARK                         _______ _______ _______ _____ _____    ______ ____
ROOT
ATOM      1  C   UNL     1      -0.717  -1.238   0.000  0.00  0.00    +0.149 A 
ATOM      2  C   UNL     1       0.000  -1.650   0.000  0.00  0.00    +0.154 A 
ATOM      3  N   UNL     1       0.000  -2.475   0.000  0.00  0.00    -0.207 NA
ATOM      4  C   UNL     1      -0.717  -2.888   0.000  0.00  0.00    +0.201 A 
ATOM      5  N   UNL     1      -1.429  -2.475   0.000  0.00  0.00    -0.205 NA
ATOM      6  N   UNL     1       0.713  -1.238   0.000  0.00  0.00    -0.292 N 
ATOM      7  C   UNL     1       0.713  -0.412   0.000  0.00  0.00    +0.095 C 
ATOM      8  C   UNL     1       1.425   0.000   0.000  0.00  0.00    +0.052 C 
ATOM      9  C   UNL     1       2.142  -0.412   0.000  0.00  0.00    +0.130 C 
ATOM     10  C   UNL     1       2.854   0.000   0.000  0.00  0.00    +0.031 C 
ATOM     11  C   UNL     1       3.571  -0.412   0.000  0.00  0.00    +0.003 C 
ATOM     12  C   UNL     1       3.571  -1.238   0.000  0.00  0.00    +0.000 C 
ATOM     13  C   UNL     1       2.854  -1.650   0.000  0.00  0.00    +0.004 C 
ATOM     14  O   UNL     1       2.142   0.412   0.000  0.00  0.00    -0.226 OA
ATOM     15  C   UNL     1       2.142  -1.238   0.000  0.00  0.00    +0.048 C 
ATOM     16  C   UNL     1       1.425  -1.650   0.000  0.00  0.00    +0.095 C 
ATOM     17  N   UNL     1      -0.887  -0.429   0.000  0.00  0.00    -0.219 NA
ATOM     18  C   UNL     1      -1.708  -0.342   0.000  0.00  0.00    +0.180 A 
ATOM     19  N   UNL     1      -2.046  -1.096   0.000  0.00  0.00    -0.292 N 
ATOM     20  C   UNL     1      -1.429  -1.650   0.000  0.00  0.00    +0.167 A 
ENDROOT
BRANCH  19  21
ATOM     21  C   UNL     1      -2.850  -1.267   0.000  0.00  0.00    +0.139 C 
BRANCH  21  22
ATOM     22  C   UNL     1      -3.104  -2.050   0.000  0.00  0.00    +0.152 C 
ATOM     23  O   UNL     1      -2.288  -2.167   0.000  0.00  0.00    -0.223 OA
ATOM     24  C   UNL     1      -3.833  -1.667   0.000  0.00  0.00    +0.064 C 
ATOM     25  C   UNL     1      -4.533  -2.100   0.000  0.00  0.00    +0.145 C 
ATOM     26  O   UNL     1      -4.504  -2.925   0.000  0.00  0.00    -0.354 OA
ATOM     27  C   UNL     1      -3.775  -3.312   0.000  0.00  0.00    +0.145 C 
ATOM     28  C   UNL     1      -3.079  -2.875   0.000  0.00  0.00    +0.064 C 
ENDBRANCH  21  22
ENDBRANCH  19  21
TORSDOF 2
