REMARK  Name = 
REMARK  3 active torsions:
REMARK  status: ('A' for Active; 'I' for Inactive)
REMARK    1  A    between atoms: C_6  and  N_7
REMARK    2  A    between atoms: N_10  and  C_11
REMARK    3  A    between atoms: N_14  and  S_17
REMARK                            x       y       z     vdW  Elec       q    Type
REMARK                         _______ _______ _______ _____ _____    ______ ____
ROOT
ATOM      1  N   UNL     1       2.858  -4.950   0.000  0.00  0.00    -0.159 NA
ATOM      2  C   UNL     1       2.143  -5.362   0.000  0.00  0.00    +0.343 C 
ATOM      3  N   UNL     1       2.143  -6.188   0.000  0.00  0.00    -0.189 NA
ATOM      4  O   UNL     1       1.429  -4.950   0.000  0.00  0.00    -0.249 OA
ENDROOT
BRANCH   1  10
ATOM      5  C   UNL     1       2.143  -1.238   0.000  0.00  0.00    +0.137 C 
ATOM      6  N   UNL     1       2.858  -1.650   0.000  0.00  0.00    -0.218 NA
ATOM      7  C   UNL     1       2.858  -2.475   0.000  0.00  0.00    +0.148 A 
ATOM      8  N   UNL     1       2.143  -2.888   0.000  0.00  0.00    -0.226 NA
ATOM      9  C   UNL     1       2.143  -3.712   0.000  0.00  0.00    +0.117 A 
ATOM     10  C   UNL     1       2.858  -4.125   0.000  0.00  0.00    +0.094 A 
ATOM     11  C   UNL     1       3.572  -3.712   0.000  0.00  0.00    +0.021 A 
ATOM     12  C   UNL     1       3.572  -2.888   0.000  0.00  0.00    +0.037 A 
ENDBRANCH   1  10
BRANCH   3  13
ATOM     13  C   UNL     1       1.429  -6.600   0.000  0.00  0.00    +0.100 C 
ATOM     14  C   UNL     1       0.715  -6.188   0.000  0.00  0.00    +0.041 C 
ATOM     15  C   UNL     1       0.000  -6.600   0.000  0.00  0.00    +0.097 C 
ATOM     16  N   UNL     1       0.000  -7.425   0.000  0.00  0.00    -0.159 NA
ATOM     17  C   UNL     1       0.715  -7.838   0.000  0.00  0.00    +0.097 C 
ATOM     18  C   UNL     1       1.429  -7.425   0.000  0.00  0.00    +0.041 C 
BRANCH  16  19
ATOM     19  S   UNL     1      -0.715  -7.838   0.000  0.00  0.00    +0.046 S 
ATOM     20  C   UNL     1      -0.302  -8.552   0.000  0.00  0.00    +0.196 C 
ATOM     21  O   UNL     1      -1.127  -7.123   0.000  0.00  0.00    -0.157 OA
ATOM     22  O   UNL     1      -1.429  -8.250   0.000  0.00  0.00    -0.157 OA
ENDBRANCH  16  19
ENDBRANCH   3  13
TORSDOF 3
