REMARK  Name = 
REMARK  4 active torsions:
REMARK  status: ('A' for Active; 'I' for Inactive)
REMARK    1  A    between atoms: C_4  and  N_5
REMARK    2  A    between atoms: N_8  and  C_9
REMARK    3  A    between atoms: C_9  and  C_10
REMARK    4  A    between atoms: C_10  and  N_11
REMARK                            x       y       z     vdW  Elec       q    Type
REMARK                         _______ _______ _______ _____ _____    ______ ____
ROOT
ATOM      1  N   UNL     1       3.163  -2.952   0.000  0.00  0.00    -0.142 NA
ATOM      2  C   UNL     1       3.878  -3.364   0.000  0.00  0.00    +0.345 C 
ATOM      3  N   UNL     1       4.592  -2.952   0.000  0.00  0.00    -0.185 NA
ATOM      4  O   UNL     1       3.878  -4.189   0.000  0.00  0.00    -0.249 OA
ENDROOT
BRANCH   1  10
ATOM      5  C   UNL     1       0.323  -3.556   0.000  0.00  0.00    +0.054 C 
ATOM      6  C   UNL     1       1.143  -3.642   0.000  0.00  0.00    +0.082 A 
ATOM      7  N   UNL     1       1.556  -4.356   0.000  0.00  0.00    -0.172 NA
ATOM      8  N   UNL     1       2.363  -4.185   0.000  0.00  0.00    -0.234 N 
ATOM      9  C   UNL     1       2.976  -4.737   0.000  0.00  0.00    +0.155 C 
ATOM     10  C   UNL     1       2.449  -3.364   0.000  0.00  0.00    +0.154 A 
ATOM     11  C   UNL     1       1.695  -3.029   0.000  0.00  0.00    +0.052 A 
ENDBRANCH   1  10
BRANCH   3  12
ATOM     12  C   UNL     1       5.307  -3.364   0.000  0.00  0.00    +0.134 C 
BRANCH  12  13
ATOM     13  C   UNL     1       6.021  -2.952   0.000  0.00  0.00    +0.096 C 
BRANCH  13  14
ATOM     14  N   UNL     1       6.736  -3.364   0.000  0.00  0.00    -0.271 NA
ATOM     15  C   UNL     1       6.822  -4.185   0.000  0.00  0.00    +0.072 C 
ATOM     16  C   UNL     1       7.629  -4.356   0.000  0.00  0.00    +0.019 C 
ATOM     17  C   UNL     1       8.041  -3.642   0.000  0.00  0.00    +0.019 C 
ATOM     18  C   UNL     1       7.489  -3.029   0.000  0.00  0.00    +0.072 C 
ENDBRANCH  13  14
ENDBRANCH  12  13
ENDBRANCH   3  12
TORSDOF 4
