REMARK  Name = 
REMARK  2 active torsions:
REMARK  status: ('A' for Active; 'I' for Inactive)
REMARK    1  A    between atoms: N_9  and  C_10
REMARK    2  A    between atoms: C_10  and  C_11
REMARK                            x       y       z     vdW  Elec       q    Type
REMARK                         _______ _______ _______ _____ _____    ______ ____
ROOT
ATOM      1  C   UNL     1      -3.068   2.669   0.000  0.00  0.00    +0.061 C 
ATOM      2  C   UNL     1      -2.247   2.755   0.000  0.00  0.00    +0.113 A 
ATOM      3  S   UNL     1      -1.695   2.142   0.000  0.00  0.00    -0.033 S 
ATOM      4  C   UNL     1      -0.941   2.478   0.000  0.00  0.00    +0.209 A 
ATOM      5  N   UNL     1      -0.227   2.065   0.000  0.00  0.00    -0.134 NA
ATOM      6  C   UNL     1       0.487   2.478   0.000  0.00  0.00    +0.345 C 
ATOM      7  N   UNL     1       1.202   2.065   0.000  0.00  0.00    -0.187 NA
ATOM      8  O   UNL     1       0.487   3.303   0.000  0.00  0.00    -0.249 OA
ATOM      9  N   UNL     1      -1.028   3.298   0.000  0.00  0.00    -0.124 NA
ATOM     10  N   UNL     1      -1.835   3.470   0.000  0.00  0.00    -0.144 NA
ENDROOT
BRANCH   7  11
ATOM     11  C   UNL     1       1.917   2.478   0.000  0.00  0.00    +0.117 C 
BRANCH  11  12
ATOM     12  C   UNL     1       2.631   2.065   0.000  0.00  0.00    +0.022 C 
ATOM     13  C   UNL     1       2.845   1.268   0.000  0.00  0.00    +0.002 C 
ATOM     14  C   UNL     1       3.641   1.482   0.000  0.00  0.00    +0.000 C 
ATOM     15  C   UNL     1       3.428   2.279   0.000  0.00  0.00    +0.002 C 
ENDBRANCH  11  12
ENDBRANCH   7  11
TORSDOF 2
