REMARK  Name = 
REMARK  3 active torsions:
REMARK  status: ('A' for Active; 'I' for Inactive)
REMARK    1  A    between atoms: C_7  and  N_8
REMARK    2  A    between atoms: N_15  and  C_16
REMARK    3  A    between atoms: C_16  and  C_17
REMARK                            x       y       z     vdW  Elec       q    Type
REMARK                         _______ _______ _______ _____ _____    ______ ____
ROOT
ATOM      1  N   UNL     1      -1.731  -3.100   0.000  0.00  0.00    -0.189 NA
ATOM      2  C   UNL     1      -2.344  -3.652   0.000  0.00  0.00    +0.345 C 
ATOM      3  N   UNL     1      -3.129  -3.397   0.000  0.00  0.00    -0.140 NA
ATOM      4  C   UNL     1      -3.742  -3.949   0.000  0.00  0.00    +0.177 A 
ATOM      5  N   UNL     1      -4.549  -3.778   0.000  0.00  0.00    -0.152 NA
ATOM      6  N   UNL     1      -4.962  -4.492   0.000  0.00  0.00    -0.242 N 
ATOM      7  C   UNL     1      -4.410  -5.105   0.000  0.00  0.00    +0.098 A 
ATOM      8  C   UNL     1      -3.656  -4.770   0.000  0.00  0.00    +0.058 A 
ATOM      9  O   UNL     1      -2.173  -4.459   0.000  0.00  0.00    -0.249 OA
ENDROOT
BRANCH   1  12
ATOM     10  C   UNL     1       0.273  -2.257   0.000  0.00  0.00    +0.002 C 
ATOM     11  C   UNL     1      -0.279  -2.870   0.000  0.00  0.00    +0.019 C 
ATOM     12  C   UNL     1      -0.947  -3.355   0.000  0.00  0.00    +0.097 C 
ATOM     13  C   UNL     1      -0.692  -4.140   0.000  0.00  0.00    +0.022 C 
ATOM     14  C   UNL     1       0.133  -4.140   0.000  0.00  0.00    +0.002 C 
ATOM     15  C   UNL     1       0.388  -3.355   0.000  0.00  0.00    +0.002 C 
ATOM     16  C   UNL     1      -0.831  -2.257   0.000  0.00  0.00    +0.002 C 
ENDBRANCH   1  12
BRANCH   6  17
ATOM     17  C   UNL     1      -5.782  -4.578   0.000  0.00  0.00    +0.199 C 
BRANCH  17  18
ATOM     18  C   UNL     1      -6.267  -3.911   0.000  0.00  0.00    +0.343 C 
ATOM     19  F   UNL     1      -5.931  -3.157   0.000  0.00  0.00    -0.196 F 
ATOM     20  F   UNL     1      -7.087  -3.997   0.000  0.00  0.00    -0.196 F 
ENDBRANCH  17  18
ENDBRANCH   6  17
TORSDOF 3
