REMARK  Name = 
REMARK  5 active torsions:
REMARK  status: ('A' for Active; 'I' for Inactive)
REMARK    1  A    between atoms: N_3  and  C_4
REMARK    2  A    between atoms: C_4  and  C_5
REMARK    3  A    between atoms: C_5  and  C_6
REMARK    4  A    between atoms: N_12  and  C_13
REMARK    5  A    between atoms: C_13  and  C_14
REMARK                            x       y       z     vdW  Elec       q    Type
REMARK                         _______ _______ _______ _____ _____    ______ ____
ROOT
ATOM      1  O   UNL     1       3.572  -2.888   0.000  0.00  0.00    -0.249 OA
ATOM      2  C   UNL     1       3.572  -3.712   0.000  0.00  0.00    +0.339 C 
ATOM      3  N   UNL     1       4.287  -4.125   0.000  0.00  0.00    -0.185 NA
ATOM      4  N   UNL     1       2.858  -4.125   0.000  0.00  0.00    -0.187 NA
ENDROOT
BRANCH   3   5
ATOM      5  C   UNL     1       5.001  -3.712   0.000  0.00  0.00    +0.148 C 
BRANCH   5   6
ATOM      6  C   UNL     1       5.716  -4.125   0.000  0.00  0.00    +0.153 C 
ATOM      7  O   UNL     1       5.716  -4.950   0.000  0.00  0.00    -0.352 OA
ATOM      8  C   UNL     1       6.430  -5.362   0.000  0.00  0.00    +0.158 C 
ATOM      9  C   UNL     1       7.145  -4.950   0.000  0.00  0.00    +0.087 C 
ATOM     10  N   UNL     1       7.145  -4.125   0.000  0.00  0.00    -0.270 NA
ATOM     11  C   UNL     1       7.929  -3.870   0.000  0.00  0.00    +0.072 C 
ATOM     12  C   UNL     1       8.414  -4.537   0.000  0.00  0.00    +0.019 C 
ATOM     13  C   UNL     1       7.929  -5.205   0.000  0.00  0.00    +0.020 C 
ATOM     14  C   UNL     1       6.430  -3.712   0.000  0.00  0.00    +0.104 C 
ENDBRANCH   5   6
ENDBRANCH   3   5
BRANCH   4  15
ATOM     15  C   UNL     1       2.143  -3.712   0.000  0.00  0.00    +0.122 C 
BRANCH  15  16
ATOM     16  C   UNL     1       1.429  -4.125   0.000  0.00  0.00    +0.051 C 
BRANCH  16  17
ATOM     17  C   UNL     1       0.715  -3.712   0.000  0.00  0.00    -0.001 A 
ATOM     18  C   UNL     1       0.715  -2.888   0.000  0.00  0.00    +0.095 A 
ATOM     19  N   UNL     1       0.000  -2.475   0.000  0.00  0.00    -0.243 NA
ATOM     20  C   UNL     1      -0.715  -2.888   0.000  0.00  0.00    +0.099 A 
ATOM     21  C   UNL     1      -0.715  -3.712   0.000  0.00  0.00    +0.020 A 
ATOM     22  C   UNL     1       0.000  -4.125   0.000  0.00  0.00    -0.001 A 
ENDBRANCH  16  17
ENDBRANCH  15  16
ENDBRANCH   4  15
TORSDOF 5
