REMARK  Name = 
REMARK  3 active torsions:
REMARK  status: ('A' for Active; 'I' for Inactive)
REMARK    1  A    between atoms: N_3  and  C_4
REMARK    2  A    between atoms: C_4  and  C_5
REMARK    3  A    between atoms: C_5  and  N_6
REMARK                            x       y       z     vdW  Elec       q    Type
REMARK                         _______ _______ _______ _____ _____    ______ ____
ROOT
ATOM      1  C   UNL     1       1.176  -1.731   0.000  0.00  0.00    +0.138 C 
ENDROOT
BRANCH   1  10
ATOM      2  O   UNL     1       2.605  -2.556   0.000  0.00  0.00    -0.249 OA
ATOM      3  C   UNL     1       2.605  -1.731   0.000  0.00  0.00    +0.345 C 
ATOM      4  N   UNL     1       3.319  -1.319   0.000  0.00  0.00    -0.134 NA
ATOM      5  C   UNL     1       4.034  -1.731   0.000  0.00  0.00    +0.209 A 
ATOM      6  S   UNL     1       4.120  -2.552   0.000  0.00  0.00    -0.027 S 
ATOM      7  C   UNL     1       4.927  -2.723   0.000  0.00  0.00    +0.161 A 
ATOM      8  N   UNL     1       5.340  -2.009   0.000  0.00  0.00    -0.137 NA
ATOM      9  N   UNL     1       4.787  -1.396   0.000  0.00  0.00    -0.123 NA
ATOM     10  N   UNL     1       1.890  -1.319   0.000  0.00  0.00    -0.185 NA
ENDBRANCH   1  10
BRANCH   1  11
ATOM     11  C   UNL     1       0.461  -1.319   0.000  0.00  0.00    +0.117 C 
BRANCH  11  12
ATOM     12  N   UNL     1      -0.253  -1.731   0.000  0.00  0.00    -0.278 N 
ATOM     13  C   UNL     1      -0.935  -1.266   0.000  0.00  0.00    +0.226 C 
ATOM     14  O   UNL     1      -0.812  -0.451   0.000  0.00  0.00    -0.275 OA
ATOM     15  C   UNL     1      -1.723  -1.510   0.000  0.00  0.00    +0.085 C 
ATOM     16  C   UNL     1      -2.024  -2.278   0.000  0.00  0.00    +0.010 C 
ATOM     17  C   UNL     1      -1.612  -2.992   0.000  0.00  0.00    +0.002 C 
ATOM     18  C   UNL     1      -0.796  -3.115   0.000  0.00  0.00    +0.022 C 
ATOM     19  C   UNL     1      -0.191  -2.554   0.000  0.00  0.00    +0.093 C 
ENDBRANCH  11  12
ENDBRANCH   1  11
TORSDOF 3
