REMARK  Name = 
REMARK  4 active torsions:
REMARK  status: ('A' for Active; 'I' for Inactive)
REMARK    1  A    between atoms: C_1  and  C_2
REMARK    2  A    between atoms: C_1  and  N_9
REMARK    3  A    between atoms: C_2  and  C_3
REMARK    4  A    between atoms: N_9  and  C_10
REMARK                            x       y       z     vdW  Elec       q    Type
REMARK                         _______ _______ _______ _____ _____    ______ ____
ROOT
ATOM      1  C   UNL     1      -1.841  -0.587   0.000  0.00  0.00    +0.065 C 
ENDROOT
BRANCH   1   2
ATOM      2  C   UNL     1      -2.556  -0.174   0.000  0.00  0.00    +0.060 A 
ATOM      3  N   UNL     1      -2.556   0.651   0.000  0.00  0.00    -0.248 NA
ATOM      4  C   UNL     1      -3.270   1.063   0.000  0.00  0.00    +0.098 A 
ATOM      5  C   UNL     1      -3.985   0.651   0.000  0.00  0.00    +0.021 A 
ATOM      6  C   UNL     1      -3.985  -0.174   0.000  0.00  0.00    +0.003 A 
ATOM      7  C   UNL     1      -3.270  -0.587   0.000  0.00  0.00    +0.015 A 
ENDBRANCH   1   2
BRANCH   1   8
ATOM      8  C   UNL     1      -1.841  -1.412   0.000  0.00  0.00    +0.095 C 
BRANCH   8   9
ATOM      9  N   UNL     1      -1.127  -1.824   0.000  0.00  0.00    -0.219 NA
BRANCH   9  10
ATOM     10  C   UNL     1      -1.127  -2.649   0.000  0.00  0.00    +0.073 C 
ATOM     11  C   UNL     1      -1.540  -3.364   0.000  0.00  0.00    +0.019 C 
ATOM     12  C   UNL     1      -0.715  -3.364   0.000  0.00  0.00    +0.019 C 
ENDBRANCH   9  10
ENDBRANCH   8   9
ENDBRANCH   1   8
TORSDOF 4
