REMARK  Name = 
REMARK  4 active torsions:
REMARK  status: ('A' for Active; 'I' for Inactive)
REMARK    1  A    between atoms: C_5  and  C_6
REMARK    2  A    between atoms: C_6  and  C_7
REMARK    3  A    between atoms: C_7  and  N_8
REMARK    4  A    between atoms: C_9  and  C_11
REMARK                            x       y       z     vdW  Elec       q    Type
REMARK                         _______ _______ _______ _____ _____    ______ ____
ROOT
ATOM      1  C   UNL     1       2.102  -1.996   0.000  0.00  0.00    +0.122 C 
ENDROOT
BRANCH   1   2
ATOM      2  N   UNL     1       2.816  -2.408   0.000  0.00  0.00    -0.205 NA
ATOM      3  C   UNL     1       3.530  -1.996   0.000  0.00  0.00    +0.243 C 
ATOM      4  O   UNL     1       3.530  -1.171   0.000  0.00  0.00    -0.273 OA
BRANCH   3   5
ATOM      5  C   UNL     1       4.245  -2.408   0.000  0.00  0.00    +0.110 C 
ATOM      6  C   UNL     1       4.331  -3.229   0.000  0.00  0.00    +0.151 C 
ATOM      7  O   UNL     1       5.138  -3.400   0.000  0.00  0.00    -0.353 OA
ATOM      8  C   UNL     1       5.551  -2.686   0.000  0.00  0.00    +0.143 C 
ATOM      9  C   UNL     1       4.999  -2.073   0.000  0.00  0.00    +0.044 C 
ENDBRANCH   3   5
ENDBRANCH   1   2
BRANCH   1  10
ATOM     10  C   UNL     1       1.387  -2.408   0.000  0.00  0.00    +0.076 C 
BRANCH  10  14
ATOM     11  C   UNL     1      -1.454  -1.804   0.000  0.00  0.00    +0.053 C 
ATOM     12  C   UNL     1      -0.633  -1.718   0.000  0.00  0.00    +0.066 A 
ATOM     13  N   UNL     1      -0.081  -2.331   0.000  0.00  0.00    -0.247 NA
ATOM     14  C   UNL     1       0.672  -1.996   0.000  0.00  0.00    +0.090 A 
ATOM     15  S   UNL     1       0.586  -1.175   0.000  0.00  0.00    -0.071 S 
ATOM     16  C   UNL     1      -0.221  -1.004   0.000  0.00  0.00    +0.051 A 
ENDBRANCH  10  14
ENDBRANCH   1  10
TORSDOF 4
