REMARK  Name = 
REMARK  7 active torsions:
REMARK  status: ('A' for Active; 'I' for Inactive)
REMARK    1  A    between atoms: N_1  and  C_8
REMARK    2  A    between atoms: C_5  and  N_7
REMARK    3  A    between atoms: N_11  and  C_22
REMARK    4  A    between atoms: C_12  and  C_20
REMARK    5  A    between atoms: C_12  and  C_21
REMARK    6  A    between atoms: C_22  and  C_27
REMARK    7  A    between atoms: O_25  and  C_27
REMARK                            x       y       z     vdW  Elec       q    Type
REMARK                         _______ _______ _______ _____ _____    ______ ____
ROOT
ATOM      1  N   UNL     1       1.782  -0.255   0.000  0.00  0.00    -0.296 N 
ATOM      2  C   UNL     1       1.294   0.413   0.000  0.00  0.00    +0.180 A 
ATOM      3  N   UNL     1       1.782   1.085   0.000  0.00  0.00    -0.219 NA
ATOM      4  C   UNL     1       2.567   0.826   0.000  0.00  0.00    +0.149 A 
ATOM      5  C   UNL     1       3.280   1.240   0.000  0.00  0.00    +0.154 A 
ATOM      6  N   UNL     1       3.998   0.826   0.000  0.00  0.00    -0.207 NA
ATOM      7  C   UNL     1       3.998   0.000   0.000  0.00  0.00    +0.201 A 
ATOM      8  N   UNL     1       3.280  -0.413   0.000  0.00  0.00    -0.205 NA
ATOM      9  C   UNL     1       2.567   0.000   0.000  0.00  0.00    +0.167 A 
ENDROOT
BRANCH   5  10
ATOM     10  N   UNL     1       3.280   2.066   0.000  0.00  0.00    -0.289 N 
ATOM     11  C   UNL     1       3.998   2.479   0.000  0.00  0.00    +0.110 C 
ATOM     12  C   UNL     1       3.998   3.305   0.000  0.00  0.00    +0.094 C 
ATOM     13  N   UNL     1       3.280   3.719   0.000  0.00  0.00    -0.269 NA
ATOM     14  C   UNL     1       2.567   3.305   0.000  0.00  0.00    +0.077 C 
ATOM     15  C   UNL     1       1.853   3.719   0.000  0.00  0.00    +0.019 C 
ATOM     16  C   UNL     1       2.567   2.479   0.000  0.00  0.00    +0.108 C 
BRANCH  13  17
ATOM     17  C   UNL     1       3.280   4.541   0.000  0.00  0.00    +0.105 C 
BRANCH  17  18
ATOM     18  C   UNL     1       2.567   4.958   0.000  0.00  0.00    +0.160 C 
BRANCH  18  19
ATOM     19  O   UNL     1       2.567   5.785   0.000  0.00  0.00    -0.350 OA
ATOM     20  C   UNL     1       1.853   6.198   0.000  0.00  0.00    +0.174 C 
ENDBRANCH  18  19
ENDBRANCH  17  18
ENDBRANCH  13  17
ENDBRANCH   5  10
BRANCH   1  21
ATOM     21  C   UNL     1       1.523  -1.039   0.000  0.00  0.00    +0.089 C 
ATOM     22  C   UNL     1       0.789  -1.415   0.000  0.00  0.00    +0.028 C 
ATOM     23  C   UNL     1       1.164  -2.149   0.000  0.00  0.00    +0.065 C 
ATOM     24  C   UNL     1       1.899  -1.774   0.000  0.00  0.00    +0.028 C 
BRANCH  23  25
ATOM     25  C   UNL     1       1.540  -2.888   0.000  0.00  0.00    +0.185 C 
ATOM     26  O   UNL     1       2.366  -2.930   0.000  0.00  0.00    -0.220 OA
ENDBRANCH  23  25
BRANCH  23  27
ATOM     27  C   UNL     1       0.430  -2.525   0.000  0.00  0.00    +0.185 C 
ATOM     28  O   UNL     1      -0.267  -2.074   0.000  0.00  0.00    -0.220 OA
ENDBRANCH  23  27
ENDBRANCH   1  21
TORSDOF 7
