REMARK  Name = 
REMARK  4 active torsions:
REMARK  status: ('A' for Active; 'I' for Inactive)
REMARK    1  A    between atoms: C_4  and  C_8
REMARK    2  A    between atoms: N_10  and  C_11
REMARK    3  A    between atoms: C_11  and  C_12
REMARK    4  A    between atoms: C_12  and  C_13
REMARK                            x       y       z     vdW  Elec       q    Type
REMARK                         _______ _______ _______ _____ _____    ______ ____
ROOT
ATOM      1  C   UNL     1       0.028  -2.025   0.000  0.00  0.00    +0.243 C 
ATOM      2  N   UNL     1       0.743  -2.437   0.000  0.00  0.00    -0.205 NA
ATOM      3  O   UNL     1       0.028  -1.200   0.000  0.00  0.00    -0.273 OA
ENDROOT
BRANCH   1   9
ATOM      4  C   UNL     1      -2.813  -2.629   0.000  0.00  0.00    +0.115 C 
ATOM      5  N   UNL     1      -1.992  -2.715   0.000  0.00  0.00    -0.277 N 
ATOM      6  C   UNL     1      -1.580  -3.429   0.000  0.00  0.00    +0.226 C 
ATOM      7  O   UNL     1      -1.915  -4.183   0.000  0.00  0.00    -0.275 OA
ATOM      8  C   UNL     1      -0.773  -3.258   0.000  0.00  0.00    +0.096 C 
ATOM      9  C   UNL     1      -0.686  -2.437   0.000  0.00  0.00    +0.107 C 
ATOM     10  C   UNL     1      -1.440  -2.102   0.000  0.00  0.00    +0.103 C 
ENDBRANCH   1   9
BRANCH   2  11
ATOM     11  C   UNL     1       1.457  -2.025   0.000  0.00  0.00    +0.121 C 
BRANCH  11  12
ATOM     12  C   UNL     1       2.171  -2.437   0.000  0.00  0.00    +0.070 C 
BRANCH  12  13
ATOM     13  C   UNL     1       2.886  -2.025   0.000  0.00  0.00    +0.067 A 
ATOM     14  N   UNL     1       3.640  -2.360   0.000  0.00  0.00    -0.247 NA
ATOM     15  C   UNL     1       4.192  -1.747   0.000  0.00  0.00    +0.088 A 
ATOM     16  C   UNL     1       5.012  -1.833   0.000  0.00  0.00    +0.059 C 
ATOM     17  S   UNL     1       3.779  -1.033   0.000  0.00  0.00    -0.071 S 
ATOM     18  C   UNL     1       2.972  -1.204   0.000  0.00  0.00    +0.051 A 
ENDBRANCH  12  13
ENDBRANCH  11  12
ENDBRANCH   2  11
TORSDOF 4
