REMARK  Name = 
REMARK  7 active torsions:
REMARK  status: ('A' for Active; 'I' for Inactive)
REMARK    1  A    between atoms: C_2  and  C_3
REMARK    2  A    between atoms: C_3  and  N_4
REMARK    3  A    between atoms: N_4  and  C_5
REMARK    4  A    between atoms: C_5  and  C_6
REMARK    5  A    between atoms: C_6  and  N_7
REMARK    6  A    between atoms: N_12  and  C_13
REMARK    7  A    between atoms: C_13  and  C_20
REMARK                            x       y       z     vdW  Elec       q    Type
REMARK                         _______ _______ _______ _____ _____    ______ ____
ROOT
ATOM      1  O   UNL     1       2.933  -2.870   0.000  0.00  0.00    -0.272 OA
ATOM      2  C   UNL     1       2.933  -3.695   0.000  0.00  0.00    +0.260 C 
ATOM      3  N   UNL     1       3.647  -4.108   0.000  0.00  0.00    -0.193 NA
ENDROOT
BRANCH   3   4
ATOM      4  C   UNL     1       4.362  -3.695   0.000  0.00  0.00    +0.157 C 
ATOM      5  C   UNL     1       4.605  -4.483   0.000  0.00  0.00    +0.034 C 
ATOM      6  C   UNL     1       5.373  -4.785   0.000  0.00  0.00    +0.003 C 
ATOM      7  C   UNL     1       6.087  -4.372   0.000  0.00  0.00    +0.000 C 
ATOM      8  C   UNL     1       6.210  -3.557   0.000  0.00  0.00    +0.000 C 
ATOM      9  C   UNL     1       5.649  -2.952   0.000  0.00  0.00    +0.003 C 
ATOM     10  C   UNL     1       4.827  -3.013   0.000  0.00  0.00    +0.034 C 
BRANCH   4  11
ATOM     11  C   UNL     1       3.801  -3.090   0.000  0.00  0.00    +0.091 C 
ATOM     12  N   UNL     1       3.240  -2.486   0.000  0.00  0.00    -0.194 NA
ENDBRANCH   4  11
ENDBRANCH   3   4
BRANCH   2  13
ATOM     13  C   UNL     1       2.218  -4.108   0.000  0.00  0.00    +0.175 C 
BRANCH  13  14
ATOM     14  N   UNL     1       1.504  -3.695   0.000  0.00  0.00    -0.206 NA
BRANCH  14  15
ATOM     15  C   UNL     1       0.789  -4.108   0.000  0.00  0.00    +0.116 C 
BRANCH  15  16
ATOM     16  C   UNL     1       0.075  -3.695   0.000  0.00  0.00    +0.146 C 
BRANCH  16  17
ATOM     17  N   UNL     1      -0.639  -4.108   0.000  0.00  0.00    -0.248 N 
ATOM     18  N   UNL     1      -1.393  -3.772   0.000  0.00  0.00    -0.168 NA
ATOM     19  C   UNL     1      -1.945  -4.385   0.000  0.00  0.00    +0.122 A 
ATOM     20  C   UNL     1      -1.533  -5.100   0.000  0.00  0.00    +0.043 A 
ATOM     21  C   UNL     1      -0.726  -4.928   0.000  0.00  0.00    +0.097 A 
ENDBRANCH  16  17
ENDBRANCH  15  16
ENDBRANCH  14  15
ENDBRANCH  13  14
ENDBRANCH   2  13
TORSDOF 7
