REMARK  Name = 
REMARK  4 active torsions:
REMARK  status: ('A' for Active; 'I' for Inactive)
REMARK    1  A    between atoms: C_2  and  C_3
REMARK    2  A    between atoms: C_3  and  C_5
REMARK    3  A    between atoms: C_10  and  C_11
REMARK    4  A    between atoms: C_11  and  C_12
REMARK                            x       y       z     vdW  Elec       q    Type
REMARK                         _______ _______ _______ _____ _____    ______ ____
ROOT
ATOM      1  C   UNL     1       2.816  -2.408   0.000  0.00  0.00    +0.247 C 
ATOM      2  N   UNL     1       3.530  -1.996   0.000  0.00  0.00    -0.154 NA
ATOM      3  C   UNL     1       4.245  -2.408   0.000  0.00  0.00    +0.186 A 
ATOM      4  S   UNL     1       4.331  -3.229   0.000  0.00  0.00    -0.049 S 
ATOM      5  C   UNL     1       5.138  -3.400   0.000  0.00  0.00    +0.053 A 
ATOM      6  C   UNL     1       5.551  -2.686   0.000  0.00  0.00    +0.077 A 
ATOM      7  N   UNL     1       4.999  -2.073   0.000  0.00  0.00    -0.226 NA
ATOM      8  O   UNL     1       2.816  -3.233   0.000  0.00  0.00    -0.273 OA
ENDROOT
BRANCH   1   9
ATOM      9  C   UNL     1       2.102  -1.996   0.000  0.00  0.00    +0.079 C 
ATOM     10  C   UNL     1       2.102  -1.171   0.000  0.00  0.00    +0.010 C 
BRANCH   9  12
ATOM     11  C   UNL     1       0.672  -1.996   0.000  0.00  0.00    +0.001 C 
ATOM     12  C   UNL     1       1.387  -2.408   0.000  0.00  0.00    +0.009 C 
ENDBRANCH   9  12
ENDBRANCH   1   9
BRANCH   6  13
ATOM     13  C   UNL     1       6.371  -2.599   0.000  0.00  0.00    +0.135 C 
BRANCH  13  14
ATOM     14  C   UNL     1       6.856  -3.267   0.000  0.00  0.00    +0.267 C 
ATOM     15  N   UNL     1       6.520  -4.021   0.000  0.00  0.00    -0.087 NA
ATOM     16  O   UNL     1       7.676  -3.181   0.000  0.00  0.00    -0.271 OA
ENDBRANCH  13  14
ENDBRANCH   6  13
TORSDOF 4
