REMARK  Name = 
REMARK  1 active torsions:
REMARK  status: ('A' for Active; 'I' for Inactive)
REMARK    1  A    between atoms: C_6  and  C_9
REMARK                            x       y       z     vdW  Elec       q    Type
REMARK                         _______ _______ _______ _____ _____    ______ ____
ROOT
ATOM      1 CL   UNL     1       0.000   0.000   0.000  0.00  0.00    +0.000 Cl
ENDROOT
TORSDOF 0
REMARK  Name = 
REMARK  1 active torsions:
REMARK  status: ('A' for Active; 'I' for Inactive)
REMARK    1  A    between atoms: C_6  and  C_9
REMARK                            x       y       z     vdW  Elec       q    Type
REMARK                         _______ _______ _______ _____ _____    ______ ____
ROOT
ATOM      1 CL   UNL     1       2.004   0.000   0.000  0.00  0.00    +0.000 Cl
ENDROOT
TORSDOF 0
REMARK  Name = 
REMARK  1 active torsions:
REMARK  status: ('A' for Active; 'I' for Inactive)
REMARK    1  A    between atoms: C_6  and  C_9
REMARK                            x       y       z     vdW  Elec       q    Type
REMARK                         _______ _______ _______ _____ _____    ______ ____
ROOT
ATOM      1  C   UNL     1       0.279  -4.412   0.000  0.00  0.00    +0.158 C 
ATOM      2  C   UNL     1      -0.056  -5.166   0.000  0.00  0.00    +0.123 C 
ATOM      3  N   UNL     1      -0.877  -5.252   0.000  0.00  0.00    -0.130 NA
ATOM      4  C   UNL     1       0.429  -5.833   0.000  0.00  0.00    +0.024 C 
ATOM      5  C   UNL     1       1.249  -5.747   0.000  0.00  0.00    +0.034 C 
ATOM      6  C   UNL     1       1.585  -4.993   0.000  0.00  0.00    +0.143 C 
ATOM      7  O   UNL     1       1.100  -4.326   0.000  0.00  0.00    -0.350 OA
ENDROOT
BRANCH   1  12
ATOM      8  C   UNL     1      -0.618  -1.650   0.000  0.00  0.00    +0.154 C 
ATOM      9  N   UNL     1      -0.618  -2.475   0.000  0.00  0.00    -0.248 N 
ATOM     10  N   UNL     1      -1.286  -2.960   0.000  0.00  0.00    -0.168 NA
ATOM     11  C   UNL     1      -1.031  -3.744   0.000  0.00  0.00    +0.120 A 
ATOM     12  C   UNL     1      -0.206  -3.744   0.000  0.00  0.00    +0.046 A 
ATOM     13  C   UNL     1       0.049  -2.960   0.000  0.00  0.00    +0.095 A 
ENDBRANCH   1  12
TORSDOF 1
