REMARK  Name = 
REMARK  3 active torsions:
REMARK  status: ('A' for Active; 'I' for Inactive)
REMARK    1  A    between atoms: N_9  and  C_10
REMARK    2  A    between atoms: C_10  and  C_11
REMARK    3  A    between atoms: N_13  and  C_14
REMARK                            x       y       z     vdW  Elec       q    Type
REMARK                         _______ _______ _______ _____ _____    ______ ____
ROOT
ATOM      1  C   UNL     1      -3.572   3.712   0.000  0.00  0.00    +0.033 C 
ATOM      2  C   UNL     1      -2.858   3.300   0.000  0.00  0.00    -0.003 A 
ATOM      3  C   UNL     1      -2.858   2.475   0.000  0.00  0.00    +0.096 A 
ATOM      4  N   UNL     1      -2.143   2.062   0.000  0.00  0.00    -0.228 NA
ATOM      5  C   UNL     1      -1.429   2.475   0.000  0.00  0.00    +0.156 A 
ATOM      6  N   UNL     1      -0.715   2.062   0.000  0.00  0.00    -0.142 NA
ATOM      7  C   UNL     1       0.000   2.475   0.000  0.00  0.00    +0.345 C 
ATOM      8  N   UNL     1       0.715   2.062   0.000  0.00  0.00    -0.187 NA
ATOM      9  O   UNL     1       0.000   3.300   0.000  0.00  0.00    -0.249 OA
ATOM     10  C   UNL     1      -1.429   3.300   0.000  0.00  0.00    +0.036 A 
ATOM     11  C   UNL     1      -2.143   3.712   0.000  0.00  0.00    +0.000 A 
ENDROOT
BRANCH   8  12
ATOM     12  C   UNL     1       1.429   2.475   0.000  0.00  0.00    +0.119 C 
BRANCH  12  13
ATOM     13  C   UNL     1       2.143   2.062   0.000  0.00  0.00    +0.051 C 
ATOM     14  C   UNL     1       2.230   1.242   0.000  0.00  0.00    +0.089 C 
ATOM     15  C   UNL     1       3.037   1.071   0.000  0.00  0.00    +0.226 C 
ATOM     16  O   UNL     1       3.372   0.317   0.000  0.00  0.00    -0.275 OA
ATOM     17  N   UNL     1       3.449   1.785   0.000  0.00  0.00    -0.281 N 
ATOM     18  C   UNL     1       2.897   2.398   0.000  0.00  0.00    +0.096 C 
BRANCH  17  19
ATOM     19  C   UNL     1       4.270   1.871   0.000  0.00  0.00    +0.075 C 
ATOM     20  C   UNL     1       5.023   1.536   0.000  0.00  0.00    +0.022 C 
ATOM     21  C   UNL     1       4.937   2.356   0.000  0.00  0.00    +0.022 C 
ENDBRANCH  17  19
ENDBRANCH  12  13
ENDBRANCH   8  12
TORSDOF 3
