REMARK  Name = 
REMARK  4 active torsions:
REMARK  status: ('A' for Active; 'I' for Inactive)
REMARK    1  A    between atoms: C_2  and  C_3
REMARK    2  A    between atoms: N_12  and  C_13
REMARK    3  A    between atoms: C_13  and  C_14
REMARK    4  A    between atoms: C_14  and  C_15
REMARK                            x       y       z     vdW  Elec       q    Type
REMARK                         _______ _______ _______ _____ _____    ______ ____
ROOT
ATOM      1  C   UNL     1      -2.143  -0.412   0.000  0.00  0.00    +0.111 C 
ATOM      2  O   UNL     1      -1.429  -0.825   0.000  0.00  0.00    -0.355 OA
ATOM      3  C   UNL     1      -0.715  -0.412   0.000  0.00  0.00    +0.163 C 
ATOM      4  C   UNL     1      -0.715   0.412   0.000  0.00  0.00    +0.127 C 
ATOM      5  N   UNL     1      -1.429   0.825   0.000  0.00  0.00    -0.258 N 
ATOM      6  C   UNL     1      -1.429   1.650   0.000  0.00  0.00    +0.323 C 
ATOM      7  N   UNL     1      -0.715   2.062   0.000  0.00  0.00    -0.188 NA
ATOM      8  O   UNL     1      -2.143   2.062   0.000  0.00  0.00    -0.251 OA
ATOM      9  C   UNL     1      -2.143   0.412   0.000  0.00  0.00    +0.122 C 
ATOM     10  C   UNL     1      -2.426  -1.188   0.000  0.00  0.00    +0.031 C 
ENDROOT
BRANCH   1  12
ATOM     11  C   UNL     1      -3.238   0.506   0.000  0.00  0.00    +0.003 C 
ATOM     12  C   UNL     1      -2.956  -0.269   0.000  0.00  0.00    +0.029 C 
ENDBRANCH   1  12
BRANCH   7  13
ATOM     13  C   UNL     1       0.000   1.650   0.000  0.00  0.00    +0.123 C 
BRANCH  13  14
ATOM     14  C   UNL     1       0.715   2.062   0.000  0.00  0.00    +0.069 C 
BRANCH  14  15
ATOM     15  C   UNL     1       1.429   1.650   0.000  0.00  0.00    +0.059 A 
ATOM     16  N   UNL     1       1.515   0.830   0.000  0.00  0.00    -0.253 N 
ATOM     17  C   UNL     1       0.902   0.278   0.000  0.00  0.00    +0.153 C 
ATOM     18  N   UNL     1       2.322   0.658   0.000  0.00  0.00    -0.168 NA
ATOM     19  C   UNL     1       2.735   1.373   0.000  0.00  0.00    +0.121 A 
ATOM     20  C   UNL     1       2.183   1.986   0.000  0.00  0.00    +0.037 A 
ENDBRANCH  14  15
ENDBRANCH  13  14
ENDBRANCH   7  13
TORSDOF 4
