REMARK  Name = 
REMARK  5 active torsions:
REMARK  status: ('A' for Active; 'I' for Inactive)
REMARK    1  A    between atoms: C_2  and  C_3
REMARK    2  A    between atoms: C_2  and  N_9
REMARK    3  A    between atoms: C_3  and  N_4
REMARK    4  A    between atoms: C_10  and  C_12
REMARK    5  A    between atoms: C_12  and  C_13
REMARK                            x       y       z     vdW  Elec       q    Type
REMARK                         _______ _______ _______ _____ _____    ______ ____
ROOT
ATOM      1  N   UNL     1       4.592  -2.952   0.000  0.00  0.00    -0.205 NA
ATOM      2  C   UNL     1       5.307  -3.364   0.000  0.00  0.00    +0.242 C 
ATOM      3  O   UNL     1       5.307  -4.189   0.000  0.00  0.00    -0.273 OA
ENDROOT
BRANCH   1   5
ATOM      4  C   UNL     1       3.878  -4.189   0.000  0.00  0.00    +0.025 C 
ATOM      5  C   UNL     1       3.878  -3.364   0.000  0.00  0.00    +0.118 C 
BRANCH   5   6
ATOM      6  C   UNL     1       3.163  -2.952   0.000  0.00  0.00    +0.129 C 
BRANCH   6   7
ATOM      7  N   UNL     1       2.449  -3.364   0.000  0.00  0.00    -0.306 N 
ATOM      8  C   UNL     1       1.695  -3.029   0.000  0.00  0.00    +0.179 A 
ATOM      9  N   UNL     1       1.143  -3.642   0.000  0.00  0.00    -0.222 NA
ATOM     10  C   UNL     1       1.556  -4.356   0.000  0.00  0.00    +0.119 A 
ATOM     11  C   UNL     1       2.363  -4.185   0.000  0.00  0.00    +0.098 A 
ENDBRANCH   6   7
ENDBRANCH   5   6
ENDBRANCH   1   5
BRANCH   2  12
ATOM     12  C   UNL     1       6.021  -2.952   0.000  0.00  0.00    +0.091 C 
BRANCH  12  13
ATOM     13  C   UNL     1       6.736  -3.364   0.000  0.00  0.00    +0.031 C 
ATOM     14  C   UNL     1       6.822  -4.185   0.000  0.00  0.00    -0.031 C 
ATOM     15  C   UNL     1       7.629  -4.356   0.000  0.00  0.00    -0.031 C 
ATOM     16  C   UNL     1       8.041  -3.642   0.000  0.00  0.00    +0.026 C 
ATOM     17  C   UNL     1       7.489  -3.029   0.000  0.00  0.00    +0.009 C 
ENDBRANCH  12  13
ENDBRANCH   2  12
TORSDOF 5
