REMARK  Name = 
REMARK  5 active torsions:
REMARK  status: ('A' for Active; 'I' for Inactive)
REMARK    1  A    between atoms: O_2  and  C_3
REMARK    2  A    between atoms: C_3  and  C_4
REMARK    3  A    between atoms: C_6  and  N_7
REMARK    4  A    between atoms: N_10  and  C_11
REMARK    5  A    between atoms: C_15  and  C_17
REMARK                            x       y       z     vdW  Elec       q    Type
REMARK                         _______ _______ _______ _____ _____    ______ ____
ROOT
ATOM      1  N   UNL     1       0.000  -4.125   0.000  0.00  0.00    -0.142 NA
ATOM      2  C   UNL     1       0.715  -3.712   0.000  0.00  0.00    +0.345 C 
ATOM      3  N   UNL     1       1.429  -4.125   0.000  0.00  0.00    -0.189 NA
ATOM      4  O   UNL     1       0.715  -2.888   0.000  0.00  0.00    -0.249 OA
ENDROOT
BRANCH   1   9
ATOM      5  C   UNL     1      -1.429  -2.475   0.000  0.00  0.00    +0.093 A 
ATOM      6  N   UNL     1      -2.143  -2.888   0.000  0.00  0.00    -0.226 NA
ATOM      7  C   UNL     1      -2.143  -3.712   0.000  0.00  0.00    +0.200 A 
ATOM      8  N   UNL     1      -1.429  -4.125   0.000  0.00  0.00    -0.207 NA
ATOM      9  C   UNL     1      -0.715  -3.712   0.000  0.00  0.00    +0.159 A 
ATOM     10  C   UNL     1      -0.715  -2.888   0.000  0.00  0.00    +0.054 A 
BRANCH   5  11
ATOM     11  C   UNL     1      -1.429  -1.650   0.000  0.00  0.00    +0.188 C 
BRANCH  11  13
ATOM     12  C   UNL     1      -2.143  -0.412   0.000  0.00  0.00    +0.175 C 
ATOM     13  O   UNL     1      -2.143  -1.238   0.000  0.00  0.00    -0.345 OA
ENDBRANCH  11  13
ENDBRANCH   5  11
ENDBRANCH   1   9
BRANCH   3  14
ATOM     14  C   UNL     1       2.143  -3.712   0.000  0.00  0.00    +0.097 C 
ATOM     15  C   UNL     1       2.858  -4.125   0.000  0.00  0.00    +0.030 C 
ATOM     16  C   UNL     1       3.572  -3.712   0.000  0.00  0.00    +0.097 C 
ATOM     17  C   UNL     1       3.572  -2.888   0.000  0.00  0.00    +0.009 C 
ATOM     18  C   UNL     1       2.858  -2.475   0.000  0.00  0.00    +0.002 C 
ATOM     19  C   UNL     1       2.143  -2.888   0.000  0.00  0.00    +0.022 C 
BRANCH  16  20
ATOM     20  C   UNL     1       4.287  -4.125   0.000  0.00  0.00    +0.398 C 
ATOM     21  F   UNL     1       4.699  -3.410   0.000  0.00  0.00    -0.170 F 
ATOM     22  F   UNL     1       3.874  -4.840   0.000  0.00  0.00    -0.170 F 
ATOM     23  F   UNL     1       5.001  -4.537   0.000  0.00  0.00    -0.170 F 
ENDBRANCH  16  20
ENDBRANCH   3  14
TORSDOF 5
