REMARK  Name = 
REMARK  3 active torsions:
REMARK  status: ('A' for Active; 'I' for Inactive)
REMARK    1  A    between atoms: C_6  and  N_8
REMARK    2  A    between atoms: C_9  and  C_11
REMARK    3  A    between atoms: C_11  and  N_12
REMARK                            x       y       z     vdW  Elec       q    Type
REMARK                         _______ _______ _______ _____ _____    ______ ____
ROOT
ATOM      1  N   UNL     1       1.429  -4.125   0.000  0.00  0.00    -0.206 NA
ATOM      2  C   UNL     1       0.715  -3.712   0.000  0.00  0.00    +0.266 C 
ATOM      3  O   UNL     1       0.715  -2.888   0.000  0.00  0.00    -0.271 OA
ENDROOT
BRANCH   1   7
ATOM      4  C   UNL     1       2.858  -1.650   0.000  0.00  0.00    +0.000 C 
ATOM      5  C   UNL     1       2.858  -2.475   0.000  0.00  0.00    +0.002 C 
ATOM      6  C   UNL     1       2.143  -2.888   0.000  0.00  0.00    +0.022 C 
ATOM      7  C   UNL     1       2.143  -3.712   0.000  0.00  0.00    +0.095 C 
ATOM      8  C   UNL     1       2.858  -4.125   0.000  0.00  0.00    +0.022 C 
ATOM      9  C   UNL     1       3.572  -3.712   0.000  0.00  0.00    +0.002 C 
ATOM     10  C   UNL     1       3.572  -2.888   0.000  0.00  0.00    +0.000 C 
ENDBRANCH   1   7
BRANCH   2  11
ATOM     11  C   UNL     1       0.000  -4.125   0.000  0.00  0.00    +0.217 C 
BRANCH  11  12
ATOM     12  N   UNL     1      -0.715  -3.712   0.000  0.00  0.00    -0.204 N 
ATOM     13  C   UNL     1      -0.715  -2.888   0.000  0.00  0.00    +0.277 A 
ATOM     14  O   UNL     1       0.000  -2.475   0.000  0.00  0.00    -0.265 OA
ATOM     15  C   UNL     1      -1.429  -2.475   0.000  0.00  0.00    +0.067 A 
ATOM     16  C   UNL     1      -2.143  -2.888   0.000  0.00  0.00    +0.069 A 
ATOM     17  C   UNL     1      -2.143  -3.712   0.000  0.00  0.00    +0.295 A 
ATOM     18  O   UNL     1      -2.858  -4.125   0.000  0.00  0.00    -0.264 OA
ATOM     19  N   UNL     1      -1.429  -4.125   0.000  0.00  0.00    -0.124 NA
ENDBRANCH  11  12
ENDBRANCH   2  11
TORSDOF 3
