REMARK  Name = 
REMARK  6 active torsions:
REMARK  status: ('A' for Active; 'I' for Inactive)
REMARK    1  A    between atoms: N_2  and  C_10
REMARK    2  A    between atoms: N_4  and  C_6
REMARK    3  A    between atoms: C_10  and  C_14
REMARK    4  A    between atoms: C_14  and  C_19
REMARK    5  A    between atoms: C_16  and  C_21
REMARK    6  A    between atoms: C_21  and  O_24
REMARK                            x       y       z     vdW  Elec       q    Type
REMARK                         _______ _______ _______ _____ _____    ______ ____
ROOT
ATOM      1  C   UNL     1       2.562   0.825   0.000  0.00  0.00    +0.149 A 
ATOM      2  C   UNL     1       3.275   1.238   0.000  0.00  0.00    +0.154 A 
ATOM      3  N   UNL     1       3.992   0.825   0.000  0.00  0.00    -0.207 NA
ATOM      4  C   UNL     1       3.992   0.000   0.000  0.00  0.00    +0.201 A 
ATOM      5  N   UNL     1       3.275  -0.412   0.000  0.00  0.00    -0.205 NA
ATOM      6  N   UNL     1       1.779   1.083   0.000  0.00  0.00    -0.219 NA
ATOM      7  C   UNL     1       1.292   0.412   0.000  0.00  0.00    +0.180 A 
ATOM      8  N   UNL     1       1.779  -0.254   0.000  0.00  0.00    -0.294 N 
ATOM      9  C   UNL     1       2.562   0.000   0.000  0.00  0.00    +0.167 A 
ENDROOT
BRANCH   2  10
ATOM     10  N   UNL     1       3.275   2.062   0.000  0.00  0.00    -0.287 N 
ATOM     11  C   UNL     1       2.562   2.475   0.000  0.00  0.00    +0.122 C 
ATOM     12  C   UNL     1       2.562   3.300   0.000  0.00  0.00    +0.135 C 
ATOM     13  C   UNL     1       1.850   3.712   0.000  0.00  0.00    +0.034 C 
ATOM     14  O   UNL     1       3.275   3.712   0.000  0.00  0.00    -0.353 OA
ATOM     15  C   UNL     1       3.992   3.300   0.000  0.00  0.00    +0.164 C 
ATOM     16  C   UNL     1       3.992   2.475   0.000  0.00  0.00    +0.124 C 
BRANCH  15  17
ATOM     17  C   UNL     1       4.704   3.712   0.000  0.00  0.00    +0.173 C 
BRANCH  17  18
ATOM     18  O   UNL     1       4.704   4.533   0.000  0.00  0.00    -0.348 OA
ATOM     19  C   UNL     1       5.421   4.950   0.000  0.00  0.00    +0.174 C 
ENDBRANCH  17  18
ENDBRANCH  15  17
ENDBRANCH   2  10
BRANCH   8  20
ATOM     20  C   UNL     1       1.521  -1.038   0.000  0.00  0.00    +0.112 C 
BRANCH  20  21
ATOM     21  C   UNL     1       2.075  -1.650   0.000  0.00  0.00    +0.056 C 
ATOM     22  C   UNL     1       2.583  -1.000   0.000  0.00  0.00    +0.037 C 
ATOM     23  C   UNL     1       3.400  -1.117   0.000  0.00  0.00    +0.142 C 
ATOM     24  O   UNL     1       3.708  -1.879   0.000  0.00  0.00    -0.354 OA
ATOM     25  C   UNL     1       3.200  -2.529   0.000  0.00  0.00    +0.142 C 
ATOM     26  C   UNL     1       2.383  -2.417   0.000  0.00  0.00    +0.037 C 
BRANCH  21  27
ATOM     27  C   UNL     1       1.375  -2.087   0.000  0.00  0.00    +0.184 C 
ATOM     28  O   UNL     1       1.404  -2.913   0.000  0.00  0.00    -0.220 OA
ENDBRANCH  21  27
ENDBRANCH  20  21
ENDBRANCH   8  20
TORSDOF 6
