REMARK  Name = 
REMARK  4 active torsions:
REMARK  status: ('A' for Active; 'I' for Inactive)
REMARK    1  A    between atoms: N_8  and  C_9
REMARK    2  A    between atoms: C_9  and  C_10
REMARK    3  A    between atoms: C_10  and  C_11
REMARK    4  A    between atoms: C_11  and  C_12
REMARK                            x       y       z     vdW  Elec       q    Type
REMARK                         _______ _______ _______ _____ _____    ______ ____
ROOT
ATOM      1  C   UNL     1      -4.262  -2.040   0.000  0.00  0.00    +0.052 C 
ATOM      2  C   UNL     1      -3.442  -2.126   0.000  0.00  0.00    +0.063 A 
ATOM      3  C   UNL     1      -3.029  -2.841   0.000  0.00  0.00    +0.024 A 
ATOM      4  C   UNL     1      -3.365  -3.594   0.000  0.00  0.00    +0.039 C 
ATOM      5  S   UNL     1      -2.222  -2.669   0.000  0.00  0.00    -0.054 S 
ATOM      6  C   UNL     1      -2.136  -1.849   0.000  0.00  0.00    +0.187 A 
ATOM      7  N   UNL     1      -1.421  -1.436   0.000  0.00  0.00    -0.136 NA
ATOM      8  C   UNL     1      -0.707  -1.849   0.000  0.00  0.00    +0.345 C 
ATOM      9  N   UNL     1       0.007  -1.436   0.000  0.00  0.00    -0.187 NA
ATOM     10  O   UNL     1      -0.707  -2.674   0.000  0.00  0.00    -0.249 OA
ATOM     11  N   UNL     1      -2.890  -1.513   0.000  0.00  0.00    -0.227 NA
ENDROOT
BRANCH   9  12
ATOM     12  C   UNL     1       0.722  -1.849   0.000  0.00  0.00    +0.117 C 
BRANCH  12  13
ATOM     13  C   UNL     1       1.436  -1.436   0.000  0.00  0.00    +0.023 C 
ATOM     14  C   UNL     1       2.221  -1.181   0.000  0.00  0.00    +0.002 C 
ATOM     15  C   UNL     1       2.221  -0.356   0.000  0.00  0.00    +0.000 C 
ATOM     16  C   UNL     1       1.436  -0.101   0.000  0.00  0.00    +0.000 C 
ATOM     17  C   UNL     1       0.952  -0.769   0.000  0.00  0.00    +0.002 C 
BRANCH  13  18
ATOM     18  C   UNL     1       1.772  -2.190   0.000  0.00  0.00    +0.037 C 
BRANCH  18  19
ATOM     19  C   UNL     1       2.592  -2.276   0.000  0.00  0.00    +0.182 C 
ATOM     20  O   UNL     1       3.077  -1.609   0.000  0.00  0.00    -0.220 OA
ENDBRANCH  18  19
ENDBRANCH  13  18
ENDBRANCH  12  13
ENDBRANCH   9  12
TORSDOF 4
