REMARK  Name = 
REMARK  5 active torsions:
REMARK  status: ('A' for Active; 'I' for Inactive)
REMARK    1  A    between atoms: N_4  and  S_9
REMARK    2  A    between atoms: S_9  and  C_12
REMARK    3  A    between atoms: C_12  and  C_13
REMARK    4  A    between atoms: C_13  and  N_14
REMARK    5  A    between atoms: N_17  and  C_18
REMARK                            x       y       z     vdW  Elec       q    Type
REMARK                         _______ _______ _______ _____ _____    ______ ____
ROOT
ATOM      1  C   UNL     1       6.430  -6.188   0.000  0.00  0.00    +0.192 C 
ENDROOT
BRANCH   1   2
ATOM      2  S   UNL     1       5.716  -5.775   0.000  0.00  0.00    +0.046 S 
ATOM      3  O   UNL     1       6.128  -5.061   0.000  0.00  0.00    -0.157 OA
ATOM      4  O   UNL     1       5.303  -6.489   0.000  0.00  0.00    -0.157 OA
BRANCH   2  11
ATOM      5  C   UNL     1       4.287  -3.300   0.000  0.00  0.00    +0.034 C 
ATOM      6  C   UNL     1       4.287  -4.125   0.000  0.00  0.00    +0.133 C 
ATOM      7  O   UNL     1       3.572  -4.537   0.000  0.00  0.00    -0.356 OA
ATOM      8  C   UNL     1       3.572  -5.362   0.000  0.00  0.00    +0.133 C 
ATOM      9  C   UNL     1       2.858  -5.775   0.000  0.00  0.00    +0.034 C 
ATOM     10  C   UNL     1       4.287  -5.775   0.000  0.00  0.00    +0.125 C 
ATOM     11  N   UNL     1       5.001  -5.362   0.000  0.00  0.00    -0.154 NA
ATOM     12  C   UNL     1       5.001  -4.537   0.000  0.00  0.00    +0.125 C 
ENDBRANCH   2  11
ENDBRANCH   1   2
BRANCH   1  13
ATOM     13  C   UNL     1       6.430  -7.013   0.000  0.00  0.00    +0.144 C 
BRANCH  13  14
ATOM     14  N   UNL     1       7.145  -7.425   0.000  0.00  0.00    -0.185 NA
ATOM     15  C   UNL     1       7.145  -8.250   0.000  0.00  0.00    +0.344 C 
ATOM     16  N   UNL     1       7.859  -8.662   0.000  0.00  0.00    -0.159 NA
ATOM     17  O   UNL     1       6.430  -8.662   0.000  0.00  0.00    -0.249 OA
BRANCH  16  18
ATOM     18  C   UNL     1       7.859  -9.488   0.000  0.00  0.00    +0.094 A 
ATOM     19  C   UNL     1       7.145  -9.900   0.000  0.00  0.00    +0.115 A 
ATOM     20  N   UNL     1       7.145 -10.725   0.000  0.00  0.00    -0.241 NA
ATOM     21  C   UNL     1       7.859 -11.137   0.000  0.00  0.00    +0.099 A 
ATOM     22  C   UNL     1       8.574 -10.725   0.000  0.00  0.00    +0.022 A 
ATOM     23  C   UNL     1       8.574  -9.900   0.000  0.00  0.00    +0.020 A 
ENDBRANCH  16  18
ENDBRANCH  13  14
ENDBRANCH   1  13
TORSDOF 5
