REMARK  Name = 
REMARK  7 active torsions:
REMARK  status: ('A' for Active; 'I' for Inactive)
REMARK    1  A    between atoms: O_2  and  C_3
REMARK    2  A    between atoms: C_3  and  C_4
REMARK    3  A    between atoms: C_4  and  N_5
REMARK    4  A    between atoms: C_7  and  C_12
REMARK    5  A    between atoms: N_14  and  C_15
REMARK    6  A    between atoms: C_15  and  C_16
REMARK    7  A    between atoms: C_16  and  C_22
REMARK                            x       y       z     vdW  Elec       q    Type
REMARK                         _______ _______ _______ _____ _____    ______ ____
ROOT
ATOM      1  C   UNL     1       2.357  -4.827   0.000  0.00  0.00    +0.284 C 
ATOM      2  N   UNL     1       3.072  -4.415   0.000  0.00  0.00    -0.200 NA
ATOM      3  O   UNL     1       2.357  -5.652   0.000  0.00  0.00    -0.267 OA
ENDROOT
BRANCH   1   9
ATOM      4  N   UNL     1       0.929  -3.177   0.000  0.00  0.00    -0.214 N 
ATOM      5  C   UNL     1       0.214  -3.590   0.000  0.00  0.00    +0.277 A 
ATOM      6  O   UNL     1      -0.500  -3.177   0.000  0.00  0.00    -0.266 OA
ATOM      7  C   UNL     1       0.214  -4.415   0.000  0.00  0.00    +0.064 A 
ATOM      8  C   UNL     1       0.929  -4.827   0.000  0.00  0.00    +0.030 A 
ATOM      9  C   UNL     1       1.643  -4.415   0.000  0.00  0.00    +0.156 A 
ATOM     10  N   UNL     1       1.643  -3.590   0.000  0.00  0.00    -0.162 NA
BRANCH   4  11
ATOM     11  C   UNL     1       0.929  -2.352   0.000  0.00  0.00    +0.163 C 
BRANCH  11  12
ATOM     12  C   UNL     1       0.214  -1.940   0.000  0.00  0.00    +0.169 C 
BRANCH  12  14
ATOM     13  C   UNL     1      -0.500  -0.702   0.000  0.00  0.00    +0.174 C 
ATOM     14  O   UNL     1       0.214  -1.115   0.000  0.00  0.00    -0.349 OA
ENDBRANCH  12  14
ENDBRANCH  11  12
ENDBRANCH   4  11
ENDBRANCH   1   9
BRANCH   2  15
ATOM     15  C   UNL     1       3.787  -4.827   0.000  0.00  0.00    +0.124 C 
BRANCH  15  16
ATOM     16  C   UNL     1       4.501  -4.415   0.000  0.00  0.00    +0.097 C 
ATOM     17  C   UNL     1       4.783  -5.190   0.000  0.00  0.00    +0.043 C 
ATOM     18  C   UNL     1       5.596  -5.333   0.000  0.00  0.00    +0.143 C 
ATOM     19  O   UNL     1       6.126  -4.701   0.000  0.00  0.00    -0.354 OA
ATOM     20  C   UNL     1       5.844  -3.926   0.000  0.00  0.00    +0.143 C 
ATOM     21  C   UNL     1       5.031  -3.783   0.000  0.00  0.00    +0.043 C 
BRANCH  16  22
ATOM     22  C   UNL     1       3.971  -3.783   0.000  0.00  0.00    +0.262 C 
ATOM     23  N   UNL     1       3.158  -3.926   0.000  0.00  0.00    -0.088 NA
ATOM     24  O   UNL     1       4.253  -3.007   0.000  0.00  0.00    -0.272 OA
ENDBRANCH  16  22
ENDBRANCH  15  16
ENDBRANCH   2  15
TORSDOF 7
