REMARK  Name = 
REMARK  7 active torsions:
REMARK  status: ('A' for Active; 'I' for Inactive)
REMARK    1  A    between atoms: O_2  and  C_3
REMARK    2  A    between atoms: C_3  and  C_4
REMARK    3  A    between atoms: C_4  and  N_5
REMARK    4  A    between atoms: C_9  and  C_10
REMARK    5  A    between atoms: C_10  and  N_11
REMARK    6  A    between atoms: C_12  and  C_14
REMARK    7  A    between atoms: C_14  and  N_15
REMARK                            x       y       z     vdW  Elec       q    Type
REMARK                         _______ _______ _______ _____ _____    ______ ____
ROOT
ATOM      1  N   UNL     1       1.429  -2.475   0.000  0.00  0.00    -0.202 NA
ATOM      2  C   UNL     1       2.143  -2.888   0.000  0.00  0.00    +0.265 C 
ATOM      3  O   UNL     1       2.143  -3.712   0.000  0.00  0.00    -0.271 OA
ENDROOT
BRANCH   2   4
ATOM      4  C   UNL     1       2.858  -2.475   0.000  0.00  0.00    +0.197 C 
BRANCH   4   5
ATOM      5  N   UNL     1       3.572  -2.888   0.000  0.00  0.00    -0.271 N 
ATOM      6  C   UNL     1       3.572  -3.712   0.000  0.00  0.00    +0.334 A 
ATOM      7  O   UNL     1       2.858  -4.125   0.000  0.00  0.00    -0.246 OA
ATOM      8  N   UNL     1       4.287  -4.125   0.000  0.00  0.00    -0.247 N 
ATOM      9  C   UNL     1       4.287  -4.950   0.000  0.00  0.00    +0.138 C 
ATOM     10  C   UNL     1       5.001  -3.712   0.000  0.00  0.00    +0.266 A 
ATOM     11  O   UNL     1       5.716  -4.125   0.000  0.00  0.00    -0.267 OA
ATOM     12  C   UNL     1       5.001  -2.888   0.000  0.00  0.00    +0.080 A 
ATOM     13  C   UNL     1       4.287  -2.475   0.000  0.00  0.00    +0.085 A 
ENDBRANCH   4   5
ENDBRANCH   2   4
BRANCH   1  14
ATOM     14  C   UNL     1       0.715  -2.888   0.000  0.00  0.00    +0.131 C 
BRANCH  14  16
ATOM     15  N   UNL     1      -0.754  -2.811   0.000  0.00  0.00    -0.270 NA
ATOM     16  C   UNL     1       0.000  -2.475   0.000  0.00  0.00    +0.079 C 
ATOM     17  C   UNL     1      -0.086  -1.655   0.000  0.00  0.00    +0.019 C 
ATOM     18  C   UNL     1      -0.893  -1.483   0.000  0.00  0.00    +0.019 C 
ATOM     19  C   UNL     1      -1.306  -2.197   0.000  0.00  0.00    +0.072 C 
BRANCH  15  20
ATOM     20  C   UNL     1      -0.925  -3.618   0.000  0.00  0.00    +0.105 C 
BRANCH  20  21
ATOM     21  C   UNL     1      -1.710  -3.873   0.000  0.00  0.00    +0.160 C 
BRANCH  21  23
ATOM     22  C   UNL     1      -2.666  -4.934   0.000  0.00  0.00    +0.174 C 
ATOM     23  O   UNL     1      -1.881  -4.679   0.000  0.00  0.00    -0.350 OA
ENDBRANCH  21  23
ENDBRANCH  20  21
ENDBRANCH  15  20
ENDBRANCH  14  16
ENDBRANCH   1  14
TORSDOF 7
