REMARK  Name = 
REMARK  6 active torsions:
REMARK  status: ('A' for Active; 'I' for Inactive)
REMARK    1  A    between atoms: O_2  and  C_3
REMARK    2  A    between atoms: C_3  and  C_4
REMARK    3  A    between atoms: N_6  and  C_7
REMARK    4  A    between atoms: C_7  and  C_8
REMARK    5  A    between atoms: C_8  and  N_9
REMARK    6  A    between atoms: C_10  and  C_12
REMARK                            x       y       z     vdW  Elec       q    Type
REMARK                         _______ _______ _______ _____ _____    ______ ____
ROOT
ATOM      1  C   UNL     1       1.387  -2.408   0.000  0.00  0.00    +0.157 C 
ENDROOT
BRANCH   1   6
ATOM      2  C   UNL     1      -0.221  -1.004   0.000  0.00  0.00    +0.257 A 
ATOM      3  O   UNL     1      -0.633  -1.718   0.000  0.00  0.00    -0.389 OA
ATOM      4  C   UNL     1      -0.081  -2.331   0.000  0.00  0.00    +0.439 A 
ATOM      5  O   UNL     1      -0.253  -3.138   0.000  0.00  0.00    -0.221 OA
ATOM      6  N   UNL     1       0.672  -1.996   0.000  0.00  0.00    -0.181 N 
ATOM      7  N   UNL     1       0.586  -1.175   0.000  0.00  0.00    -0.128 NA
BRANCH   2   8
ATOM      8  C   UNL     1      -0.556  -0.250   0.000  0.00  0.00    +0.229 C 
BRANCH   8  10
ATOM      9  C   UNL     1      -1.712   0.590   0.000  0.00  0.00    +0.175 C 
ATOM     10  O   UNL     1      -1.377  -0.164   0.000  0.00  0.00    -0.342 OA
ENDBRANCH   8  10
ENDBRANCH   2   8
ENDBRANCH   1   6
BRANCH   1  11
ATOM     11  C   UNL     1       2.102  -1.996   0.000  0.00  0.00    +0.142 C 
BRANCH  11  12
ATOM     12  N   UNL     1       2.816  -2.408   0.000  0.00  0.00    -0.203 NA
ATOM     13  C   UNL     1       3.530  -1.996   0.000  0.00  0.00    +0.241 C 
ATOM     14  O   UNL     1       3.530  -1.171   0.000  0.00  0.00    -0.273 OA
BRANCH  13  15
ATOM     15  C   UNL     1       4.245  -2.408   0.000  0.00  0.00    +0.078 C 
ATOM     16  C   UNL     1       4.331  -3.229   0.000  0.00  0.00    +0.009 C 
ATOM     17  C   UNL     1       5.138  -3.400   0.000  0.00  0.00    +0.001 C 
ATOM     18  C   UNL     1       5.551  -2.686   0.000  0.00  0.00    +0.001 C 
ATOM     19  C   UNL     1       4.999  -2.073   0.000  0.00  0.00    +0.009 C 
ENDBRANCH  13  15
ENDBRANCH  11  12
ENDBRANCH   1  11
TORSDOF 6
