REMARK  Name = 
REMARK  6 active torsions:
REMARK  status: ('A' for Active; 'I' for Inactive)
REMARK    1  A    between atoms: C_2  and  C_4
REMARK    2  A    between atoms: C_4  and  C_7
REMARK    3  A    between atoms: C_7  and  O_8
REMARK    4  A    between atoms: O_8  and  C_9
REMARK    5  A    between atoms: C_12  and  N_13
REMARK    6  A    between atoms: N_13  and  C_14
REMARK                            x       y       z     vdW  Elec       q    Type
REMARK                         _______ _______ _______ _____ _____    ______ ____
ROOT
ATOM      1  C   UNL     1      -0.107   5.590   0.000  0.00  0.00    +0.225 A 
ATOM      2  N   UNL     1      -0.107   4.765   0.000  0.00  0.00    -0.209 NA
ATOM      3  C   UNL     1       0.608   4.353   0.000  0.00  0.00    +0.118 A 
ATOM      4  C   UNL     1       1.322   4.765   0.000  0.00  0.00    +0.085 A 
ATOM      5  C   UNL     1       1.322   5.590   0.000  0.00  0.00    +0.022 A 
ATOM      6  C   UNL     1       0.608   6.003   0.000  0.00  0.00    +0.059 A 
ENDROOT
BRANCH   4   7
ATOM      7  N   UNL     1       2.037   4.353   0.000  0.00  0.00    -0.235 NA
BRANCH   7   8
ATOM      8  C   UNL     1       2.037   3.528   0.000  0.00  0.00    +0.125 C 
ATOM      9  C   UNL     1       1.369   3.043   0.000  0.00  0.00    +0.164 C 
ATOM     10  O   UNL     1       1.624   2.258   0.000  0.00  0.00    -0.352 OA
ATOM     11  C   UNL     1       2.449   2.258   0.000  0.00  0.00    +0.144 C 
ATOM     12  C   UNL     1       2.704   3.043   0.000  0.00  0.00    +0.056 C 
ENDBRANCH   7   8
ENDBRANCH   4   7
BRANCH   1  13
ATOM     13  O   UNL     1      -0.821   6.003   0.000  0.00  0.00    -0.454 OA
BRANCH  13  14
ATOM     14  C   UNL     1      -1.536   5.590   0.000  0.00  0.00    +0.279 C 
BRANCH  14  15
ATOM     15  C   UNL     1      -2.250   6.003   0.000  0.00  0.00    +0.363 C 
ATOM     16  F   UNL     1      -1.838   6.717   0.000  0.00  0.00    -0.194 F 
ATOM     17  F   UNL     1      -2.663   5.288   0.000  0.00  0.00    -0.194 F 
BRANCH  15  19
ATOM     18  F   UNL     1      -3.679   6.003   0.000  0.00  0.00    -0.192 F 
ATOM     19  C   UNL     1      -2.965   6.415   0.000  0.00  0.00    +0.382 C 
ATOM     20  F   UNL     1      -2.965   7.240   0.000  0.00  0.00    -0.192 F 
ENDBRANCH  15  19
ENDBRANCH  14  15
ENDBRANCH  13  14
ENDBRANCH   1  13
TORSDOF 6
