REMARK  Name = 
REMARK  2 active torsions:
REMARK  status: ('A' for Active; 'I' for Inactive)
REMARK    1  A    between atoms: C_2  and  C_5
REMARK    2  A    between atoms: N_12  and  C_13
REMARK                            x       y       z     vdW  Elec       q    Type
REMARK                         _______ _______ _______ _____ _____    ______ ____
ROOT
ATOM      1  C   UNL     1      -2.784  -0.422   0.000  0.00  0.00    +0.080 A 
ATOM      2  N   UNL     1      -3.498  -0.834   0.000  0.00  0.00    -0.151 NA
ATOM      3  N   UNL     1      -3.498  -1.659   0.000  0.00  0.00    -0.131 NA
ATOM      4  C   UNL     1      -2.784  -2.072   0.000  0.00  0.00    +0.177 A 
ATOM      5  N   UNL     1      -2.784  -2.897   0.000  0.00  0.00    -0.140 NA
ATOM      6  C   UNL     1      -2.069  -3.309   0.000  0.00  0.00    +0.345 C 
ATOM      7  N   UNL     1      -2.069  -4.134   0.000  0.00  0.00    -0.190 NA
ATOM      8  O   UNL     1      -1.355  -2.897   0.000  0.00  0.00    -0.249 OA
ATOM      9  C   UNL     1      -2.069  -1.659   0.000  0.00  0.00    +0.039 A 
ATOM     10  C   UNL     1      -2.069  -0.834   0.000  0.00  0.00    +0.019 A 
ENDROOT
BRANCH   7  11
ATOM     11  C   UNL     1      -1.355  -4.547   0.000  0.00  0.00    +0.085 C 
ATOM     12  C   UNL     1      -0.824  -5.179   0.000  0.00  0.00    +0.052 C 
ATOM     13  C   UNL     1      -0.012  -5.035   0.000  0.00  0.00    +0.144 C 
ATOM     14  O   UNL     1       0.270  -4.260   0.000  0.00  0.00    -0.354 OA
ATOM     15  C   UNL     1      -0.260  -3.628   0.000  0.00  0.00    +0.144 C 
ATOM     16  C   UNL     1      -1.072  -3.771   0.000  0.00  0.00    +0.052 C 
ATOM     17  C   UNL     1      -1.885  -5.179   0.000  0.00  0.00    +0.022 C 
ENDBRANCH   7  11
BRANCH   1  19
ATOM     18  C   UNL     1      -2.784   1.228   0.000  0.00  0.00    +0.006 C 
ATOM     19  C   UNL     1      -2.784   0.403   0.000  0.00  0.00    +0.037 C 
ATOM     20  C   UNL     1      -1.958   0.403   0.000  0.00  0.00    +0.006 C 
ATOM     21  C   UNL     1      -3.608   0.403   0.000  0.00  0.00    +0.006 C 
ENDBRANCH   1  19
TORSDOF 2
