REMARK  Name = 
REMARK  6 active torsions:
REMARK  status: ('A' for Active; 'I' for Inactive)
REMARK    1  A    between atoms: O_2  and  C_3
REMARK    2  A    between atoms: C_3  and  C_4
REMARK    3  A    between atoms: C_4  and  N_5
REMARK    4  A    between atoms: N_18  and  C_19
REMARK    5  A    between atoms: C_19  and  C_20
REMARK    6  A    between atoms: C_20  and  O_21
REMARK                            x       y       z     vdW  Elec       q    Type
REMARK                         _______ _______ _______ _____ _____    ______ ____
ROOT
ATOM      1  N   UNL     1       4.785  -2.735   0.000  0.00  0.00    -0.203 NA
ATOM      2  C   UNL     1       5.500  -3.147   0.000  0.00  0.00    +0.219 A 
ATOM      3  N   UNL     1       5.586  -3.968   0.000  0.00  0.00    -0.291 N 
ATOM      4  C   UNL     1       6.393  -4.139   0.000  0.00  0.00    +0.154 A 
ATOM      5  C   UNL     1       6.806  -3.425   0.000  0.00  0.00    +0.171 A 
ATOM      6  N   UNL     1       7.631  -3.425   0.000  0.00  0.00    -0.263 N 
ATOM      7  C   UNL     1       8.043  -4.139   0.000  0.00  0.00    +0.335 A 
ATOM      8  N   UNL     1       7.631  -4.854   0.000  0.00  0.00    -0.245 N 
ATOM      9  C   UNL     1       8.043  -5.568   0.000  0.00  0.00    +0.138 C 
ATOM     10  O   UNL     1       8.868  -4.139   0.000  0.00  0.00    -0.246 OA
ATOM     11  C   UNL     1       8.043  -2.710   0.000  0.00  0.00    +0.137 C 
ATOM     12  C   UNL     1       6.806  -4.854   0.000  0.00  0.00    +0.283 A 
ATOM     13  O   UNL     1       6.393  -5.568   0.000  0.00  0.00    -0.265 OA
ATOM     14  N   UNL     1       6.254  -2.812   0.000  0.00  0.00    -0.195 NA
ENDROOT
BRANCH   1  15
ATOM     15  C   UNL     1       4.071  -3.147   0.000  0.00  0.00    +0.147 C 
BRANCH  15  16
ATOM     16  C   UNL     1       3.357  -2.735   0.000  0.00  0.00    +0.166 C 
BRANCH  16  18
ATOM     17  C   UNL     1       1.927  -2.735   0.000  0.00  0.00    +0.174 C 
ATOM     18  O   UNL     1       2.642  -3.147   0.000  0.00  0.00    -0.349 OA
ENDBRANCH  16  18
ENDBRANCH  15  16
ENDBRANCH   1  15
BRANCH   3  19
ATOM     19  C   UNL     1       4.973  -4.520   0.000  0.00  0.00    +0.141 C 
BRANCH  19  20
ATOM     20  C   UNL     1       4.188  -4.265   0.000  0.00  0.00    +0.167 C 
BRANCH  20  21
ATOM     21  O   UNL     1       3.575  -4.817   0.000  0.00  0.00    -0.349 OA
ATOM     22  C   UNL     1       2.791  -4.562   0.000  0.00  0.00    +0.174 C 
ENDBRANCH  20  21
ENDBRANCH  19  20
ENDBRANCH   3  19
TORSDOF 6
