REMARK  Name = 
REMARK  3 active torsions:
REMARK  status: ('A' for Active; 'I' for Inactive)
REMARK    1  A    between atoms: O_2  and  C_3
REMARK    2  A    between atoms: C_4  and  N_5
REMARK    3  A    between atoms: N_8  and  C_9
REMARK                            x       y       z     vdW  Elec       q    Type
REMARK                         _______ _______ _______ _____ _____    ______ ____
ROOT
ATOM      1  C   UNL     1       1.070  -0.469   0.000  0.00  0.00    +0.239 A 
ATOM      2  N   UNL     1       1.622   0.144   0.000  0.00  0.00    -0.217 N 
ATOM      3  C   UNL     1       2.442   0.058   0.000  0.00  0.00    +0.157 C 
ATOM      4  N   UNL     1       1.210   0.859   0.000  0.00  0.00    -0.170 NA
ATOM      5  C   UNL     1       0.403   0.687   0.000  0.00  0.00    +0.099 A 
ATOM      6  C   UNL     1      -0.210   1.239   0.000  0.00  0.00    +0.056 C 
ATOM      7  C   UNL     1       0.316  -0.133   0.000  0.00  0.00    +0.143 A 
ENDROOT
BRANCH   7   8
ATOM      8  N   UNL     1      -0.398  -0.546   0.000  0.00  0.00    -0.155 NA
ATOM      9  C   UNL     1      -0.398  -1.371   0.000  0.00  0.00    +0.344 C 
ATOM     10  N   UNL     1      -1.113  -1.783   0.000  0.00  0.00    -0.189 NA
ATOM     11  O   UNL     1       0.316  -1.783   0.000  0.00  0.00    -0.249 OA
BRANCH  10  12
ATOM     12  C   UNL     1      -1.113  -2.608   0.000  0.00  0.00    +0.097 C 
ATOM     13  C   UNL     1      -1.525  -3.323   0.000  0.00  0.00    +0.022 C 
ATOM     14  C   UNL     1      -2.240  -3.735   0.000  0.00  0.00    +0.002 C 
ATOM     15  C   UNL     1      -0.700  -3.323   0.000  0.00  0.00    +0.023 C 
ENDBRANCH  10  12
ENDBRANCH   7   8
BRANCH   1  17
ATOM     16  C   UNL     1       2.026  -1.531   0.000  0.00  0.00    +0.254 C 
ATOM     17  O   UNL     1       1.242  -1.276   0.000  0.00  0.00    -0.455 OA
ENDBRANCH   1  17
TORSDOF 3
