REMARK  Name = 
REMARK  4 active torsions:
REMARK  status: ('A' for Active; 'I' for Inactive)
REMARK    1  A    between atoms: C_2  and  C_3
REMARK    2  A    between atoms: N_12  and  C_13
REMARK    3  A    between atoms: C_13  and  C_14
REMARK    4  A    between atoms: C_14  and  C_17
REMARK                            x       y       z     vdW  Elec       q    Type
REMARK                         _______ _______ _______ _____ _____    ______ ____
ROOT
ATOM      1  C   UNL     1       2.858  -3.300   0.000  0.00  0.00    +0.111 C 
ATOM      2  O   UNL     1       2.143  -3.712   0.000  0.00  0.00    -0.355 OA
ATOM      3  C   UNL     1       2.143  -4.537   0.000  0.00  0.00    +0.163 C 
ATOM      4  C   UNL     1       2.858  -4.950   0.000  0.00  0.00    +0.127 C 
ATOM      5  N   UNL     1       3.572  -4.537   0.000  0.00  0.00    -0.258 N 
ATOM      6  C   UNL     1       4.287  -4.950   0.000  0.00  0.00    +0.323 C 
ATOM      7  N   UNL     1       4.287  -5.775   0.000  0.00  0.00    -0.188 NA
ATOM      8  O   UNL     1       5.001  -4.537   0.000  0.00  0.00    -0.251 OA
ATOM      9  C   UNL     1       3.572  -3.712   0.000  0.00  0.00    +0.122 C 
ATOM     10  C   UNL     1       2.328  -2.668   0.000  0.00  0.00    +0.031 C 
ENDROOT
BRANCH   1  12
ATOM     11  C   UNL     1       4.201  -2.811   0.000  0.00  0.00    +0.003 C 
ATOM     12  C   UNL     1       3.388  -2.668   0.000  0.00  0.00    +0.029 C 
ENDBRANCH   1  12
BRANCH   7  13
ATOM     13  C   UNL     1       5.001  -6.188   0.000  0.00  0.00    +0.121 C 
BRANCH  13  14
ATOM     14  C   UNL     1       5.001  -7.013   0.000  0.00  0.00    +0.039 C 
ATOM     15  C   UNL     1       5.826  -7.013   0.000  0.00  0.00    +0.006 C 
ATOM     16  C   UNL     1       4.176  -7.013   0.000  0.00  0.00    +0.006 C 
BRANCH  14  17
ATOM     17  C   UNL     1       5.001  -7.838   0.000  0.00  0.00    -0.018 A 
ATOM     18  C   UNL     1       4.287  -8.250   0.000  0.00  0.00    +0.016 A 
ATOM     19  C   UNL     1       4.287  -9.075   0.000  0.00  0.00    +0.099 A 
ATOM     20  N   UNL     1       5.001  -9.488   0.000  0.00  0.00    -0.242 NA
ATOM     21  C   UNL     1       5.716  -9.075   0.000  0.00  0.00    +0.099 A 
ATOM     22  C   UNL     1       5.716  -8.250   0.000  0.00  0.00    +0.016 A 
ENDBRANCH  14  17
ENDBRANCH  13  14
ENDBRANCH   7  13
TORSDOF 4
