REMARK  Name = 
REMARK  3 active torsions:
REMARK  status: ('A' for Active; 'I' for Inactive)
REMARK    1  A    between atoms: C_2  and  C_3
REMARK    2  A    between atoms: C_13  and  C_14
REMARK    3  A    between atoms: C_14  and  C_15
REMARK                            x       y       z     vdW  Elec       q    Type
REMARK                         _______ _______ _______ _____ _____    ______ ____
ROOT
ATOM      1  C   UNL     1       0.715  -1.238   0.000  0.00  0.00    +0.091 A 
ATOM      2  C   UNL     1       1.429  -1.650   0.000  0.00  0.00    +0.185 A 
ATOM      3  F   UNL     1       2.143  -1.238   0.000  0.00  0.00    -0.200 F 
ATOM      4  C   UNL     1       1.429  -2.475   0.000  0.00  0.00    +0.162 A 
ATOM      5  N   UNL     1       2.143  -2.888   0.000  0.00  0.00    -0.288 N 
ATOM      6  C   UNL     1       2.143  -3.712   0.000  0.00  0.00    +0.106 C 
ATOM      7  C   UNL     1       2.858  -4.125   0.000  0.00  0.00    +0.162 C 
ATOM      8  O   UNL     1       3.572  -3.712   0.000  0.00  0.00    -0.350 OA
ATOM      9  C   UNL     1       3.572  -2.888   0.000  0.00  0.00    +0.164 C 
ATOM     10  C   UNL     1       2.858  -2.475   0.000  0.00  0.00    +0.124 C 
ATOM     11  N   UNL     1       0.715  -2.888   0.000  0.00  0.00    -0.207 NA
ATOM     12  C   UNL     1       0.000  -2.475   0.000  0.00  0.00    +0.200 A 
ATOM     13  N   UNL     1       0.000  -1.650   0.000  0.00  0.00    -0.226 NA
ENDROOT
BRANCH   1  15
ATOM     14  C   UNL     1       1.429   0.000   0.000  0.00  0.00    +0.007 C 
ATOM     15  C   UNL     1       0.715  -0.412   0.000  0.00  0.00    +0.048 C 
ENDBRANCH   1  15
BRANCH   6  16
ATOM     16  C   UNL     1       1.429  -4.125   0.000  0.00  0.00    +0.058 C 
BRANCH  16  17
ATOM     17  C   UNL     1       0.715  -3.712   0.000  0.00  0.00    +0.184 C 
ATOM     18  O   UNL     1       0.000  -4.125   0.000  0.00  0.00    -0.220 OA
ENDBRANCH  16  17
ENDBRANCH   6  16
TORSDOF 3
