REMARK  Name = 
REMARK  5 active torsions:
REMARK  status: ('A' for Active; 'I' for Inactive)
REMARK    1  A    between atoms: C_2  and  C_3
REMARK    2  A    between atoms: C_3  and  C_4
REMARK    3  A    between atoms: C_4  and  C_5
REMARK    4  A    between atoms: N_13  and  C_14
REMARK    5  A    between atoms: C_14  and  C_15
REMARK                            x       y       z     vdW  Elec       q    Type
REMARK                         _______ _______ _______ _____ _____    ______ ____
ROOT
ATOM      1  C   UNL     1       0.654  -0.698   0.000  0.00  0.00    +0.120 A 
ATOM      2  N   UNL     1       1.139  -1.365   0.000  0.00  0.00    -0.312 N 
ATOM      3  C   UNL     1       1.923  -1.110   0.000  0.00  0.00    +0.079 A 
ATOM      4  C   UNL     1       1.923  -0.285   0.000  0.00  0.00    +0.098 A 
ATOM      5  C   UNL     1       2.638   0.127   0.000  0.00  0.00    +0.021 A 
ATOM      6  C   UNL     1       3.352  -0.285   0.000  0.00  0.00    +0.002 A 
ATOM      7  C   UNL     1       3.352  -1.110   0.000  0.00  0.00    +0.002 A 
ATOM      8  C   UNL     1       2.638  -1.523   0.000  0.00  0.00    +0.019 A 
ATOM      9  N   UNL     1       1.139  -0.030   0.000  0.00  0.00    -0.231 NA
ENDROOT
BRANCH   1  10
ATOM     10  C   UNL     1      -0.171  -0.698   0.000  0.00  0.00    +0.067 C 
BRANCH  10  11
ATOM     11  C   UNL     1      -0.584   0.017   0.000  0.00  0.00    +0.043 C 
BRANCH  11  13
ATOM     12  O   UNL     1      -1.821   0.731   0.000  0.00  0.00    -0.220 OA
ATOM     13  C   UNL     1      -1.409   0.017   0.000  0.00  0.00    +0.183 C 
ENDBRANCH  11  13
ENDBRANCH  10  11
ENDBRANCH   1  10
BRANCH   2  14
ATOM     14  C   UNL     1       0.884  -2.150   0.000  0.00  0.00    +0.137 C 
BRANCH  14  15
ATOM     15  C   UNL     1       1.436  -2.763   0.000  0.00  0.00    +0.147 C 
ATOM     16  C   UNL     1       1.745  -3.528   0.000  0.00  0.00    +0.032 C 
ATOM     17  C   UNL     1       2.562  -3.643   0.000  0.00  0.00    +0.003 C 
ATOM     18  C   UNL     1       3.070  -2.993   0.000  0.00  0.00    +0.000 C 
ATOM     19  C   UNL     1       2.761  -2.228   0.000  0.00  0.00    +0.003 C 
ATOM     20  C   UNL     1       1.944  -2.113   0.000  0.00  0.00    +0.032 C 
ATOM     21  O   UNL     1       0.736  -3.200   0.000  0.00  0.00    -0.224 OA
ENDBRANCH  14  15
ENDBRANCH   2  14
TORSDOF 5
