REMARK  Name = 
REMARK  5 active torsions:
REMARK  status: ('A' for Active; 'I' for Inactive)
REMARK    1  A    between atoms: C_7  and  S_8
REMARK    2  A    between atoms: S_8  and  C_9
REMARK    3  A    between atoms: C_9  and  C_10
REMARK    4  A    between atoms: C_10  and  C_12
REMARK    5  A    between atoms: C_12  and  N_13
REMARK                            x       y       z     vdW  Elec       q    Type
REMARK                         _______ _______ _______ _____ _____    ______ ____
ROOT
ATOM      1  C   UNL     1       4.923  -0.410   0.000  0.00  0.00    +0.186 C 
ATOM      2  O   UNL     1       4.923   0.415   0.000  0.00  0.00    -0.220 OA
ENDROOT
BRANCH   1   3
ATOM      3  C   UNL     1       4.208  -0.822   0.000  0.00  0.00    +0.100 C 
BRANCH   3   4
ATOM      4  S   UNL     1       3.494  -0.410   0.000  0.00  0.00    -0.073 S 
BRANCH   4   8
ATOM      5  C   UNL     1       2.065  -2.885   0.000  0.00  0.00    +0.052 C 
ATOM      6  C   UNL     1       2.065  -2.060   0.000  0.00  0.00    +0.064 A 
ATOM      7  N   UNL     1       2.779  -1.647   0.000  0.00  0.00    -0.225 NA
ATOM      8  C   UNL     1       2.779  -0.822   0.000  0.00  0.00    +0.191 A 
ATOM      9  N   UNL     1       2.065  -0.410   0.000  0.00  0.00    -0.203 NA
ATOM     10  C   UNL     1       1.350  -0.822   0.000  0.00  0.00    +0.173 A 
ATOM     11  N   UNL     1       0.636  -0.410   0.000  0.00  0.00    -0.107 NA
ATOM     12  C   UNL     1       1.350  -1.647   0.000  0.00  0.00    +0.052 A 
ENDBRANCH   4   8
ENDBRANCH   3   4
ENDBRANCH   1   3
BRANCH   1  13
ATOM     13  C   UNL     1       5.637  -0.822   0.000  0.00  0.00    +0.141 C 
BRANCH  13  14
ATOM     14  N   UNL     1       6.351  -0.410   0.000  0.00  0.00    -0.306 N 
ATOM     15  C   UNL     1       7.105  -0.745   0.000  0.00  0.00    +0.079 A 
ATOM     16  C   UNL     1       7.657  -0.132   0.000  0.00  0.00    +0.098 A 
ATOM     17  C   UNL     1       8.464  -0.304   0.000  0.00  0.00    +0.016 A 
ATOM     18  C   UNL     1       8.719  -1.088   0.000  0.00  0.00    -0.024 A 
ATOM     19  C   UNL     1       8.167  -1.701   0.000  0.00  0.00    -0.024 A 
ATOM     20  C   UNL     1       8.422  -2.486   0.000  0.00  0.00    +0.031 C 
ATOM     21  C   UNL     1       9.526  -1.260   0.000  0.00  0.00    +0.031 C 
ATOM     22  N   UNL     1       7.245   0.582   0.000  0.00  0.00    -0.224 NA
ATOM     23  C   UNL     1       7.360  -1.530   0.000  0.00  0.00    +0.014 A 
ATOM     24  C   UNL     1       6.438   0.411   0.000  0.00  0.00    +0.179 A 
ENDBRANCH  13  14
ENDBRANCH   1  13
TORSDOF 5
