REMARK  Name = 
REMARK  2 active torsions:
REMARK  status: ('A' for Active; 'I' for Inactive)
REMARK    1  A    between atoms: C_2  and  C_7
REMARK    2  A    between atoms: N_9  and  C_10
REMARK                            x       y       z     vdW  Elec       q    Type
REMARK                         _______ _______ _______ _____ _____    ______ ____
ROOT
ATOM      1  C   UNL     1       2.451  -1.682   0.000  0.00  0.00    +0.271 C 
ATOM      2  N   UNL     1       2.196  -0.897   0.000  0.00  0.00    -0.155 NA
ATOM      3  O   UNL     1       3.257  -1.853   0.000  0.00  0.00    -0.270 OA
ENDROOT
BRANCH   2   4
ATOM      4  C   UNL     1       2.748  -0.284   0.000  0.00  0.00    +0.194 A 
ATOM      5  C   UNL     1       3.555  -0.456   0.000  0.00  0.00    +0.229 A 
ATOM      6  O   UNL     1       3.810  -1.240   0.000  0.00  0.00    -0.284 OA
ATOM      7  C   UNL     1       4.107   0.158   0.000  0.00  0.00    +0.047 A 
ATOM      8  C   UNL     1       3.852   0.942   0.000  0.00  0.00    +0.024 A 
ATOM      9  C   UNL     1       3.045   1.114   0.000  0.00  0.00    +0.101 A 
ATOM     10  N   UNL     1       2.493   0.501   0.000  0.00  0.00    -0.224 NA
ENDBRANCH   2   4
BRANCH   1  12
ATOM     11  C   UNL     1       1.347  -1.682   0.000  0.00  0.00    +0.039 C 
ATOM     12  C   UNL     1       1.899  -2.295   0.000  0.00  0.00    +0.163 C 
ATOM     13  O   UNL     1       1.231  -2.780   0.000  0.00  0.00    -0.350 OA
ATOM     14  C   UNL     1       1.486  -3.564   0.000  0.00  0.00    +0.143 C 
ATOM     15  C   UNL     1       2.311  -3.564   0.000  0.00  0.00    +0.035 C 
ATOM     16  C   UNL     1       2.566  -2.780   0.000  0.00  0.00    +0.039 C 
ENDBRANCH   1  12
TORSDOF 2
