REMARK  Name = 
REMARK  5 active torsions:
REMARK  status: ('A' for Active; 'I' for Inactive)
REMARK    1  A    between atoms: C_7  and  N_8
REMARK    2  A    between atoms: N_11  and  C_12
REMARK    3  A    between atoms: C_12  and  C_13
REMARK    4  A    between atoms: C_13  and  C_14
REMARK    5  A    between atoms: C_14  and  N_15
REMARK                            x       y       z     vdW  Elec       q    Type
REMARK                         _______ _______ _______ _____ _____    ______ ____
ROOT
ATOM      1  N   UNL     1       2.143  -0.412   0.000  0.00  0.00    -0.161 NA
ATOM      2  C   UNL     1       2.858   0.000   0.000  0.00  0.00    +0.343 C 
ATOM      3  N   UNL     1       3.572  -0.412   0.000  0.00  0.00    -0.187 NA
ATOM      4  O   UNL     1       2.858   0.825   0.000  0.00  0.00    -0.249 OA
ENDROOT
BRANCH   1   7
ATOM      5  C   UNL     1       0.715  -1.238   0.000  0.00  0.00    +0.034 C 
ATOM      6  C   UNL     1       0.715  -0.412   0.000  0.00  0.00    +0.013 A 
ATOM      7  C   UNL     1       1.429   0.000   0.000  0.00  0.00    +0.074 A 
ATOM      8  C   UNL     1       1.429   0.825   0.000  0.00  0.00    +0.037 A 
ATOM      9  C   UNL     1       0.715   1.238   0.000  0.00  0.00    +0.100 A 
ATOM     10  N   UNL     1       0.000   0.825   0.000  0.00  0.00    -0.243 NA
ATOM     11  C   UNL     1       0.000   0.000   0.000  0.00  0.00    +0.096 A 
ENDBRANCH   1   7
BRANCH   3  12
ATOM     12  C   UNL     1       4.287   0.000   0.000  0.00  0.00    +0.119 C 
BRANCH  12  13
ATOM     13  C   UNL     1       5.001  -0.412   0.000  0.00  0.00    +0.045 C 
BRANCH  13  14
ATOM     14  C   UNL     1       5.716   0.000   0.000  0.00  0.00    +0.095 C 
BRANCH  14  15
ATOM     15  N   UNL     1       6.430  -0.412   0.000  0.00  0.00    -0.279 N 
ATOM     16  C   UNL     1       6.516  -1.233   0.000  0.00  0.00    +0.226 C 
ATOM     17  O   UNL     1       5.903  -1.785   0.000  0.00  0.00    -0.275 OA
ATOM     18  C   UNL     1       7.323  -1.405   0.000  0.00  0.00    +0.087 C 
ATOM     19  C   UNL     1       7.736  -0.690   0.000  0.00  0.00    +0.031 C 
ATOM     20  C   UNL     1       7.184  -0.077   0.000  0.00  0.00    +0.094 C 
ENDBRANCH  14  15
ENDBRANCH  13  14
ENDBRANCH  12  13
ENDBRANCH   3  12
TORSDOF 5
