REMARK  Name = 
REMARK  5 active torsions:
REMARK  status: ('A' for Active; 'I' for Inactive)
REMARK    1  A    between atoms: O_2  and  C_3
REMARK    2  A    between atoms: C_8  and  N_9
REMARK    3  A    between atoms: N_12  and  C_13
REMARK    4  A    between atoms: C_13  and  C_14
REMARK    5  A    between atoms: C_14  and  C_15
REMARK                            x       y       z     vdW  Elec       q    Type
REMARK                         _______ _______ _______ _____ _____    ______ ____
ROOT
ATOM      1  N   UNL     1       2.143  -0.412   0.000  0.00  0.00    -0.156 NA
ATOM      2  C   UNL     1       2.858   0.000   0.000  0.00  0.00    +0.344 C 
ATOM      3  N   UNL     1       3.572  -0.412   0.000  0.00  0.00    -0.186 NA
ATOM      4  O   UNL     1       2.858   0.825   0.000  0.00  0.00    -0.249 OA
ENDROOT
BRANCH   1   6
ATOM      5  C   UNL     1       0.715  -0.412   0.000  0.00  0.00    +0.241 A 
ATOM      6  C   UNL     1       1.429   0.000   0.000  0.00  0.00    +0.128 A 
ATOM      7  C   UNL     1       1.429   0.825   0.000  0.00  0.00    +0.023 A 
ATOM      8  C   UNL     1       0.715   1.238   0.000  0.00  0.00    +0.022 A 
ATOM      9  C   UNL     1       0.000   0.825   0.000  0.00  0.00    +0.102 A 
ATOM     10  N   UNL     1       0.000   0.000   0.000  0.00  0.00    -0.209 NA
BRANCH   5  12
ATOM     11  C   UNL     1       0.000  -1.650   0.000  0.00  0.00    +0.254 C 
ATOM     12  O   UNL     1       0.715  -1.238   0.000  0.00  0.00    -0.455 OA
ENDBRANCH   5  12
ENDBRANCH   1   6
BRANCH   3  13
ATOM     13  C   UNL     1       4.287   0.000   0.000  0.00  0.00    +0.126 C 
BRANCH  13  14
ATOM     14  C   UNL     1       5.001  -0.412   0.000  0.00  0.00    +0.109 C 
BRANCH  14  15
ATOM     15  C   UNL     1       5.716   0.000   0.000  0.00  0.00    +0.227 C 
ATOM     16  N   UNL     1       6.430  -0.412   0.000  0.00  0.00    -0.279 N 
ATOM     17  C   UNL     1       6.516  -1.233   0.000  0.00  0.00    +0.093 C 
ATOM     18  C   UNL     1       7.323  -1.405   0.000  0.00  0.00    +0.023 C 
ATOM     19  C   UNL     1       7.736  -0.690   0.000  0.00  0.00    +0.023 C 
ATOM     20  C   UNL     1       7.184  -0.077   0.000  0.00  0.00    +0.093 C 
ATOM     21  O   UNL     1       5.716   0.825   0.000  0.00  0.00    -0.275 OA
ENDBRANCH  14  15
ENDBRANCH  13  14
ENDBRANCH   3  13
TORSDOF 5
