REMARK  Name = 
REMARK  7 active torsions:
REMARK  status: ('A' for Active; 'I' for Inactive)
REMARK    1  A    between atoms: N_4  and  C_5
REMARK    2  A    between atoms: C_5  and  C_6
REMARK    3  A    between atoms: C_6  and  C_8
REMARK    4  A    between atoms: C_8  and  O_9
REMARK    5  A    between atoms: O_9  and  C_10
REMARK    6  A    between atoms: C_10  and  C_11
REMARK    7  A    between atoms: C_18  and  C_19
REMARK                            x       y       z     vdW  Elec       q    Type
REMARK                         _______ _______ _______ _____ _____    ______ ____
ROOT
ATOM      1  C   UNL     1      -2.143   3.712   0.000  0.00  0.00    +0.054 C 
ATOM      2  C   UNL     1      -2.143   2.888   0.000  0.00  0.00    +0.076 A 
ATOM      3  C   UNL     1      -2.858   2.475   0.000  0.00  0.00    +0.008 A 
ATOM      4  C   UNL     1      -3.572   2.888   0.000  0.00  0.00    +0.033 C 
ATOM      5  C   UNL     1      -2.858   1.650   0.000  0.00  0.00    +0.123 A 
ATOM      6  C   UNL     1      -2.143   1.238   0.000  0.00  0.00    +0.286 A 
ATOM      7  O   UNL     1      -2.143   0.412   0.000  0.00  0.00    -0.265 OA
ATOM      8  N   UNL     1      -1.429   1.650   0.000  0.00  0.00    -0.214 N 
ATOM      9  N   UNL     1      -1.429   2.475   0.000  0.00  0.00    -0.171 NA
ENDROOT
BRANCH   5  10
ATOM     10  C   UNL     1      -3.572   1.238   0.000  0.00  0.00    +0.105 C 
ATOM     11  N   UNL     1      -4.287   0.825   0.000  0.00  0.00    -0.191 NA
ENDBRANCH   5  10
BRANCH   8  12
ATOM     12  C   UNL     1      -0.715   1.238   0.000  0.00  0.00    +0.166 C 
BRANCH  12  13
ATOM     13  C   UNL     1       0.000   1.650   0.000  0.00  0.00    +0.206 C 
ATOM     14  O   UNL     1       0.000   2.475   0.000  0.00  0.00    -0.218 OA
BRANCH  13  15
ATOM     15  C   UNL     1       0.715   1.238   0.000  0.00  0.00    +0.177 C 
BRANCH  15  16
ATOM     16  O   UNL     1       1.429   1.650   0.000  0.00  0.00    -0.346 OA
BRANCH  16  17
ATOM     17  C   UNL     1       2.143   1.238   0.000  0.00  0.00    +0.175 C 
BRANCH  17  18
ATOM     18  C   UNL     1       2.858   1.650   0.000  0.00  0.00    +0.037 A 
ATOM     19  S   UNL     1       3.612   1.314   0.000  0.00  0.00    -0.088 S 
ATOM     20  C   UNL     1       4.164   1.927   0.000  0.00  0.00    +0.035 A 
ATOM     21  C   UNL     1       3.751   2.642   0.000  0.00  0.00    +0.007 A 
ATOM     22  C   UNL     1       2.944   2.470   0.000  0.00  0.00    +0.005 A 
ENDBRANCH  17  18
ENDBRANCH  16  17
ENDBRANCH  15  16
ENDBRANCH  13  15
ENDBRANCH  12  13
ENDBRANCH   8  12
TORSDOF 7
