REMARK  Name = 
REMARK  5 active torsions:
REMARK  status: ('A' for Active; 'I' for Inactive)
REMARK    1  A    between atoms: N_3  and  C_12
REMARK    2  A    between atoms: C_8  and  C_9
REMARK    3  A    between atoms: C_12  and  C_15
REMARK    4  A    between atoms: N_13  and  C_14
REMARK    5  A    between atoms: C_15  and  C_20
REMARK                            x       y       z     vdW  Elec       q    Type
REMARK                         _______ _______ _______ _____ _____    ______ ____
ROOT
ATOM      1  C   UNL     1       1.924  -0.284   0.000  0.00  0.00    +0.149 A 
ATOM      2  N   UNL     1       1.139  -0.029   0.000  0.00  0.00    -0.219 NA
ATOM      3  C   UNL     1       0.651  -0.697   0.000  0.00  0.00    +0.180 A 
ATOM      4  N   UNL     1       1.139  -1.365   0.000  0.00  0.00    -0.292 N 
ATOM      5  C   UNL     1       1.924  -1.110   0.000  0.00  0.00    +0.167 A 
ATOM      6  N   UNL     1       2.642  -1.523   0.000  0.00  0.00    -0.205 NA
ATOM      7  C   UNL     1       3.356  -1.110   0.000  0.00  0.00    +0.201 A 
ATOM      8  N   UNL     1       3.356  -0.284   0.000  0.00  0.00    -0.207 NA
ATOM      9  C   UNL     1       2.642   0.129   0.000  0.00  0.00    +0.155 A 
ATOM     10  N   UNL     1       2.642   0.956   0.000  0.00  0.00    -0.286 N 
ATOM     11  C   UNL     1       1.970   1.440   0.000  0.00  0.00    +0.093 C 
ATOM     12  C   UNL     1       2.229   2.229   0.000  0.00  0.00    +0.024 C 
ATOM     13  C   UNL     1       3.055   2.229   0.000  0.00  0.00    +0.031 C 
ATOM     14  C   UNL     1       3.310   1.440   0.000  0.00  0.00    +0.153 C 
ENDROOT
BRANCH  14  15
ATOM     15  C   UNL     1       4.094   1.185   0.000  0.00  0.00    +0.259 C 
ATOM     16  O   UNL     1       4.266   0.380   0.000  0.00  0.00    -0.272 OA
ATOM     17  N   UNL     1       4.708   1.740   0.000  0.00  0.00    -0.206 NA
BRANCH  17  18
ATOM     18  C   UNL     1       5.497   1.482   0.000  0.00  0.00    +0.095 C 
ATOM     19  C   UNL     1       6.048   0.868   0.000  0.00  0.00    +0.023 C 
ATOM     20  C   UNL     1       6.302   1.657   0.000  0.00  0.00    +0.023 C 
ENDBRANCH  17  18
ENDBRANCH  14  15
BRANCH   4  21
ATOM     21  C   UNL     1       0.885  -2.154   0.000  0.00  0.00    +0.144 C 
BRANCH  21  22
ATOM     22  C   UNL     1       1.436  -2.767   0.000  0.00  0.00    +0.201 C 
ATOM     23  O   UNL     1       2.245  -2.592   0.000  0.00  0.00    -0.218 OA
BRANCH  22  24
ATOM     24  C   UNL     1       1.181  -3.552   0.000  0.00  0.00    +0.147 C 
ATOM     25  C   UNL     1       1.665  -4.220   0.000  0.00  0.00    +0.035 C 
ATOM     26  C   UNL     1       1.181  -4.887   0.000  0.00  0.00    +0.035 C 
ATOM     27  C   UNL     1       0.397  -4.633   0.000  0.00  0.00    +0.142 C 
ATOM     28  O   UNL     1       0.397  -3.806   0.000  0.00  0.00    -0.354 OA
ENDBRANCH  22  24
ENDBRANCH  21  22
ENDBRANCH   4  21
TORSDOF 5
