REMARK  Name = 
REMARK  6 active torsions:
REMARK  status: ('A' for Active; 'I' for Inactive)
REMARK    1  A    between atoms: O_2  and  C_3
REMARK    2  A    between atoms: C_3  and  C_4
REMARK    3  A    between atoms: C_4  and  N_5
REMARK    4  A    between atoms: C_7  and  C_12
REMARK    5  A    between atoms: N_14  and  C_15
REMARK    6  A    between atoms: C_15  and  C_17
REMARK                            x       y       z     vdW  Elec       q    Type
REMARK                         _______ _______ _______ _____ _____    ______ ____
ROOT
ATOM      1  N   UNL     1      -3.572   8.416   0.000  0.00  0.00    -0.214 N 
ATOM      2  C   UNL     1      -4.287   8.004   0.000  0.00  0.00    +0.277 A 
ATOM      3  O   UNL     1      -5.001   8.416   0.000  0.00  0.00    -0.266 OA
ATOM      4  C   UNL     1      -4.287   7.179   0.000  0.00  0.00    +0.064 A 
ATOM      5  C   UNL     1      -3.572   6.766   0.000  0.00  0.00    +0.030 A 
ATOM      6  C   UNL     1      -2.858   7.179   0.000  0.00  0.00    +0.156 A 
ATOM      7  N   UNL     1      -2.858   8.004   0.000  0.00  0.00    -0.162 NA
ENDROOT
BRANCH   6   8
ATOM      8  C   UNL     1      -2.143   6.766   0.000  0.00  0.00    +0.284 C 
ATOM      9  N   UNL     1      -2.143   5.941   0.000  0.00  0.00    -0.200 NA
ATOM     10  O   UNL     1      -1.429   7.179   0.000  0.00  0.00    -0.267 OA
BRANCH   9  11
ATOM     11  C   UNL     1      -1.429   5.529   0.000  0.00  0.00    +0.123 C 
ATOM     12  C   UNL     1      -0.715   5.941   0.000  0.00  0.00    +0.026 C 
BRANCH  11  13
ATOM     13  C   UNL     1      -1.429   4.704   0.000  0.00  0.00    +0.135 C 
ATOM     14  O   UNL     1      -2.096   4.219   0.000  0.00  0.00    -0.354 OA
ATOM     15  C   UNL     1      -1.841   3.434   0.000  0.00  0.00    +0.142 C 
ATOM     16  C   UNL     1      -1.016   3.434   0.000  0.00  0.00    +0.035 C 
ATOM     17  C   UNL     1      -0.761   4.219   0.000  0.00  0.00    +0.034 C 
ENDBRANCH  11  13
ENDBRANCH   9  11
ENDBRANCH   6   8
BRANCH   1  18
ATOM     18  C   UNL     1      -3.572   9.241   0.000  0.00  0.00    +0.163 C 
BRANCH  18  19
ATOM     19  C   UNL     1      -4.287   9.654   0.000  0.00  0.00    +0.169 C 
BRANCH  19  21
ATOM     20  C   UNL     1      -5.001  10.891   0.000  0.00  0.00    +0.174 C 
ATOM     21  O   UNL     1      -4.287  10.479   0.000  0.00  0.00    -0.349 OA
ENDBRANCH  19  21
ENDBRANCH  18  19
ENDBRANCH   1  18
TORSDOF 6
