REMARK  Name = 
REMARK  4 active torsions:
REMARK  status: ('A' for Active; 'I' for Inactive)
REMARK    1  A    between atoms: C_2  and  C_5
REMARK    2  A    between atoms: C_8  and  N_9
REMARK    3  A    between atoms: N_12  and  C_13
REMARK    4  A    between atoms: C_13  and  C_14
REMARK                            x       y       z     vdW  Elec       q    Type
REMARK                         _______ _______ _______ _____ _____    ______ ____
ROOT
ATOM      1  N   UNL     1      -0.715   2.062   0.000  0.00  0.00    -0.158 NA
ATOM      2  C   UNL     1       0.000   2.475   0.000  0.00  0.00    +0.344 C 
ATOM      3  N   UNL     1       0.715   2.062   0.000  0.00  0.00    -0.187 NA
ATOM      4  O   UNL     1       0.000   3.300   0.000  0.00  0.00    -0.249 OA
ENDROOT
BRANCH   1   8
ATOM      5  C   UNL     1      -2.858   3.300   0.000  0.00  0.00    +0.138 A 
ATOM      6  N   UNL     1      -2.858   2.475   0.000  0.00  0.00    -0.228 NA
ATOM      7  C   UNL     1      -2.143   2.062   0.000  0.00  0.00    +0.118 A 
ATOM      8  C   UNL     1      -1.429   2.475   0.000  0.00  0.00    +0.113 A 
ATOM      9  C   UNL     1      -1.429   3.300   0.000  0.00  0.00    +0.118 A 
ATOM     10  N   UNL     1      -2.143   3.712   0.000  0.00  0.00    -0.228 NA
BRANCH   5  12
ATOM     11  C   UNL     1      -4.287   4.125   0.000  0.00  0.00    +0.008 C 
ATOM     12  C   UNL     1      -3.572   3.712   0.000  0.00  0.00    +0.052 C 
ATOM     13  C   UNL     1      -3.160   4.427   0.000  0.00  0.00    +0.008 C 
ATOM     14  C   UNL     1      -3.985   2.998   0.000  0.00  0.00    +0.008 C 
ENDBRANCH   5  12
ENDBRANCH   1   8
BRANCH   3  15
ATOM     15  C   UNL     1       1.429   2.475   0.000  0.00  0.00    +0.119 C 
BRANCH  15  16
ATOM     16  C   UNL     1       2.143   2.062   0.000  0.00  0.00    +0.052 C 
ATOM     17  C   UNL     1       2.230   1.242   0.000  0.00  0.00    +0.154 C 
ATOM     18  O   UNL     1       1.617   0.690   0.000  0.00  0.00    -0.223 OA
ATOM     19  C   UNL     1       3.037   1.071   0.000  0.00  0.00    +0.033 C 
ATOM     20  C   UNL     1       3.449   1.785   0.000  0.00  0.00    +0.003 C 
ATOM     21  C   UNL     1       2.897   2.398   0.000  0.00  0.00    +0.004 C 
ENDBRANCH  15  16
ENDBRANCH   3  15
TORSDOF 4
