REMARK  Name = 
REMARK  4 active torsions:
REMARK  status: ('A' for Active; 'I' for Inactive)
REMARK    1  A    between atoms: C_2  and  C_4
REMARK    2  A    between atoms: C_2  and  C_20
REMARK    3  A    between atoms: C_4  and  N_5
REMARK    4  A    between atoms: C_15  and  C_17
REMARK                            x       y       z     vdW  Elec       q    Type
REMARK                         _______ _______ _______ _____ _____    ______ ____
ROOT
ATOM      1  N   UNL     1       4.849   6.607   0.000  0.00  0.00    -0.188 NA
ATOM      2  C   UNL     1       4.026   6.668   0.000  0.00  0.00    +0.323 C 
ATOM      3  N   UNL     1       3.562   5.987   0.000  0.00  0.00    -0.261 N 
ATOM      4  C   UNL     1       2.746   6.110   0.000  0.00  0.00    +0.116 C 
ATOM      5  C   UNL     1       2.141   5.549   0.000  0.00  0.00    +0.115 C 
ATOM      6  N   UNL     1       2.203   4.726   0.000  0.00  0.00    -0.278 N 
ATOM      7  C   UNL     1       1.488   4.314   0.000  0.00  0.00    +0.225 C 
ATOM      8  O   UNL     1       0.774   4.726   0.000  0.00  0.00    -0.275 OA
ATOM      9  C   UNL     1       2.884   4.261   0.000  0.00  0.00    +0.095 C 
ATOM     10  C   UNL     1       3.673   4.504   0.000  0.00  0.00    +0.043 C 
ATOM     11  C   UNL     1       3.974   5.272   0.000  0.00  0.00    +0.097 C 
ATOM     12  O   UNL     1       3.668   7.412   0.000  0.00  0.00    -0.251 OA
ENDROOT
BRANCH   7  13
ATOM     13  C   UNL     1       1.488   3.489   0.000  0.00  0.00    +0.077 C 
ATOM     14  C   UNL     1       1.076   2.774   0.000  0.00  0.00    +0.010 C 
ATOM     15  C   UNL     1       1.901   2.774   0.000  0.00  0.00    +0.010 C 
ENDBRANCH   7  13
BRANCH   1  16
ATOM     16  C   UNL     1       5.314   7.288   0.000  0.00  0.00    +0.121 C 
BRANCH  16  18
ATOM     17  C   UNL     1       6.075   6.404   0.000  0.00  0.00    +0.006 C 
ATOM     18  C   UNL     1       6.136   7.227   0.000  0.00  0.00    +0.039 C 
ATOM     19  C   UNL     1       6.198   8.050   0.000  0.00  0.00    +0.006 C 
BRANCH  18  20
ATOM     20  C   UNL     1       6.959   7.165   0.000  0.00  0.00    -0.018 A 
ATOM     21  C   UNL     1       7.317   6.422   0.000  0.00  0.00    +0.016 A 
ATOM     22  C   UNL     1       8.140   6.360   0.000  0.00  0.00    +0.099 A 
ATOM     23  N   UNL     1       8.605   7.042   0.000  0.00  0.00    -0.242 NA
ATOM     24  C   UNL     1       8.247   7.785   0.000  0.00  0.00    +0.099 A 
ATOM     25  C   UNL     1       7.424   7.847   0.000  0.00  0.00    +0.016 A 
ENDBRANCH  18  20
ENDBRANCH  16  18
ENDBRANCH   1  16
TORSDOF 4
