REMARK  Name = 
REMARK  4 active torsions:
REMARK  status: ('A' for Active; 'I' for Inactive)
REMARK    1  A    between atoms: N_1  and  C_7
REMARK    2  A    between atoms: C_11  and  C_22
REMARK    3  A    between atoms: C_11  and  C_23
REMARK    4  A    between atoms: C_18  and  C_19
REMARK                            x       y       z     vdW  Elec       q    Type
REMARK                         _______ _______ _______ _____ _____    ______ ____
ROOT
ATOM      1  N   UNL     1       1.137  -1.363   0.000  0.00  0.00    -0.296 N 
ATOM      2  C   UNL     1       0.650  -0.696   0.000  0.00  0.00    +0.180 A 
ATOM      3  N   UNL     1       1.137  -0.029   0.000  0.00  0.00    -0.219 NA
ATOM      4  C   UNL     1       1.921  -0.283   0.000  0.00  0.00    +0.149 A 
ATOM      5  C   UNL     1       2.638   0.129   0.000  0.00  0.00    +0.154 A 
ATOM      6  N   UNL     1       3.350  -0.283   0.000  0.00  0.00    -0.207 NA
ATOM      7  C   UNL     1       3.350  -1.108   0.000  0.00  0.00    +0.201 A 
ATOM      8  N   UNL     1       2.638  -1.521   0.000  0.00  0.00    -0.205 NA
ATOM      9  N   UNL     1       2.638   0.954   0.000  0.00  0.00    -0.292 N 
ATOM     10  C   UNL     1       3.350   1.367   0.000  0.00  0.00    +0.092 C 
ATOM     11  C   UNL     1       3.350   2.192   0.000  0.00  0.00    +0.024 C 
ATOM     12  C   UNL     1       2.638   2.604   0.000  0.00  0.00    +0.031 C 
ATOM     13  C   UNL     1       1.921   2.192   0.000  0.00  0.00    +0.024 C 
ATOM     14  C   UNL     1       1.921   1.367   0.000  0.00  0.00    +0.092 C 
ATOM     15  C   UNL     1       1.921  -1.108   0.000  0.00  0.00    +0.167 A 
ENDROOT
BRANCH  12  16
ATOM     16  C   UNL     1       2.638   3.429   0.000  0.00  0.00    +0.115 C 
ATOM     17  C   UNL     1       1.967   3.913   0.000  0.00  0.00    +0.032 C 
ATOM     18  C   UNL     1       2.225   4.696   0.000  0.00  0.00    +0.035 C 
ATOM     19  C   UNL     1       3.050   4.696   0.000  0.00  0.00    +0.142 C 
ATOM     20  O   UNL     1       3.304   3.913   0.000  0.00  0.00    -0.356 OA
ENDBRANCH  12  16
BRANCH   1  21
ATOM     21  C   UNL     1       0.883  -2.150   0.000  0.00  0.00    +0.089 C 
ATOM     22  C   UNL     1       0.146  -2.521   0.000  0.00  0.00    +0.028 C 
ATOM     23  C   UNL     1       0.521  -3.258   0.000  0.00  0.00    +0.065 C 
ATOM     24  C   UNL     1       1.254  -2.883   0.000  0.00  0.00    +0.028 C 
BRANCH  23  25
ATOM     25  C   UNL     1       0.896  -3.992   0.000  0.00  0.00    +0.185 C 
ATOM     26  O   UNL     1       1.721  -4.037   0.000  0.00  0.00    -0.220 OA
ENDBRANCH  23  25
BRANCH  23  27
ATOM     27  C   UNL     1      -0.212  -3.633   0.000  0.00  0.00    +0.185 C 
ATOM     28  O   UNL     1      -0.904  -3.183   0.000  0.00  0.00    -0.220 OA
ENDBRANCH  23  27
ENDBRANCH   1  21
TORSDOF 4
