REMARK  Name = 
REMARK  3 active torsions:
REMARK  status: ('A' for Active; 'I' for Inactive)
REMARK    1  A    between atoms: N_10  and  C_11
REMARK    2  A    between atoms: C_11  and  C_12
REMARK    3  A    between atoms: C_12  and  C_14
REMARK                            x       y       z     vdW  Elec       q    Type
REMARK                         _______ _______ _______ _____ _____    ______ ____
ROOT
ATOM      1  C   UNL     1       4.067   2.348   0.000  0.00  0.00    +0.138 C 
ATOM      2  N   UNL     1       3.352   1.935   0.000  0.00  0.00    -0.245 N 
ATOM      3  C   UNL     1       2.638   2.348   0.000  0.00  0.00    +0.283 A 
ATOM      4  O   UNL     1       2.638   3.173   0.000  0.00  0.00    -0.265 OA
ATOM      5  C   UNL     1       1.923   1.935   0.000  0.00  0.00    +0.153 A 
ATOM      6  C   UNL     1       1.923   1.110   0.000  0.00  0.00    +0.170 A 
ATOM      7  N   UNL     1       1.139   0.856   0.000  0.00  0.00    -0.206 NA
ATOM      8  C   UNL     1       0.654   1.523   0.000  0.00  0.00    +0.180 A 
ATOM      9  N   UNL     1       2.638   0.698   0.000  0.00  0.00    -0.263 N 
ATOM     10  C   UNL     1       2.638  -0.127   0.000  0.00  0.00    +0.137 C 
ATOM     11  N   UNL     1       1.139   2.190   0.000  0.00  0.00    -0.301 N 
ATOM     12  C   UNL     1       3.352   1.110   0.000  0.00  0.00    +0.335 A 
ATOM     13  O   UNL     1       4.067   0.698   0.000  0.00  0.00    -0.246 OA
ENDROOT
BRANCH  11  14
ATOM     14  C   UNL     1       0.884   2.975   0.000  0.00  0.00    +0.145 C 
BRANCH  14  15
ATOM     15  C   UNL     1       0.077   3.147   0.000  0.00  0.00    +0.198 C 
ATOM     16  O   UNL     1      -0.475   2.533   0.000  0.00  0.00    -0.216 OA
BRANCH  15  17
ATOM     17  C   UNL     1      -0.178   3.931   0.000  0.00  0.00    +0.020 A 
ATOM     18  C   UNL     1       0.374   4.544   0.000  0.00  0.00    +0.056 A 
ATOM     19 CL   UNL     1       1.181   4.373   0.000  0.00  0.00    -0.082 Cl
ATOM     20  C   UNL     1       0.119   5.329   0.000  0.00  0.00    +0.011 A 
ATOM     21  C   UNL     1      -0.688   5.500   0.000  0.00  0.00    +0.001 A 
ATOM     22  C   UNL     1      -1.240   4.887   0.000  0.00  0.00    -0.000 A 
ATOM     23  C   UNL     1      -0.985   4.103   0.000  0.00  0.00    -0.001 A 
ENDBRANCH  15  17
ENDBRANCH  14  15
ENDBRANCH  11  14
TORSDOF 3
