REMARK  Name = 
REMARK  3 active torsions:
REMARK  status: ('A' for Active; 'I' for Inactive)
REMARK    1  A    between atoms: C_2  and  C_4
REMARK    2  A    between atoms: C_9  and  N_11
REMARK    3  A    between atoms: C_16  and  C_17
REMARK                            x       y       z     vdW  Elec       q    Type
REMARK                         _______ _______ _______ _____ _____    ______ ____
ROOT
ATOM      1  C   UNL     1       0.715  -1.238   0.000  0.00  0.00    +0.140 A 
ATOM      2  N   UNL     1       0.000  -1.650   0.000  0.00  0.00    -0.216 NA
ATOM      3  C   UNL     1       0.000  -2.475   0.000  0.00  0.00    +0.135 A 
ATOM      4  C   UNL     1       0.715  -2.888   0.000  0.00  0.00    +0.049 A 
ATOM      5  C   UNL     1       1.429  -2.475   0.000  0.00  0.00    +0.063 A 
ATOM      6  C   UNL     1       2.143  -2.888   0.000  0.00  0.00    +0.052 C 
ATOM      7  N   UNL     1       1.429  -1.650   0.000  0.00  0.00    -0.235 NA
ENDROOT
BRANCH   3   8
ATOM      8  N   UNL     1      -0.715  -2.888   0.000  0.00  0.00    -0.282 N 
ATOM      9  C   UNL     1      -1.429  -2.475   0.000  0.00  0.00    +0.184 C 
ATOM     10  C   UNL     1      -2.143  -2.888   0.000  0.00  0.00    +0.171 C 
ATOM     11  O   UNL     1      -2.143  -3.712   0.000  0.00  0.00    -0.350 OA
ATOM     12  C   UNL     1      -1.429  -4.125   0.000  0.00  0.00    +0.164 C 
ATOM     13  C   UNL     1      -0.715  -3.712   0.000  0.00  0.00    +0.125 C 
BRANCH   9  14
ATOM     14  C   UNL     1      -1.429  -1.650   0.000  0.00  0.00    +0.281 C 
ATOM     15  N   UNL     1      -2.143  -1.238   0.000  0.00  0.00    -0.086 NA
ATOM     16  O   UNL     1      -0.715  -1.238   0.000  0.00  0.00    -0.270 OA
ENDBRANCH   9  14
ENDBRANCH   3   8
BRANCH   1  18
ATOM     17  C   UNL     1       1.429   0.000   0.000  0.00  0.00    +0.008 C 
ATOM     18  C   UNL     1       0.715  -0.412   0.000  0.00  0.00    +0.059 C 
ATOM     19  C   UNL     1       0.000   0.000   0.000  0.00  0.00    +0.008 C 
ENDBRANCH   1  18
TORSDOF 3
