REMARK  Name = 
REMARK  6 active torsions:
REMARK  status: ('A' for Active; 'I' for Inactive)
REMARK    1  A    between atoms: C_2  and  C_3
REMARK    2  A    between atoms: C_3  and  C_4
REMARK    3  A    between atoms: C_3  and  N_16
REMARK    4  A    between atoms: C_4  and  N_5
REMARK    5  A    between atoms: C_6  and  C_8
REMARK    6  A    between atoms: C_8  and  N_9
REMARK                            x       y       z     vdW  Elec       q    Type
REMARK                         _______ _______ _______ _____ _____    ______ ____
ROOT
ATOM      1  N   UNL     1       0.715  -3.712   0.000  0.00  0.00    -0.202 NA
ATOM      2  C   UNL     1       1.429  -3.300   0.000  0.00  0.00    +0.265 C 
ATOM      3  O   UNL     1       1.429  -2.475   0.000  0.00  0.00    -0.271 OA
ENDROOT
BRANCH   2   4
ATOM      4  C   UNL     1       2.143  -3.712   0.000  0.00  0.00    +0.196 C 
BRANCH   4   5
ATOM      5  N   UNL     1       2.858  -3.300   0.000  0.00  0.00    -0.285 N 
ATOM      6  C   UNL     1       3.572  -3.712   0.000  0.00  0.00    +0.261 A 
ATOM      7  O   UNL     1       3.572  -4.537   0.000  0.00  0.00    -0.267 OA
ATOM      8  C   UNL     1       4.287  -3.300   0.000  0.00  0.00    +0.061 A 
ATOM      9  C   UNL     1       4.287  -2.475   0.000  0.00  0.00    +0.006 A 
ATOM     10  C   UNL     1       3.572  -2.062   0.000  0.00  0.00    +0.019 A 
ATOM     11  C   UNL     1       2.858  -2.475   0.000  0.00  0.00    +0.079 A 
ENDBRANCH   4   5
ENDBRANCH   2   4
BRANCH   1  12
ATOM     12  C   UNL     1       0.000  -3.300   0.000  0.00  0.00    +0.131 C 
BRANCH  12  13
ATOM     13  C   UNL     1      -0.715  -3.712   0.000  0.00  0.00    +0.079 C 
BRANCH  13  14
ATOM     14  N   UNL     1      -1.429  -3.300   0.000  0.00  0.00    -0.272 NA
ATOM     15  C   UNL     1      -1.515  -2.479   0.000  0.00  0.00    +0.072 C 
ATOM     16  C   UNL     1      -2.322  -2.308   0.000  0.00  0.00    +0.019 C 
ATOM     17  C   UNL     1      -2.735  -3.022   0.000  0.00  0.00    +0.019 C 
ATOM     18  C   UNL     1      -2.183  -3.636   0.000  0.00  0.00    +0.072 C 
ENDBRANCH  13  14
BRANCH  13  20
ATOM     19  C   UNL     1      -1.429  -4.950   0.000  0.00  0.00    +0.001 C 
ATOM     20  C   UNL     1      -0.715  -4.537   0.000  0.00  0.00    +0.018 C 
ENDBRANCH  13  20
ENDBRANCH  12  13
ENDBRANCH   1  12
TORSDOF 6
