REMARK  Name = 
REMARK  3 active torsions:
REMARK  status: ('A' for Active; 'I' for Inactive)
REMARK    1  A    between atoms: N_7  and  C_8
REMARK    2  A    between atoms: C_8  and  C_9
REMARK    3  A    between atoms: N_11  and  C_12
REMARK                            x       y       z     vdW  Elec       q    Type
REMARK                         _______ _______ _______ _____ _____    ______ ____
ROOT
ATOM      1  C   UNL     1       0.378  -2.444   0.000  0.00  0.00    +0.264 C 
ATOM      2  N   UNL     1      -0.406  -2.189   0.000  0.00  0.00    -0.206 NA
ATOM      3  O   UNL     1       0.991  -1.892   0.000  0.00  0.00    -0.271 OA
ENDROOT
BRANCH   2   4
ATOM      4  C   UNL     1      -0.578  -1.382   0.000  0.00  0.00    +0.095 C 
ATOM      5  C   UNL     1       0.075  -0.877   0.000  0.00  0.00    +0.022 C 
ATOM      6  C   UNL     1       0.087  -0.052   0.000  0.00  0.00    +0.002 C 
ATOM      7  C   UNL     1      -0.550   0.472   0.000  0.00  0.00    +0.000 C 
ATOM      8  C   UNL     1      -1.357   0.300   0.000  0.00  0.00    +0.000 C 
ATOM      9  C   UNL     1      -1.726  -0.438   0.000  0.00  0.00    +0.002 C 
ATOM     10  C   UNL     1      -1.379  -1.186   0.000  0.00  0.00    +0.022 C 
ENDBRANCH   2   4
BRANCH   1  11
ATOM     11  C   UNL     1       0.550  -3.251   0.000  0.00  0.00    +0.196 C 
BRANCH  11  14
ATOM     12  C   UNL     1       2.002  -2.196   0.000  0.00  0.00    +0.051 C 
ATOM     13  C   UNL     1       2.002  -3.021   0.000  0.00  0.00    +0.048 A 
ATOM     14  N   UNL     1       1.334  -3.506   0.000  0.00  0.00    -0.285 N 
ATOM     15  C   UNL     1       1.589  -4.290   0.000  0.00  0.00    +0.292 A 
ATOM     16  O   UNL     1       1.104  -4.958   0.000  0.00  0.00    -0.259 OA
ATOM     17  S   UNL     1       2.414  -4.290   0.000  0.00  0.00    -0.026 S 
ATOM     18  C   UNL     1       2.669  -3.506   0.000  0.00  0.00    +0.053 A 
ENDBRANCH  11  14
ENDBRANCH   1  11
TORSDOF 3
