REMARK  Name = 
REMARK  3 active torsions:
REMARK  status: ('A' for Active; 'I' for Inactive)
REMARK    1  A    between atoms: C_2  and  N_9
REMARK    2  A    between atoms: C_10  and  C_12
REMARK    3  A    between atoms: C_12  and  N_13
REMARK                            x       y       z     vdW  Elec       q    Type
REMARK                         _______ _______ _______ _____ _____    ______ ____
ROOT
ATOM      1  N   UNL     1      -3.549   2.080   0.000  0.00  0.00    -0.207 NA
ATOM      2  C   UNL     1      -3.549   1.255   0.000  0.00  0.00    +0.266 C 
ATOM      3  O   UNL     1      -4.263   0.843   0.000  0.00  0.00    -0.271 OA
ENDROOT
BRANCH   1   5
ATOM      4  C   UNL     1      -3.702   3.098   0.000  0.00  0.00    +0.022 C 
ATOM      5  C   UNL     1      -4.263   2.493   0.000  0.00  0.00    +0.079 C 
ATOM      6  C   UNL     1      -4.728   3.175   0.000  0.00  0.00    +0.020 C 
ATOM      7  C   UNL     1      -5.551   3.236   0.000  0.00  0.00    +0.002 C 
ATOM      8  C   UNL     1      -6.112   2.631   0.000  0.00  0.00    +0.000 C 
ATOM      9  C   UNL     1      -5.989   1.816   0.000  0.00  0.00    +0.000 C 
ATOM     10  C   UNL     1      -5.274   1.403   0.000  0.00  0.00    +0.002 C 
ATOM     11  C   UNL     1      -4.506   1.704   0.000  0.00  0.00    +0.020 C 
ENDBRANCH   1   5
BRANCH   2  12
ATOM     12  C   UNL     1      -2.834   0.843   0.000  0.00  0.00    +0.217 C 
BRANCH  12  13
ATOM     13  N   UNL     1      -2.834   0.018   0.000  0.00  0.00    -0.201 N 
ATOM     14  N   UNL     1      -3.502  -0.467   0.000  0.00  0.00    -0.042 NA
ATOM     15  N   UNL     1      -3.247  -1.252   0.000  0.00  0.00    -0.023 NA
ATOM     16  N   UNL     1      -2.422  -1.252   0.000  0.00  0.00    -0.105 NA
ATOM     17  C   UNL     1      -2.167  -0.467   0.000  0.00  0.00    +0.222 A 
ENDBRANCH  12  13
ENDBRANCH   2  12
TORSDOF 3
