REMARK  Name = 
REMARK  3 active torsions:
REMARK  status: ('A' for Active; 'I' for Inactive)
REMARK    1  A    between atoms: O_2  and  C_3
REMARK    2  A    between atoms: C_9  and  N_10
REMARK    3  A    between atoms: N_13  and  C_14
REMARK                            x       y       z     vdW  Elec       q    Type
REMARK                         _______ _______ _______ _____ _____    ______ ____
ROOT
ATOM      1  C   UNL     1       0.715  -0.412   0.000  0.00  0.00    +0.172 A 
ATOM      2  C   UNL     1       1.429   0.000   0.000  0.00  0.00    +0.190 A 
ATOM      3  N   UNL     1       1.429   0.825   0.000  0.00  0.00    -0.230 NA
ATOM      4  C   UNL     1       0.715   1.238   0.000  0.00  0.00    +0.061 A 
ATOM      5  C   UNL     1       0.715   2.062   0.000  0.00  0.00    +0.052 C 
ATOM      6  C   UNL     1       0.000   0.825   0.000  0.00  0.00    +0.018 A 
ATOM      7  C   UNL     1       0.000   0.000   0.000  0.00  0.00    +0.041 A 
ENDROOT
BRANCH   2   8
ATOM      8  N   UNL     1       2.143  -0.412   0.000  0.00  0.00    -0.139 NA
ATOM      9  C   UNL     1       2.143  -1.238   0.000  0.00  0.00    +0.345 C 
ATOM     10  N   UNL     1       2.858  -1.650   0.000  0.00  0.00    -0.189 NA
ATOM     11  O   UNL     1       1.429  -1.650   0.000  0.00  0.00    -0.249 OA
BRANCH  10  12
ATOM     12  C   UNL     1       2.858  -2.475   0.000  0.00  0.00    +0.097 C 
ATOM     13  C   UNL     1       2.190  -2.960   0.000  0.00  0.00    +0.022 C 
ATOM     14  C   UNL     1       2.445  -3.744   0.000  0.00  0.00    +0.002 C 
ATOM     15  C   UNL     1       3.270  -3.744   0.000  0.00  0.00    +0.002 C 
ATOM     16  C   UNL     1       3.525  -2.960   0.000  0.00  0.00    +0.022 C 
ENDBRANCH  10  12
ENDBRANCH   2   8
BRANCH   1  18
ATOM     17  C   UNL     1       0.000  -1.650   0.000  0.00  0.00    +0.253 C 
ATOM     18  O   UNL     1       0.715  -1.238   0.000  0.00  0.00    -0.469 OA
ENDBRANCH   1  18
TORSDOF 3
