REMARK  Name = 
REMARK  1 active torsions:
REMARK  status: ('A' for Active; 'I' for Inactive)
REMARK    1  A    between atoms: N_3  and  C_4
REMARK                            x       y       z     vdW  Elec       q    Type
REMARK                         _______ _______ _______ _____ _____    ______ ____
ROOT
ATOM      1  O   UNL     1      -3.398  -1.289   0.000  0.00  0.00    -0.249 OA
ATOM      2  C   UNL     1      -2.684  -0.877   0.000  0.00  0.00    +0.346 C 
ATOM      3  N   UNL     1      -1.970  -1.289   0.000  0.00  0.00    -0.136 NA
ATOM      4  C   UNL     1      -1.970  -2.114   0.000  0.00  0.00    +0.187 A 
ATOM      5  S   UNL     1      -2.637  -2.599   0.000  0.00  0.00    -0.049 S 
ATOM      6  C   UNL     1      -2.382  -3.384   0.000  0.00  0.00    +0.059 A 
ATOM      7  C   UNL     1      -1.557  -3.384   0.000  0.00  0.00    +0.108 A 
ATOM      8  N   UNL     1      -1.302  -2.599   0.000  0.00  0.00    -0.221 NA
ATOM      9  N   UNL     1      -2.684  -0.052   0.000  0.00  0.00    -0.179 NA
ENDROOT
BRANCH   9  10
ATOM     10  C   UNL     1      -3.398   0.361   0.000  0.00  0.00    +0.174 C 
ATOM     11  C   UNL     1      -3.337   1.183   0.000  0.00  0.00    +0.261 C 
ATOM     12  O   UNL     1      -2.569   1.485   0.000  0.00  0.00    -0.271 OA
ATOM     13  N   UNL     1      -3.942   1.744   0.000  0.00  0.00    -0.204 NA
ATOM     14  C   UNL     1      -4.757   1.621   0.000  0.00  0.00    +0.115 C 
ATOM     15  C   UNL     1      -5.170   0.907   0.000  0.00  0.00    +0.024 C 
ATOM     16  C   UNL     1      -4.868   0.139   0.000  0.00  0.00    +0.004 C 
ATOM     17  C   UNL     1      -4.080  -0.104   0.000  0.00  0.00    +0.031 C 
ENDBRANCH   9  10
TORSDOF 1
