REMARK  Name = 
REMARK  1 active torsions:
REMARK  status: ('A' for Active; 'I' for Inactive)
REMARK    1  A    between atoms: C_7  and  C_9
REMARK                            x       y       z     vdW  Elec       q    Type
REMARK                         _______ _______ _______ _____ _____    ______ ____
ROOT
ATOM      1  C   UNL     1      -0.715   9.241   0.000  0.00  0.00    +0.033 C 
ATOM      2  C   UNL     1      -0.715   8.416   0.000  0.00  0.00    -0.003 A 
ATOM      3  C   UNL     1      -1.429   8.004   0.000  0.00  0.00    +0.096 A 
ATOM      4  N   UNL     1      -1.429   7.179   0.000  0.00  0.00    -0.228 NA
ATOM      5  C   UNL     1      -0.715   6.766   0.000  0.00  0.00    +0.155 A 
ATOM      6  N   UNL     1      -0.715   5.941   0.000  0.00  0.00    -0.158 NA
ATOM      7  C   UNL     1       0.000   5.529   0.000  0.00  0.00    +0.274 C 
ATOM      8  O   UNL     1       0.715   5.941   0.000  0.00  0.00    -0.270 OA
ATOM      9  C   UNL     1       0.000   7.179   0.000  0.00  0.00    +0.036 A 
ATOM     10  C   UNL     1       0.000   8.004   0.000  0.00  0.00    +0.000 A 
ENDROOT
BRANCH   7  11
ATOM     11  C   UNL     1       0.000   4.704   0.000  0.00  0.00    +0.193 C 
ATOM     12  O   UNL     1      -0.667   4.219   0.000  0.00  0.00    -0.347 OA
ATOM     13  C   UNL     1      -0.412   3.434   0.000  0.00  0.00    +0.143 C 
ATOM     14  C   UNL     1       0.412   3.434   0.000  0.00  0.00    +0.035 C 
ATOM     15  C   UNL     1       0.667   4.219   0.000  0.00  0.00    +0.042 C 
ENDBRANCH   7  11
TORSDOF 1
