REMARK  Name = 
REMARK  2 active torsions:
REMARK  status: ('A' for Active; 'I' for Inactive)
REMARK    1  A    between atoms: C_2  and  C_3
REMARK    2  A    between atoms: C_3  and  N_4
REMARK                            x       y       z     vdW  Elec       q    Type
REMARK                         _______ _______ _______ _____ _____    ______ ____
ROOT
ATOM      1  N   UNL     1       1.139  -1.365   0.000  0.00  0.00    -0.307 N 
ATOM      2  C   UNL     1       1.923  -1.110   0.000  0.00  0.00    +0.079 A 
ATOM      3  C   UNL     1       1.923  -0.285   0.000  0.00  0.00    +0.099 A 
ATOM      4  C   UNL     1       2.638   0.127   0.000  0.00  0.00    +0.021 A 
ATOM      5  C   UNL     1       3.352  -0.285   0.000  0.00  0.00    +0.002 A 
ATOM      6  C   UNL     1       3.352  -1.110   0.000  0.00  0.00    +0.002 A 
ATOM      7  N   UNL     1       1.139  -0.030   0.000  0.00  0.00    -0.224 NA
ATOM      8  C   UNL     1       2.638  -1.523   0.000  0.00  0.00    +0.019 A 
ATOM      9  C   UNL     1       0.654  -0.698   0.000  0.00  0.00    +0.179 A 
ENDROOT
BRANCH   1  10
ATOM     10  C   UNL     1       0.884  -2.150   0.000  0.00  0.00    +0.138 C 
BRANCH  10  12
ATOM     11  O   UNL     1       1.944  -2.113   0.000  0.00  0.00    -0.224 OA
ATOM     12  C   UNL     1       1.436  -2.763   0.000  0.00  0.00    +0.147 C 
ATOM     13  C   UNL     1       0.736  -3.200   0.000  0.00  0.00    +0.032 C 
ATOM     14  C   UNL     1       0.765  -4.025   0.000  0.00  0.00    +0.003 C 
ATOM     15  C   UNL     1       1.493  -4.412   0.000  0.00  0.00    +0.000 C 
ATOM     16  C   UNL     1       2.193  -3.975   0.000  0.00  0.00    +0.003 C 
ATOM     17  C   UNL     1       2.164  -3.150   0.000  0.00  0.00    +0.032 C 
ENDBRANCH  10  12
ENDBRANCH   1  10
TORSDOF 2
