REMARK  Name = 
REMARK  6 active torsions:
REMARK  status: ('A' for Active; 'I' for Inactive)
REMARK    1  A    between atoms: N_4  and  C_5
REMARK    2  A    between atoms: C_5  and  C_6
REMARK    3  A    between atoms: N_8  and  C_9
REMARK    4  A    between atoms: C_9  and  C_10
REMARK    5  A    between atoms: C_10  and  C_11
REMARK    6  A    between atoms: C_19  and  C_20
REMARK                            x       y       z     vdW  Elec       q    Type
REMARK                         _______ _______ _______ _____ _____    ______ ____
ROOT
ATOM      1  C   UNL     1      -0.715  -3.712   0.000  0.00  0.00    +0.217 C 
ENDROOT
BRANCH   1   9
ATOM      2  C   UNL     1      -2.143  -1.238   0.000  0.00  0.00    +0.054 C 
ATOM      3  C   UNL     1      -2.143  -2.062   0.000  0.00  0.00    +0.076 A 
ATOM      4  C   UNL     1      -2.858  -2.475   0.000  0.00  0.00    +0.008 A 
ATOM      5  C   UNL     1      -3.572  -2.062   0.000  0.00  0.00    +0.033 C 
ATOM      6  C   UNL     1      -2.858  -3.300   0.000  0.00  0.00    +0.123 A 
ATOM      7  C   UNL     1      -2.143  -3.712   0.000  0.00  0.00    +0.286 A 
ATOM      8  O   UNL     1      -2.143  -4.537   0.000  0.00  0.00    -0.265 OA
ATOM      9  N   UNL     1      -1.429  -3.300   0.000  0.00  0.00    -0.207 N 
ATOM     10  N   UNL     1      -1.429  -2.475   0.000  0.00  0.00    -0.171 NA
BRANCH   6  11
ATOM     11  C   UNL     1      -3.572  -3.712   0.000  0.00  0.00    +0.105 C 
ATOM     12  N   UNL     1      -4.287  -4.125   0.000  0.00  0.00    -0.191 NA
ENDBRANCH   6  11
ENDBRANCH   1   9
BRANCH   1  13
ATOM     13  C   UNL     1       0.000  -3.300   0.000  0.00  0.00    +0.266 C 
ATOM     14  N   UNL     1       0.715  -3.712   0.000  0.00  0.00    -0.203 NA
ATOM     15  O   UNL     1       0.000  -2.475   0.000  0.00  0.00    -0.271 OA
BRANCH  14  16
ATOM     16  C   UNL     1       1.429  -3.300   0.000  0.00  0.00    +0.120 C 
BRANCH  16  17
ATOM     17  C   UNL     1       2.143  -3.712   0.000  0.00  0.00    +0.045 C 
BRANCH  17  18
ATOM     18  C   UNL     1       2.858  -3.300   0.000  0.00  0.00    -0.047 C 
ATOM     19  C   UNL     1       3.572  -3.712   0.000  0.00  0.00    +0.022 C 
ATOM     20  C   UNL     1       4.287  -3.300   0.000  0.00  0.00    +0.005 C 
ATOM     21  C   UNL     1       4.287  -2.475   0.000  0.00  0.00    +0.005 C 
ATOM     22  C   UNL     1       3.572  -2.062   0.000  0.00  0.00    +0.025 C 
ATOM     23  C   UNL     1       2.858  -2.475   0.000  0.00  0.00    -0.035 C 
ENDBRANCH  17  18
ENDBRANCH  16  17
ENDBRANCH  14  16
ENDBRANCH   1  13
TORSDOF 6
