REMARK  Name = 
REMARK  3 active torsions:
REMARK  status: ('A' for Active; 'I' for Inactive)
REMARK    1  A    between atoms: C_2  and  N_3
REMARK    2  A    between atoms: C_2  and  C_14
REMARK    3  A    between atoms: C_14  and  N_16
REMARK                            x       y       z     vdW  Elec       q    Type
REMARK                         _______ _______ _______ _____ _____    ______ ____
ROOT
ATOM      1  N   UNL     1       3.572  -3.712   0.000  0.00  0.00    -0.187 NA
ATOM      2  C   UNL     1       2.858  -4.125   0.000  0.00  0.00    +0.345 C 
ATOM      3  N   UNL     1       2.143  -3.712   0.000  0.00  0.00    -0.142 NA
ATOM      4  C   UNL     1       1.429  -4.125   0.000  0.00  0.00    +0.156 A 
ATOM      5  N   UNL     1       0.715  -3.712   0.000  0.00  0.00    -0.233 NA
ATOM      6  C   UNL     1       0.000  -4.125   0.000  0.00  0.00    +0.061 A 
ATOM      7  C   UNL     1      -0.715  -3.712   0.000  0.00  0.00    +0.052 C 
ATOM      8  C   UNL     1       0.000  -4.950   0.000  0.00  0.00    +0.015 A 
ATOM      9  C   UNL     1       0.715  -5.362   0.000  0.00  0.00    +0.004 A 
ATOM     10  C   UNL     1       1.429  -4.950   0.000  0.00  0.00    +0.036 A 
ATOM     11  O   UNL     1       2.858  -4.950   0.000  0.00  0.00    -0.249 OA
ENDROOT
BRANCH   1  13
ATOM     12  C   UNL     1       4.287  -4.950   0.000  0.00  0.00    +0.025 C 
ATOM     13  C   UNL     1       4.287  -4.125   0.000  0.00  0.00    +0.112 C 
BRANCH  13  14
ATOM     14  C   UNL     1       5.001  -3.712   0.000  0.00  0.00    +0.078 C 
ATOM     15  C   UNL     1       5.001  -2.888   0.000  0.00  0.00    +0.019 C 
BRANCH  14  16
ATOM     16  N   UNL     1       5.716  -4.125   0.000  0.00  0.00    -0.268 NA
ATOM     17  C   UNL     1       5.716  -4.950   0.000  0.00  0.00    +0.105 C 
ATOM     18  C   UNL     1       6.430  -5.362   0.000  0.00  0.00    +0.159 C 
ATOM     19  O   UNL     1       7.145  -4.950   0.000  0.00  0.00    -0.351 OA
ATOM     20  C   UNL     1       7.145  -4.125   0.000  0.00  0.00    +0.159 C 
ATOM     21  C   UNL     1       6.430  -3.712   0.000  0.00  0.00    +0.105 C 
ENDBRANCH  14  16
ENDBRANCH  13  14
ENDBRANCH   1  13
TORSDOF 3
