REMARK  Name = 
REMARK  4 active torsions:
REMARK  status: ('A' for Active; 'I' for Inactive)
REMARK    1  A    between atoms: C_2  and  C_3
REMARK    2  A    between atoms: C_3  and  N_4
REMARK    3  A    between atoms: C_5  and  C_7
REMARK    4  A    between atoms: C_7  and  C_8
REMARK                            x       y       z     vdW  Elec       q    Type
REMARK                         _______ _______ _______ _____ _____    ______ ____
ROOT
ATOM      1  C   UNL     1      -0.176  -1.527   0.000  0.00  0.00    +0.115 C 
ENDROOT
BRANCH   1   3
ATOM      2  C   UNL     1      -0.330  -2.544   0.000  0.00  0.00    +0.002 C 
ATOM      3  C   UNL     1      -0.891  -1.939   0.000  0.00  0.00    +0.020 C 
ATOM      4  C   UNL     1      -1.134  -1.151   0.000  0.00  0.00    +0.002 C 
ATOM      5  C   UNL     1      -1.902  -0.850   0.000  0.00  0.00    +0.000 C 
ATOM      6  C   UNL     1      -2.616  -1.262   0.000  0.00  0.00    +0.000 C 
ATOM      7  C   UNL     1      -2.739  -2.078   0.000  0.00  0.00    +0.000 C 
ATOM      8  C   UNL     1      -2.178  -2.683   0.000  0.00  0.00    +0.000 C 
ATOM      9  C   UNL     1      -1.355  -2.621   0.000  0.00  0.00    +0.002 C 
ENDBRANCH   1   3
BRANCH   1  10
ATOM     10  N   UNL     1       0.538  -1.939   0.000  0.00  0.00    -0.205 NA
ATOM     11  C   UNL     1       1.253  -1.527   0.000  0.00  0.00    +0.247 C 
ATOM     12  O   UNL     1       1.253  -0.702   0.000  0.00  0.00    -0.273 OA
BRANCH  11  13
ATOM     13  C   UNL     1       1.967  -1.939   0.000  0.00  0.00    +0.134 C 
BRANCH  13  14
ATOM     14  C   UNL     1       2.682  -1.527   0.000  0.00  0.00    +0.091 A 
ATOM     15  N   UNL     1       3.435  -1.862   0.000  0.00  0.00    -0.152 NA
ATOM     16  N   UNL     1       3.987  -1.249   0.000  0.00  0.00    -0.147 NA
ATOM     17  C   UNL     1       3.575  -0.535   0.000  0.00  0.00    +0.123 A 
ATOM     18  C   UNL     1       2.768  -0.706   0.000  0.00  0.00    +0.039 A 
ENDBRANCH  13  14
ENDBRANCH  11  13
ENDBRANCH   1  10
TORSDOF 4
