REMARK  Name = 
REMARK  4 active torsions:
REMARK  status: ('A' for Active; 'I' for Inactive)
REMARK    1  A    between atoms: C_2  and  C_5
REMARK    2  A    between atoms: C_10  and  N_11
REMARK    3  A    between atoms: N_14  and  C_15
REMARK    4  A    between atoms: N_18  and  C_21
REMARK                            x       y       z     vdW  Elec       q    Type
REMARK                         _______ _______ _______ _____ _____    ______ ____
ROOT
ATOM      1  N   UNL     1       0.000   7.553   0.000  0.00  0.00    -0.156 NA
ATOM      2  C   UNL     1       0.000   6.728   0.000  0.00  0.00    +0.344 C 
ATOM      3  N   UNL     1       0.715   6.315   0.000  0.00  0.00    -0.189 NA
ATOM      4  O   UNL     1      -0.715   6.315   0.000  0.00  0.00    -0.249 OA
ENDROOT
BRANCH   1   7
ATOM      5  C   UNL     1      -2.143   7.965   0.000  0.00  0.00    +0.092 A 
ATOM      6  C   UNL     1      -1.429   7.553   0.000  0.00  0.00    +0.027 A 
ATOM      7  C   UNL     1      -0.715   7.965   0.000  0.00  0.00    +0.133 A 
ATOM      8  C   UNL     1      -0.715   8.790   0.000  0.00  0.00    +0.295 A 
ATOM      9  O   UNL     1       0.000   9.203   0.000  0.00  0.00    -0.264 OA
ATOM     10  N   UNL     1      -1.429   9.203   0.000  0.00  0.00    -0.205 NA
ATOM     11  C   UNL     1      -2.143   8.790   0.000  0.00  0.00    +0.106 A 
BRANCH   5  13
ATOM     12  F   UNL     1      -3.572   7.140   0.000  0.00  0.00    -0.166 F 
ATOM     13  C   UNL     1      -2.858   7.553   0.000  0.00  0.00    +0.420 C 
ATOM     14  F   UNL     1      -3.270   8.267   0.000  0.00  0.00    -0.166 F 
ATOM     15  F   UNL     1      -2.445   6.838   0.000  0.00  0.00    -0.166 F 
ENDBRANCH   5  13
ENDBRANCH   1   7
BRANCH   3  16
ATOM     16  C   UNL     1       0.715   5.490   0.000  0.00  0.00    +0.100 C 
ATOM     17  C   UNL     1       0.000   5.078   0.000  0.00  0.00    +0.039 C 
ATOM     18  C   UNL     1       0.000   4.253   0.000  0.00  0.00    +0.074 C 
ATOM     19  N   UNL     1       0.715   3.840   0.000  0.00  0.00    -0.274 NA
ATOM     20  C   UNL     1       1.429   4.253   0.000  0.00  0.00    +0.074 C 
ATOM     21  C   UNL     1       1.429   5.078   0.000  0.00  0.00    +0.039 C 
BRANCH  19  22
ATOM     22  C   UNL     1       0.715   3.015   0.000  0.00  0.00    +0.058 C 
ATOM     23  C   UNL     1       0.302   2.301   0.000  0.00  0.00    +0.017 C 
ATOM     24  C   UNL     1       1.127   2.301   0.000  0.00  0.00    +0.017 C 
ENDBRANCH  19  22
ENDBRANCH   3  16
TORSDOF 4
