REMARK  Name = 
REMARK  4 active torsions:
REMARK  status: ('A' for Active; 'I' for Inactive)
REMARK    1  A    between atoms: C_2  and  C_4
REMARK    2  A    between atoms: C_4  and  N_5
REMARK    3  A    between atoms: C_6  and  C_8
REMARK    4  A    between atoms: C_8  and  N_9
REMARK                            x       y       z     vdW  Elec       q    Type
REMARK                         _______ _______ _______ _____ _____    ______ ____
ROOT
ATOM      1  C   UNL     1       5.001  -3.712   0.000  0.00  0.00    +0.197 C 
ENDROOT
BRANCH   1   2
ATOM      2  N   UNL     1       5.716  -4.125   0.000  0.00  0.00    -0.269 N 
ATOM      3  C   UNL     1       5.716  -4.950   0.000  0.00  0.00    +0.353 A 
ATOM      4  O   UNL     1       5.001  -5.362   0.000  0.00  0.00    -0.244 OA
ATOM      5  N   UNL     1       6.430  -5.362   0.000  0.00  0.00    -0.153 NA
ATOM      6  C   UNL     1       7.145  -4.950   0.000  0.00  0.00    +0.285 A 
ATOM      7  O   UNL     1       7.859  -5.362   0.000  0.00  0.00    -0.265 OA
ATOM      8  C   UNL     1       7.145  -4.125   0.000  0.00  0.00    +0.081 A 
ATOM      9  C   UNL     1       6.430  -3.712   0.000  0.00  0.00    +0.085 A 
ENDBRANCH   1   2
BRANCH   1  11
ATOM     10  N   UNL     1       3.572  -3.712   0.000  0.00  0.00    -0.204 NA
ATOM     11  C   UNL     1       4.287  -4.125   0.000  0.00  0.00    +0.265 C 
ATOM     12  O   UNL     1       4.287  -4.950   0.000  0.00  0.00    -0.271 OA
BRANCH  10  13
ATOM     13  C   UNL     1       2.858  -4.125   0.000  0.00  0.00    +0.115 C 
BRANCH  13  15
ATOM     14  C   UNL     1       1.429  -4.125   0.000  0.00  0.00    +0.002 C 
ATOM     15  C   UNL     1       2.143  -3.712   0.000  0.00  0.00    +0.022 C 
ATOM     16  C   UNL     1       2.143  -2.888   0.000  0.00  0.00    +0.002 C 
ENDBRANCH  13  15
ENDBRANCH  10  13
ENDBRANCH   1  11
TORSDOF 4
