REMARK  Name = 
REMARK  6 active torsions:
REMARK  status: ('A' for Active; 'I' for Inactive)
REMARK    1  A    between atoms: N_2  and  C_11
REMARK    2  A    between atoms: C_4  and  N_7
REMARK    3  A    between atoms: N_7  and  C_10
REMARK    4  A    between atoms: N_7  and  C_20
REMARK    5  A    between atoms: C_11  and  C_13
REMARK    6  A    between atoms: C_13  and  C_21
REMARK                            x       y       z     vdW  Elec       q    Type
REMARK                         _______ _______ _______ _____ _____    ______ ____
ROOT
ATOM      1  C   UNL     1       2.562   0.825   0.000  0.00  0.00    +0.149 A 
ATOM      2  N   UNL     1       1.779   1.083   0.000  0.00  0.00    -0.219 NA
ATOM      3  C   UNL     1       1.292   0.412   0.000  0.00  0.00    +0.180 A 
ATOM      4  N   UNL     1       1.779  -0.254   0.000  0.00  0.00    -0.294 N 
ATOM      5  C   UNL     1       3.275   1.238   0.000  0.00  0.00    +0.154 A 
ATOM      6  N   UNL     1       3.992   0.825   0.000  0.00  0.00    -0.207 NA
ATOM      7  C   UNL     1       3.992   0.000   0.000  0.00  0.00    +0.201 A 
ATOM      8  N   UNL     1       3.275  -0.412   0.000  0.00  0.00    -0.205 NA
ATOM      9  C   UNL     1       2.562   0.000   0.000  0.00  0.00    +0.167 A 
ENDROOT
BRANCH   4  10
ATOM     10  C   UNL     1       1.521  -1.038   0.000  0.00  0.00    +0.112 C 
BRANCH  10  11
ATOM     11  C   UNL     1       2.075  -1.650   0.000  0.00  0.00    +0.056 C 
ATOM     12  C   UNL     1       2.583  -1.000   0.000  0.00  0.00    +0.037 C 
ATOM     13  C   UNL     1       3.400  -1.117   0.000  0.00  0.00    +0.142 C 
ATOM     14  O   UNL     1       3.708  -1.879   0.000  0.00  0.00    -0.354 OA
ATOM     15  C   UNL     1       3.200  -2.529   0.000  0.00  0.00    +0.142 C 
ATOM     16  C   UNL     1       2.383  -2.417   0.000  0.00  0.00    +0.037 C 
BRANCH  11  17
ATOM     17  C   UNL     1       1.375  -2.087   0.000  0.00  0.00    +0.184 C 
ATOM     18  O   UNL     1       1.404  -2.913   0.000  0.00  0.00    -0.220 OA
ENDBRANCH  11  17
ENDBRANCH  10  11
ENDBRANCH   4  10
BRANCH   5  19
ATOM     19  N   UNL     1       3.275   2.062   0.000  0.00  0.00    -0.293 N 
BRANCH  19  20
ATOM     20  C   UNL     1       2.562   2.475   0.000  0.00  0.00    +0.079 C 
ATOM     21  C   UNL     1       1.850   2.062   0.000  0.00  0.00    +0.052 C 
ATOM     22  C   UNL     1       1.133   2.475   0.000  0.00  0.00    +0.144 C 
ATOM     23  O   UNL     1       1.133   3.300   0.000  0.00  0.00    -0.358 OA
ATOM     24  C   UNL     1       1.850   3.712   0.000  0.00  0.00    +0.095 C 
ATOM     25  C   UNL     1       1.317   4.342   0.000  0.00  0.00    +0.030 C 
ATOM     26  C   UNL     1       2.379   4.342   0.000  0.00  0.00    +0.030 C 
ATOM     27  C   UNL     1       2.562   3.300   0.000  0.00  0.00    +0.047 C 
ENDBRANCH  19  20
BRANCH  19  28
ATOM     28  C   UNL     1       3.992   2.475   0.000  0.00  0.00    +0.092 C 
ATOM     29  C   UNL     1       4.704   2.062   0.000  0.00  0.00    +0.023 C 
ENDBRANCH  19  28
ENDBRANCH   5  19
TORSDOF 6
