REMARK  Name = 
REMARK  5 active torsions:
REMARK  status: ('A' for Active; 'I' for Inactive)
REMARK    1  A    between atoms: C_7  and  N_8
REMARK    2  A    between atoms: C_9  and  C_11
REMARK    3  A    between atoms: C_11  and  N_12
REMARK    4  A    between atoms: N_16  and  C_17
REMARK    5  A    between atoms: C_17  and  C_18
REMARK                            x       y       z     vdW  Elec       q    Type
REMARK                         _______ _______ _______ _____ _____    ______ ____
ROOT
ATOM      1  C   UNL     1       2.858  -0.825   0.000  0.00  0.00    +0.200 C 
ENDROOT
BRANCH   1   2
ATOM      2  N   UNL     1       3.572  -1.238   0.000  0.00  0.00    -0.209 NA
ATOM      3  C   UNL     1       4.287  -0.825   0.000  0.00  0.00    +0.169 A 
ATOM      4  N   UNL     1       5.040  -1.161   0.000  0.00  0.00    -0.152 NA
ATOM      5  N   UNL     1       5.593  -0.547   0.000  0.00  0.00    -0.239 N 
ATOM      6  C   UNL     1       5.180   0.167   0.000  0.00  0.00    +0.099 A 
ATOM      7  C   UNL     1       4.373  -0.004   0.000  0.00  0.00    +0.058 A 
BRANCH   5   8
ATOM      8  C   UNL     1       6.413  -0.634   0.000  0.00  0.00    +0.215 C 
BRANCH   8   9
ATOM      9  C   UNL     1       6.749  -1.387   0.000  0.00  0.00    +0.286 C 
ATOM     10  N   UNL     1       6.264  -2.055   0.000  0.00  0.00    -0.086 NA
ATOM     11  O   UNL     1       7.569  -1.474   0.000  0.00  0.00    -0.269 OA
ENDBRANCH   8   9
ENDBRANCH   5   8
ENDBRANCH   1   2
BRANCH   1  13
ATOM     12  N   UNL     1       1.429  -0.825   0.000  0.00  0.00    -0.206 NA
ATOM     13  C   UNL     1       2.143  -1.238   0.000  0.00  0.00    +0.263 C 
ATOM     14  O   UNL     1       2.143  -2.062   0.000  0.00  0.00    -0.271 OA
BRANCH  12  17
ATOM     15  C   UNL     1       1.429  -2.475   0.000  0.00  0.00    +0.002 C 
ATOM     16  C   UNL     1       0.715  -2.062   0.000  0.00  0.00    +0.020 C 
ATOM     17  C   UNL     1       0.715  -1.238   0.000  0.00  0.00    +0.095 C 
ATOM     18  C   UNL     1       0.000  -0.825   0.000  0.00  0.00    +0.022 C 
ATOM     19  C   UNL     1      -0.715  -1.238   0.000  0.00  0.00    +0.002 C 
ATOM     20  C   UNL     1      -0.715  -2.062   0.000  0.00  0.00    +0.000 C 
ATOM     21  C   UNL     1       0.000  -2.475   0.000  0.00  0.00    +0.002 C 
ENDBRANCH  12  17
ENDBRANCH   1  13
TORSDOF 5
