REMARK  Name = 
REMARK  5 active torsions:
REMARK  status: ('A' for Active; 'I' for Inactive)
REMARK    1  A    between atoms: O_2  and  C_3
REMARK    2  A    between atoms: C_6  and  N_7
REMARK    3  A    between atoms: N_10  and  C_11
REMARK    4  A    between atoms: C_15  and  C_16
REMARK    5  A    between atoms: C_16  and  C_17
REMARK                            x       y       z     vdW  Elec       q    Type
REMARK                         _______ _______ _______ _____ _____    ______ ____
ROOT
ATOM      1  N   UNL     1      -1.429  -4.950   0.000  0.00  0.00    -0.160 NA
ATOM      2  C   UNL     1      -0.715  -5.362   0.000  0.00  0.00    +0.343 C 
ATOM      3  N   UNL     1      -0.715  -6.188   0.000  0.00  0.00    -0.189 NA
ATOM      4  O   UNL     1       0.000  -4.950   0.000  0.00  0.00    -0.249 OA
ENDROOT
BRANCH   1   9
ATOM      5  C   UNL     1      -1.429  -2.475   0.000  0.00  0.00    +0.225 A 
ATOM      6  N   UNL     1      -2.143  -2.888   0.000  0.00  0.00    -0.215 NA
ATOM      7  C   UNL     1      -2.143  -3.712   0.000  0.00  0.00    +0.078 A 
ATOM      8  C   UNL     1      -2.858  -4.125   0.000  0.00  0.00    +0.054 C 
ATOM      9  C   UNL     1      -1.429  -4.125   0.000  0.00  0.00    +0.089 A 
ATOM     10  C   UNL     1      -0.715  -3.712   0.000  0.00  0.00    +0.023 A 
ATOM     11  C   UNL     1      -0.715  -2.888   0.000  0.00  0.00    +0.059 A 
BRANCH   5  13
ATOM     12  C   UNL     1      -2.143  -1.238   0.000  0.00  0.00    +0.254 C 
ATOM     13  O   UNL     1      -1.429  -1.650   0.000  0.00  0.00    -0.456 OA
ENDBRANCH   5  13
ENDBRANCH   1   9
BRANCH   3  14
ATOM     14  C   UNL     1       0.000  -6.600   0.000  0.00  0.00    +0.102 C 
ATOM     15  C   UNL     1       0.000  -7.425   0.000  0.00  0.00    +0.051 C 
ATOM     16  C   UNL     1       0.715  -7.838   0.000  0.00  0.00    +0.117 C 
ATOM     17  O   UNL     1       1.429  -7.425   0.000  0.00  0.00    -0.356 OA
ATOM     18  C   UNL     1       1.429  -6.600   0.000  0.00  0.00    +0.144 C 
ATOM     19  C   UNL     1       0.715  -6.188   0.000  0.00  0.00    +0.054 C 
BRANCH  16  20
ATOM     20  C   UNL     1       0.715  -8.662   0.000  0.00  0.00    +0.030 C 
BRANCH  20  21
ATOM     21  C   UNL     1       0.000  -9.075   0.000  0.00  0.00    +0.002 C 
ATOM     22  C   UNL     1      -0.715  -8.662   0.000  0.00  0.00    +0.000 C 
ATOM     23  C   UNL     1       0.000  -9.900   0.000  0.00  0.00    +0.000 C 
ENDBRANCH  20  21
ENDBRANCH  16  20
ENDBRANCH   3  14
TORSDOF 5
