REMARK  Name = 
REMARK  7 active torsions:
REMARK  status: ('A' for Active; 'I' for Inactive)
REMARK    1  A    between atoms: N_2  and  C_3
REMARK    2  A    between atoms: N_2  and  C_18
REMARK    3  A    between atoms: C_3  and  C_4
REMARK    4  A    between atoms: C_4  and  C_6
REMARK    5  A    between atoms: C_6  and  N_7
REMARK    6  A    between atoms: C_13  and  C_14
REMARK    7  A    between atoms: C_18  and  C_19
REMARK                            x       y       z     vdW  Elec       q    Type
REMARK                         _______ _______ _______ _____ _____    ______ ____
ROOT
ATOM      1  C   UNL     1       2.858  -4.125   0.000  0.00  0.00    +0.192 C 
ATOM      2  O   UNL     1       2.858  -4.950   0.000  0.00  0.00    -0.219 OA
ENDROOT
BRANCH   1   3
ATOM      3  C   UNL     1       3.572  -3.712   0.000  0.00  0.00    +0.108 C 
BRANCH   3   5
ATOM      4  C   UNL     1       4.287  -4.950   0.000  0.00  0.00    +0.090 C 
ATOM      5  N   UNL     1       4.287  -4.125   0.000  0.00  0.00    -0.266 NA
BRANCH   5   6
ATOM      6  C   UNL     1       5.001  -3.712   0.000  0.00  0.00    +0.099 C 
BRANCH   6   7
ATOM      7  C   UNL     1       5.716  -4.125   0.000  0.00  0.00    -0.006 A 
ATOM      8  C   UNL     1       5.716  -4.950   0.000  0.00  0.00    -0.003 A 
ATOM      9  C   UNL     1       6.430  -5.362   0.000  0.00  0.00    -0.000 A 
ATOM     10  C   UNL     1       7.145  -4.950   0.000  0.00  0.00    -0.000 A 
ATOM     11  C   UNL     1       7.145  -4.125   0.000  0.00  0.00    -0.000 A 
ATOM     12  C   UNL     1       6.430  -3.712   0.000  0.00  0.00    -0.003 A 
ENDBRANCH   6   7
ENDBRANCH   5   6
ENDBRANCH   3   5
ENDBRANCH   1   3
BRANCH   1  13
ATOM     13  C   UNL     1       2.143  -3.712   0.000  0.00  0.00    +0.165 C 
BRANCH  13  14
ATOM     14  N   UNL     1       1.429  -4.125   0.000  0.00  0.00    -0.214 N 
ATOM     15  C   UNL     1       0.715  -3.712   0.000  0.00  0.00    +0.286 A 
ATOM     16  O   UNL     1       0.715  -2.888   0.000  0.00  0.00    -0.265 OA
ATOM     17  C   UNL     1       0.000  -4.125   0.000  0.00  0.00    +0.123 A 
ATOM     18  C   UNL     1       0.000  -4.950   0.000  0.00  0.00    +0.008 A 
ATOM     19  C   UNL     1      -0.715  -5.362   0.000  0.00  0.00    +0.033 C 
ATOM     20  C   UNL     1       0.715  -5.362   0.000  0.00  0.00    +0.076 A 
ATOM     21  C   UNL     1       0.715  -6.188   0.000  0.00  0.00    +0.054 C 
ATOM     22  N   UNL     1       1.429  -4.950   0.000  0.00  0.00    -0.171 NA
BRANCH  17  23
ATOM     23  C   UNL     1      -0.715  -3.712   0.000  0.00  0.00    +0.105 C 
ATOM     24  N   UNL     1      -1.429  -3.300   0.000  0.00  0.00    -0.191 NA
ENDBRANCH  17  23
ENDBRANCH  13  14
ENDBRANCH   1  13
TORSDOF 7
