REMARK  Name = 
REMARK  4 active torsions:
REMARK  status: ('A' for Active; 'I' for Inactive)
REMARK    1  A    between atoms: C_2  and  C_3
REMARK    2  A    between atoms: C_3  and  C_4
REMARK    3  A    between atoms: C_3  and  C_6
REMARK    4  A    between atoms: C_8  and  N_12
REMARK                            x       y       z     vdW  Elec       q    Type
REMARK                         _______ _______ _______ _____ _____    ______ ____
ROOT
ATOM      1  C   UNL     1       2.858  -2.475   0.000  0.00  0.00    +0.117 C 
ATOM      2  O   UNL     1       2.143  -2.888   0.000  0.00  0.00    -0.356 OA
ATOM      3  C   UNL     1       2.143  -3.712   0.000  0.00  0.00    +0.144 C 
ATOM      4  C   UNL     1       2.858  -4.125   0.000  0.00  0.00    +0.054 C 
ATOM      5  C   UNL     1       3.572  -3.712   0.000  0.00  0.00    +0.102 C 
ATOM      6  C   UNL     1       3.572  -2.888   0.000  0.00  0.00    +0.051 C 
ENDROOT
BRANCH   5   7
ATOM      7  N   UNL     1       4.287  -4.125   0.000  0.00  0.00    -0.188 NA
ATOM      8  C   UNL     1       4.287  -4.950   0.000  0.00  0.00    +0.345 C 
ATOM      9  N   UNL     1       5.001  -5.362   0.000  0.00  0.00    -0.142 NA
ATOM     10  C   UNL     1       5.001  -6.188   0.000  0.00  0.00    +0.156 A 
ATOM     11  N   UNL     1       4.287  -6.600   0.000  0.00  0.00    -0.227 NA
ATOM     12  C   UNL     1       4.287  -7.425   0.000  0.00  0.00    +0.100 A 
ATOM     13  C   UNL     1       5.001  -7.838   0.000  0.00  0.00    +0.021 A 
ATOM     14  C   UNL     1       5.716  -7.425   0.000  0.00  0.00    +0.005 A 
ATOM     15  C   UNL     1       5.716  -6.600   0.000  0.00  0.00    +0.036 A 
ATOM     16  O   UNL     1       3.572  -5.362   0.000  0.00  0.00    -0.249 OA
ENDBRANCH   5   7
BRANCH   1  17
ATOM     17  C   UNL     1       2.858  -1.650   0.000  0.00  0.00    +0.027 C 
BRANCH  17  19
ATOM     18  C   UNL     1       2.143  -0.412   0.000  0.00  0.00    +0.000 C 
ATOM     19  C   UNL     1       2.143  -1.238   0.000  0.00  0.00    +0.002 C 
ENDBRANCH  17  19
BRANCH  17  20
ATOM     20  C   UNL     1       3.572  -1.238   0.000  0.00  0.00    +0.002 C 
ATOM     21  C   UNL     1       4.287  -1.650   0.000  0.00  0.00    +0.000 C 
ENDBRANCH  17  20
ENDBRANCH   1  17
TORSDOF 4
