REMARK  Name = 
REMARK  4 active torsions:
REMARK  status: ('A' for Active; 'I' for Inactive)
REMARK    1  A    between atoms: C_4  and  C_5
REMARK    2  A    between atoms: N_7  and  C_8
REMARK    3  A    between atoms: C_8  and  C_9
REMARK    4  A    between atoms: C_9  and  C_10
REMARK                            x       y       z     vdW  Elec       q    Type
REMARK                         _______ _______ _______ _____ _____    ______ ____
ROOT
ATOM      1  C   UNL     1       1.387  -2.408   0.000  0.00  0.00    +0.241 C 
ATOM      2  N   UNL     1       2.102  -1.996   0.000  0.00  0.00    -0.205 NA
ATOM      3  O   UNL     1       1.387  -3.233   0.000  0.00  0.00    -0.273 OA
ENDROOT
BRANCH   1   9
ATOM      4  C   UNL     1       0.892  -0.751   0.000  0.00  0.00    +0.000 C 
ATOM      5  C   UNL     1       0.260  -1.281   0.000  0.00  0.00    +0.009 C 
ATOM      6  C   UNL     1      -0.152  -1.996   0.000  0.00  0.00    +0.009 C 
ATOM      7  C   UNL     1      -0.974  -1.924   0.000  0.00  0.00    +0.000 C 
ATOM      8  C   UNL     1      -0.501  -2.743   0.000  0.00  0.00    +0.000 C 
ATOM      9  C   UNL     1       0.672  -1.996   0.000  0.00  0.00    +0.078 C 
ATOM     10  C   UNL     1      -0.372  -0.751   0.000  0.00  0.00    +0.000 C 
ENDBRANCH   1   9
BRANCH   2  11
ATOM     11  C   UNL     1       2.816  -2.408   0.000  0.00  0.00    +0.125 C 
BRANCH  11  12
ATOM     12  C   UNL     1       3.530  -1.996   0.000  0.00  0.00    +0.111 C 
BRANCH  12  13
ATOM     13  C   UNL     1       4.245  -2.408   0.000  0.00  0.00    +0.239 A 
ATOM     14  O   UNL     1       4.331  -3.229   0.000  0.00  0.00    -0.336 OA
ATOM     15  N   UNL     1       5.138  -3.400   0.000  0.00  0.00    -0.037 NA
ATOM     16  C   UNL     1       5.551  -2.686   0.000  0.00  0.00    +0.295 A 
ATOM     17  N   UNL     1       6.371  -2.599   0.000  0.00  0.00    -0.083 NA
ATOM     18  N   UNL     1       4.999  -2.073   0.000  0.00  0.00    -0.175 NA
ENDBRANCH  12  13
ENDBRANCH  11  12
ENDBRANCH   2  11
TORSDOF 4
