REMARK  Name = 
REMARK  3 active torsions:
REMARK  status: ('A' for Active; 'I' for Inactive)
REMARK    1  A    between atoms: C_7  and  N_8
REMARK    2  A    between atoms: N_11  and  C_12
REMARK    3  A    between atoms: C_14  and  C_15
REMARK                            x       y       z     vdW  Elec       q    Type
REMARK                         _______ _______ _______ _____ _____    ______ ____
ROOT
ATOM      1  N   UNL     1       2.037   6.828   0.000  0.00  0.00    -0.159 NA
ATOM      2  C   UNL     1       2.037   6.003   0.000  0.00  0.00    +0.344 C 
ATOM      3  N   UNL     1       2.751   5.590   0.000  0.00  0.00    -0.184 NA
ATOM      4  O   UNL     1       1.322   5.590   0.000  0.00  0.00    -0.249 OA
ENDROOT
BRANCH   1  10
ATOM      5  C   UNL     1      -1.536   8.065   0.000  0.00  0.00    +0.114 C 
ATOM      6  N   UNL     1      -0.821   8.478   0.000  0.00  0.00    -0.290 N 
ATOM      7  C   UNL     1      -0.107   8.065   0.000  0.00  0.00    +0.132 A 
ATOM      8  N   UNL     1      -0.107   7.240   0.000  0.00  0.00    -0.228 NA
ATOM      9  C   UNL     1       0.608   6.828   0.000  0.00  0.00    +0.117 A 
ATOM     10  C   UNL     1       1.322   7.240   0.000  0.00  0.00    +0.094 A 
ATOM     11  C   UNL     1       1.322   8.065   0.000  0.00  0.00    +0.021 A 
ATOM     12  C   UNL     1       0.608   8.478   0.000  0.00  0.00    +0.036 A 
ATOM     13  C   UNL     1      -0.821   9.303   0.000  0.00  0.00    +0.114 C 
ENDBRANCH   1  10
BRANCH   3  14
ATOM     14  C   UNL     1       2.751   4.765   0.000  0.00  0.00    +0.119 C 
ATOM     15  C   UNL     1       2.084   4.280   0.000  0.00  0.00    -0.009 C 
ATOM     16  C   UNL     1       2.339   3.496   0.000  0.00  0.00    -0.027 C 
ATOM     17  C   UNL     1       3.164   3.496   0.000  0.00  0.00    +0.057 C 
ATOM     18  C   UNL     1       3.419   4.280   0.000  0.00  0.00    +0.033 C 
BRANCH  17  19
ATOM     19  C   UNL     1       3.649   2.828   0.000  0.00  0.00    +0.186 C 
ATOM     20  O   UNL     1       4.469   2.914   0.000  0.00  0.00    -0.220 OA
ENDBRANCH  17  19
ENDBRANCH   3  14
TORSDOF 3
