REMARK  Name = 
REMARK  5 active torsions:
REMARK  status: ('A' for Active; 'I' for Inactive)
REMARK    1  A    between atoms: C_2  and  C_4
REMARK    2  A    between atoms: C_4  and  N_5
REMARK    3  A    between atoms: C_7  and  N_8
REMARK    4  A    between atoms: C_9  and  C_11
REMARK    5  A    between atoms: C_11  and  C_12
REMARK                            x       y       z     vdW  Elec       q    Type
REMARK                         _______ _______ _______ _____ _____    ______ ____
ROOT
ATOM      1  N   UNL     1      -1.265  -0.283   0.000  0.00  0.00    -0.176 NA
ATOM      2  C   UNL     1      -1.265   0.542   0.000  0.00  0.00    +0.246 C 
ATOM      3  O   UNL     1      -1.980   0.954   0.000  0.00  0.00    -0.273 OA
ENDROOT
BRANCH   1   7
ATOM      4  N   UNL     1      -3.286  -0.973   0.000  0.00  0.00    -0.239 N 
ATOM      5  N   UNL     1      -2.873  -1.688   0.000  0.00  0.00    -0.166 NA
ATOM      6  C   UNL     1      -2.066  -1.516   0.000  0.00  0.00    +0.138 A 
ATOM      7  C   UNL     1      -1.980  -0.696   0.000  0.00  0.00    +0.113 A 
ATOM      8  C   UNL     1      -2.734  -0.360   0.000  0.00  0.00    +0.114 A 
BRANCH   4   9
ATOM      9  C   UNL     1      -4.106  -0.887   0.000  0.00  0.00    +0.215 C 
BRANCH   9  11
ATOM     10  N   UNL     1      -5.412  -1.468   0.000  0.00  0.00    -0.086 NA
ATOM     11  C   UNL     1      -4.591  -1.554   0.000  0.00  0.00    +0.286 C 
ATOM     12  O   UNL     1      -4.255  -2.308   0.000  0.00  0.00    -0.269 OA
ENDBRANCH   9  11
ENDBRANCH   4   9
ENDBRANCH   1   7
BRANCH   2  13
ATOM     13  C   UNL     1      -0.551   0.954   0.000  0.00  0.00    +0.087 C 
BRANCH  13  14
ATOM     14  C   UNL     1       0.164   0.542   0.000  0.00  0.00    +0.009 C 
ATOM     15  C   UNL     1       0.878   0.954   0.000  0.00  0.00    +0.000 C 
ATOM     16  C   UNL     1       0.672   0.129   0.000  0.00  0.00    +0.000 C 
ATOM     17  C   UNL     1       0.878  -0.696   0.000  0.00  0.00    +0.000 C 
ATOM     18  C   UNL     1       1.593  -0.283   0.000  0.00  0.00    +0.000 C 
ATOM     19  C   UNL     1       1.593   0.542   0.000  0.00  0.00    +0.000 C 
ATOM     20  C   UNL     1       0.164  -0.283   0.000  0.00  0.00    +0.000 C 
ENDBRANCH  13  14
ENDBRANCH   2  13
TORSDOF 5
