REMARK  Name = 
REMARK  2 active torsions:
REMARK  status: ('A' for Active; 'I' for Inactive)
REMARK    1  A    between atoms: C_7  and  N_8
REMARK    2  A    between atoms: C_9  and  C_11
REMARK                            x       y       z     vdW  Elec       q    Type
REMARK                         _______ _______ _______ _____ _____    ______ ____
ROOT
ATOM      1  N   UNL     1       0.000  -2.475   0.000  0.00  0.00    -0.154 NA
ATOM      2  C   UNL     1      -0.715  -2.888   0.000  0.00  0.00    +0.308 C 
ATOM      3  O   UNL     1      -0.715  -3.712   0.000  0.00  0.00    -0.265 OA
ENDROOT
BRANCH   1   6
ATOM      4  C   UNL     1       1.429  -1.650   0.000  0.00  0.00    +0.034 C 
ATOM      5  C   UNL     1       1.429  -2.475   0.000  0.00  0.00    +0.012 A 
ATOM      6  C   UNL     1       0.715  -2.888   0.000  0.00  0.00    +0.151 A 
ATOM      7  N   UNL     1       0.715  -3.712   0.000  0.00  0.00    -0.228 NA
ATOM      8  C   UNL     1       1.429  -4.125   0.000  0.00  0.00    +0.100 A 
ATOM      9  C   UNL     1       2.143  -3.712   0.000  0.00  0.00    +0.020 A 
ATOM     10  C   UNL     1       2.143  -2.888   0.000  0.00  0.00    +0.000 A 
ENDBRANCH   1   6
BRANCH   2  11
ATOM     11  C   UNL     1      -1.429  -2.475   0.000  0.00  0.00    +0.231 C 
ATOM     12  O   UNL     1      -1.429  -1.650   0.000  0.00  0.00    -0.464 OA
ATOM     13  C   UNL     1      -2.143  -1.238   0.000  0.00  0.00    +0.253 C 
ATOM     14  C   UNL     1      -2.858  -1.650   0.000  0.00  0.00    +0.253 C 
ATOM     15  O   UNL     1      -2.858  -2.475   0.000  0.00  0.00    -0.465 OA
ATOM     16  C   UNL     1      -2.143  -2.888   0.000  0.00  0.00    +0.214 C 
ENDBRANCH   2  11
TORSDOF 2
