REMARK  Name = 
REMARK  6 active torsions:
REMARK  status: ('A' for Active; 'I' for Inactive)
REMARK    1  A    between atoms: N_6  and  C_7
REMARK    2  A    between atoms: C_7  and  C_8
REMARK    3  A    between atoms: C_8  and  C_9
REMARK    4  A    between atoms: C_9  and  N_10
REMARK    5  A    between atoms: C_11  and  C_13
REMARK    6  A    between atoms: C_13  and  N_14
REMARK                            x       y       z     vdW  Elec       q    Type
REMARK                         _______ _______ _______ _____ _____    ______ ____
ROOT
ATOM      1  N   UNL     1       3.572  -3.712   0.000  0.00  0.00    -0.204 NA
ATOM      2  C   UNL     1       4.287  -4.125   0.000  0.00  0.00    +0.265 C 
ATOM      3  O   UNL     1       4.287  -4.950   0.000  0.00  0.00    -0.271 OA
ENDROOT
BRANCH   2   4
ATOM      4  C   UNL     1       5.001  -3.712   0.000  0.00  0.00    +0.197 C 
BRANCH   4   5
ATOM      5  N   UNL     1       5.716  -4.125   0.000  0.00  0.00    -0.271 N 
ATOM      6  C   UNL     1       5.716  -4.950   0.000  0.00  0.00    +0.334 A 
ATOM      7  O   UNL     1       5.001  -5.362   0.000  0.00  0.00    -0.246 OA
ATOM      8  N   UNL     1       6.430  -5.362   0.000  0.00  0.00    -0.247 N 
ATOM      9  C   UNL     1       6.430  -6.188   0.000  0.00  0.00    +0.138 C 
ATOM     10  C   UNL     1       7.145  -4.950   0.000  0.00  0.00    +0.266 A 
ATOM     11  O   UNL     1       7.859  -5.362   0.000  0.00  0.00    -0.267 OA
ATOM     12  C   UNL     1       7.145  -4.125   0.000  0.00  0.00    +0.080 A 
ATOM     13  C   UNL     1       6.430  -3.712   0.000  0.00  0.00    +0.085 A 
ENDBRANCH   4   5
ENDBRANCH   2   4
BRANCH   1  14
ATOM     14  C   UNL     1       2.858  -4.125   0.000  0.00  0.00    +0.117 C 
BRANCH  14  15
ATOM     15  C   UNL     1       2.143  -3.712   0.000  0.00  0.00    +0.041 C 
BRANCH  15  16
ATOM     16  C   UNL     1       1.429  -4.125   0.000  0.00  0.00    +0.074 C 
BRANCH  16  20
ATOM     17  C   UNL     1      -1.429  -4.125   0.000  0.00  0.00    +0.001 C 
ATOM     18  C   UNL     1      -0.715  -3.712   0.000  0.00  0.00    +0.016 C 
ATOM     19  C   UNL     1       0.000  -4.125   0.000  0.00  0.00    +0.072 C 
ATOM     20  N   UNL     1       0.715  -3.712   0.000  0.00  0.00    -0.273 NA
ATOM     21  C   UNL     1       0.715  -2.888   0.000  0.00  0.00    +0.072 C 
ATOM     22  C   UNL     1       0.000  -2.475   0.000  0.00  0.00    +0.017 C 
ATOM     23  C   UNL     1      -0.715  -2.888   0.000  0.00  0.00    +0.003 C 
ENDBRANCH  16  20
ENDBRANCH  15  16
ENDBRANCH  14  15
ENDBRANCH   1  14
TORSDOF 6
