REMARK  Name = 
REMARK  4 active torsions:
REMARK  status: ('A' for Active; 'I' for Inactive)
REMARK    1  A    between atoms: C_2  and  N_3
REMARK    2  A    between atoms: C_4  and  C_6
REMARK    3  A    between atoms: C_6  and  N_7
REMARK    4  A    between atoms: C_8  and  C_10
REMARK                            x       y       z     vdW  Elec       q    Type
REMARK                         _______ _______ _______ _____ _____    ______ ____
ROOT
ATOM      1  C   UNL     1       5.716  -6.600   0.000  0.00  0.00    +0.074 A 
ATOM      2  C   UNL     1       5.716  -7.425   0.000  0.00  0.00    +0.105 A 
ATOM      3  N   UNL     1       6.430  -7.838   0.000  0.00  0.00    -0.229 NA
ATOM      4  C   UNL     1       7.145  -7.425   0.000  0.00  0.00    +0.132 A 
ATOM      5  N   UNL     1       7.859  -7.838   0.000  0.00  0.00    -0.288 N 
ATOM      6  C   UNL     1       7.859  -8.662   0.000  0.00  0.00    +0.122 C 
ATOM      7  C   UNL     1       8.574  -9.075   0.000  0.00  0.00    +0.135 C 
ATOM      8  C   UNL     1       8.574  -9.900   0.000  0.00  0.00    +0.034 C 
ATOM      9  O   UNL     1       9.288  -8.662   0.000  0.00  0.00    -0.355 OA
ATOM     10  C   UNL     1       9.288  -7.838   0.000  0.00  0.00    +0.135 C 
ATOM     11  C   UNL     1      10.003  -7.425   0.000  0.00  0.00    +0.034 C 
ATOM     12  C   UNL     1       8.574  -7.425   0.000  0.00  0.00    +0.122 C 
ATOM     13  C   UNL     1       7.145  -6.600   0.000  0.00  0.00    +0.034 A 
ATOM     14  C   UNL     1       6.430  -6.188   0.000  0.00  0.00    +0.009 A 
ENDROOT
BRANCH   1  16
ATOM     15  N   UNL     1       4.287  -6.600   0.000  0.00  0.00    -0.192 NA
ATOM     16  C   UNL     1       5.001  -6.188   0.000  0.00  0.00    +0.267 C 
ATOM     17  O   UNL     1       5.001  -5.362   0.000  0.00  0.00    -0.268 OA
BRANCH  15  18
ATOM     18  C   UNL     1       3.572  -6.188   0.000  0.00  0.00    +0.202 C 
BRANCH  18  20
ATOM     19  N   UNL     1       2.143  -6.188   0.000  0.00  0.00    -0.204 NA
ATOM     20  C   UNL     1       2.858  -6.600   0.000  0.00  0.00    +0.263 C 
ATOM     21  O   UNL     1       2.858  -7.425   0.000  0.00  0.00    -0.271 OA
BRANCH  19  23
ATOM     22  C   UNL     1       0.715  -6.188   0.000  0.00  0.00    +0.025 C 
ATOM     23  C   UNL     1       1.429  -6.600   0.000  0.00  0.00    +0.115 C 
ENDBRANCH  19  23
ENDBRANCH  18  20
ENDBRANCH  15  18
ENDBRANCH   1  16
TORSDOF 4
