REMARK  Name = 
REMARK  7 active torsions:
REMARK  status: ('A' for Active; 'I' for Inactive)
REMARK    1  A    between atoms: C_2  and  N_3
REMARK    2  A    between atoms: N_3  and  C_4
REMARK    3  A    between atoms: N_3  and  C_11
REMARK    4  A    between atoms: C_4  and  C_5
REMARK    5  A    between atoms: N_14  and  C_15
REMARK    6  A    between atoms: C_15  and  C_16
REMARK    7  A    between atoms: C_16  and  O_17
REMARK                            x       y       z     vdW  Elec       q    Type
REMARK                         _______ _______ _______ _____ _____    ______ ____
ROOT
ATOM      1  C   UNL     1       0.715  -0.412   0.000  0.00  0.00    +0.140 A 
ATOM      2  C   UNL     1       1.429   0.000   0.000  0.00  0.00    +0.299 A 
ATOM      3  O   UNL     1       2.143  -0.412   0.000  0.00  0.00    -0.264 OA
ATOM      4  N   UNL     1       1.429   0.825   0.000  0.00  0.00    -0.152 NA
ATOM      5  C   UNL     1       0.715   1.238   0.000  0.00  0.00    +0.354 A 
ATOM      6  O   UNL     1       0.715   2.062   0.000  0.00  0.00    -0.244 OA
ATOM      7  N   UNL     1       0.000   0.825   0.000  0.00  0.00    -0.262 N 
ATOM      8  C   UNL     1       0.000   0.000   0.000  0.00  0.00    +0.173 A 
ATOM      9  N   UNL     1      -0.715  -0.412   0.000  0.00  0.00    -0.107 NA
ENDROOT
BRANCH   7  10
ATOM     10  C   UNL     1      -0.715   1.238   0.000  0.00  0.00    +0.144 C 
BRANCH  10  11
ATOM     11  C   UNL     1      -1.429   0.825   0.000  0.00  0.00    +0.167 C 
BRANCH  11  12
ATOM     12  O   UNL     1      -2.143   1.238   0.000  0.00  0.00    -0.349 OA
ATOM     13  C   UNL     1      -2.858   0.825   0.000  0.00  0.00    +0.174 C 
ENDBRANCH  11  12
ENDBRANCH  10  11
ENDBRANCH   7  10
BRANCH   1  14
ATOM     14  N   UNL     1       0.715  -1.238   0.000  0.00  0.00    -0.298 N 
BRANCH  14  16
ATOM     15  C   UNL     1      -0.715  -1.238   0.000  0.00  0.00    +0.023 C 
ATOM     16  C   UNL     1       0.000  -1.650   0.000  0.00  0.00    +0.091 C 
ENDBRANCH  14  16
BRANCH  14  17
ATOM     17  C   UNL     1       1.429  -1.650   0.000  0.00  0.00    +0.118 C 
BRANCH  17  18
ATOM     18  C   UNL     1       1.429  -2.475   0.000  0.00  0.00    -0.002 A 
ATOM     19  C   UNL     1       0.715  -2.888   0.000  0.00  0.00    -0.003 A 
ATOM     20  C   UNL     1       0.715  -3.712   0.000  0.00  0.00    -0.000 A 
ATOM     21  C   UNL     1       1.429  -4.125   0.000  0.00  0.00    -0.000 A 
ATOM     22  C   UNL     1       2.143  -3.712   0.000  0.00  0.00    -0.000 A 
ATOM     23  C   UNL     1       2.143  -2.888   0.000  0.00  0.00    -0.003 A 
ENDBRANCH  17  18
ENDBRANCH  14  17
ENDBRANCH   1  14
TORSDOF 7
