REMARK  Name = 
REMARK  6 active torsions:
REMARK  status: ('A' for Active; 'I' for Inactive)
REMARK    1  A    between atoms: S_2  and  C_3
REMARK    2  A    between atoms: C_6  and  N_7
REMARK    3  A    between atoms: C_8  and  C_10
REMARK    4  A    between atoms: C_10  and  O_12
REMARK    5  A    between atoms: O_12  and  C_13
REMARK    6  A    between atoms: C_13  and  C_14
REMARK                            x       y       z     vdW  Elec       q    Type
REMARK                         _______ _______ _______ _____ _____    ______ ____
ROOT
ATOM      1  N   UNL     1       0.715   2.062   0.000  0.00  0.00    -0.176 NA
ATOM      2  C   UNL     1       1.429   1.650   0.000  0.00  0.00    +0.273 C 
ATOM      3  O   UNL     1       1.429   0.825   0.000  0.00  0.00    -0.270 OA
ENDROOT
BRANCH   1   7
ATOM      4  C   UNL     1      -1.429   0.825   0.000  0.00  0.00    +0.107 A 
ATOM      5  N   UNL     1      -0.715   0.412   0.000  0.00  0.00    -0.236 NA
ATOM      6  C   UNL     1       0.000   0.825   0.000  0.00  0.00    +0.116 A 
ATOM      7  C   UNL     1       0.000   1.650   0.000  0.00  0.00    +0.093 A 
ATOM      8  C   UNL     1      -0.715   2.062   0.000  0.00  0.00    +0.020 A 
ATOM      9  C   UNL     1      -1.429   1.650   0.000  0.00  0.00    +0.027 A 
BRANCH   4  11
ATOM     10  C   UNL     1      -2.143  -0.412   0.000  0.00  0.00    +0.076 C 
ATOM     11  S   UNL     1      -2.143   0.412   0.000  0.00  0.00    -0.094 S 
ENDBRANCH   4  11
ENDBRANCH   1   7
BRANCH   2  12
ATOM     12  C   UNL     1       2.143   2.062   0.000  0.00  0.00    +0.193 C 
ATOM     13  C   UNL     1       2.143   2.888   0.000  0.00  0.00    +0.042 C 
BRANCH  12  14
ATOM     14  O   UNL     1       2.858   1.650   0.000  0.00  0.00    -0.347 OA
BRANCH  14  15
ATOM     15  C   UNL     1       3.572   2.062   0.000  0.00  0.00    +0.143 C 
BRANCH  15  16
ATOM     16  C   UNL     1       4.287   1.650   0.000  0.00  0.00    +0.030 C 
ATOM     17  C   UNL     1       4.699   0.935   0.000  0.00  0.00    +0.003 C 
ATOM     18  C   UNL     1       5.112   1.650   0.000  0.00  0.00    +0.003 C 
ENDBRANCH  15  16
ENDBRANCH  14  15
ENDBRANCH  12  14
ENDBRANCH   2  12
TORSDOF 6
