REMARK  Name = 
REMARK  4 active torsions:
REMARK  status: ('A' for Active; 'I' for Inactive)
REMARK    1  A    between atoms: C_5  and  N_9
REMARK    2  A    between atoms: N_9  and  C_10
REMARK    3  A    between atoms: C_10  and  C_11
REMARK    4  A    between atoms: C_11  and  C_13
REMARK                            x       y       z     vdW  Elec       q    Type
REMARK                         _______ _______ _______ _____ _____    ______ ____
ROOT
ATOM      1  N   UNL     1       2.858  -4.950   0.000  0.00  0.00    -0.216 NA
ENDROOT
BRANCH   1   7
ATOM      2  C   UNL     1       2.858  -1.650   0.000  0.00  0.00    +0.000 C 
ATOM      3  C   UNL     1       2.858  -2.475   0.000  0.00  0.00    +0.000 C 
ATOM      4  C   UNL     1       2.143  -2.888   0.000  0.00  0.00    +0.001 C 
ATOM      5  C   UNL     1       1.429  -2.475   0.000  0.00  0.00    +0.000 C 
ATOM      6  C   UNL     1       2.143  -3.712   0.000  0.00  0.00    +0.017 C 
ATOM      7  C   UNL     1       2.858  -4.125   0.000  0.00  0.00    +0.073 C 
ATOM      8  C   UNL     1       3.572  -3.712   0.000  0.00  0.00    +0.017 C 
ATOM      9  C   UNL     1       3.572  -2.888   0.000  0.00  0.00    +0.001 C 
ENDBRANCH   1   7
BRANCH   1  10
ATOM     10  C   UNL     1       2.143  -5.362   0.000  0.00  0.00    +0.126 C 
BRANCH  10  11
ATOM     11  C   UNL     1       2.143  -6.188   0.000  0.00  0.00    +0.192 C 
ATOM     12  O   UNL     1       2.858  -6.600   0.000  0.00  0.00    -0.217 OA
BRANCH  11  13
ATOM     13  C   UNL     1       1.429  -6.600   0.000  0.00  0.00    +0.012 A 
ATOM     14  C   UNL     1       0.715  -6.188   0.000  0.00  0.00    +0.019 A 
ATOM     15  C   UNL     1       0.000  -6.600   0.000  0.00  0.00    +0.099 A 
ATOM     16  N   UNL     1       0.000  -7.425   0.000  0.00  0.00    -0.242 NA
ATOM     17  C   UNL     1       0.715  -7.838   0.000  0.00  0.00    +0.099 A 
ATOM     18  C   UNL     1       1.429  -7.425   0.000  0.00  0.00    +0.019 A 
ENDBRANCH  11  13
ENDBRANCH  10  11
ENDBRANCH   1  10
TORSDOF 4
