REMARK  Name = 
REMARK  3 active torsions:
REMARK  status: ('A' for Active; 'I' for Inactive)
REMARK    1  A    between atoms: N_7  and  C_8
REMARK    2  A    between atoms: C_8  and  C_9
REMARK    3  A    between atoms: N_11  and  C_12
REMARK                            x       y       z     vdW  Elec       q    Type
REMARK                         _______ _______ _______ _____ _____    ______ ____
ROOT
ATOM      1  C   UNL     1       0.715  -3.712   0.000  0.00  0.00    +0.265 C 
ATOM      2  N   UNL     1       0.000  -4.125   0.000  0.00  0.00    -0.205 NA
ATOM      3  O   UNL     1       0.715  -2.888   0.000  0.00  0.00    -0.271 OA
ENDROOT
BRANCH   2   4
ATOM      4  C   UNL     1      -0.715  -3.712   0.000  0.00  0.00    +0.098 C 
ATOM      5  C   UNL     1      -0.715  -2.888   0.000  0.00  0.00    +0.038 C 
ATOM      6  C   UNL     1      -1.429  -2.475   0.000  0.00  0.00    +0.061 C 
ATOM      7  C   UNL     1      -0.899  -1.843   0.000  0.00  0.00    +0.017 C 
ATOM      8  C   UNL     1      -1.959  -1.843   0.000  0.00  0.00    +0.017 C 
ATOM      9  N   UNL     1      -2.143  -2.888   0.000  0.00  0.00    -0.223 NA
ATOM     10  C   UNL     1      -2.143  -3.712   0.000  0.00  0.00    +0.061 C 
ATOM     11  C   UNL     1      -2.956  -3.569   0.000  0.00  0.00    +0.017 C 
ATOM     12  C   UNL     1      -2.426  -4.488   0.000  0.00  0.00    +0.017 C 
ATOM     13  C   UNL     1      -1.429  -4.125   0.000  0.00  0.00    +0.038 C 
ENDBRANCH   2   4
BRANCH   1  14
ATOM     14  C   UNL     1       1.429  -4.125   0.000  0.00  0.00    +0.197 C 
BRANCH  14  19
ATOM     15  C   UNL     1       2.858  -1.650   0.000  0.00  0.00    +0.138 C 
ATOM     16  N   UNL     1       2.858  -2.475   0.000  0.00  0.00    -0.247 N 
ATOM     17  C   UNL     1       2.143  -2.888   0.000  0.00  0.00    +0.334 A 
ATOM     18  O   UNL     1       1.429  -2.475   0.000  0.00  0.00    -0.246 OA
ATOM     19  N   UNL     1       2.143  -3.712   0.000  0.00  0.00    -0.271 N 
ATOM     20  C   UNL     1       2.858  -4.125   0.000  0.00  0.00    +0.085 A 
ATOM     21  C   UNL     1       3.572  -3.712   0.000  0.00  0.00    +0.080 A 
ATOM     22  C   UNL     1       3.572  -2.888   0.000  0.00  0.00    +0.266 A 
ATOM     23  O   UNL     1       4.287  -2.475   0.000  0.00  0.00    -0.267 OA
ENDBRANCH  14  19
ENDBRANCH   1  14
TORSDOF 3
