REMARK  Name = 
REMARK  5 active torsions:
REMARK  status: ('A' for Active; 'I' for Inactive)
REMARK    1  A    between atoms: C_3  and  C_4
REMARK    2  A    between atoms: C_4  and  N_5
REMARK    3  A    between atoms: N_10  and  C_11
REMARK    4  A    between atoms: C_11  and  C_12
REMARK    5  A    between atoms: C_12  and  N_13
REMARK                            x       y       z     vdW  Elec       q    Type
REMARK                         _______ _______ _______ _____ _____    ______ ____
ROOT
ATOM      1 CL   UNL     1       0.000   0.000   0.000  0.00  0.00    +0.000 Cl
ENDROOT
TORSDOF 0
REMARK  Name = 
REMARK  5 active torsions:
REMARK  status: ('A' for Active; 'I' for Inactive)
REMARK    1  A    between atoms: C_3  and  C_4
REMARK    2  A    between atoms: C_4  and  N_5
REMARK    3  A    between atoms: N_10  and  C_11
REMARK    4  A    between atoms: C_11  and  C_12
REMARK    5  A    between atoms: C_12  and  N_13
REMARK                            x       y       z     vdW  Elec       q    Type
REMARK                         _______ _______ _______ _____ _____    ______ ____
ROOT
ATOM      1  N   UNL     1       4.773  -1.469   0.000  0.00  0.00    -0.231 N 
ATOM      2  C   UNL     1       5.558  -1.214   0.000  0.00  0.00    +0.166 A 
ATOM      3  C   UNL     1       5.558  -0.390   0.000  0.00  0.00    +0.092 A 
ATOM      4  C   UNL     1       6.272   0.023   0.000  0.00  0.00    +0.164 A 
ATOM      5  N   UNL     1       6.986  -0.390   0.000  0.00  0.00    -0.205 NA
ATOM      6  C   UNL     1       6.986  -1.214   0.000  0.00  0.00    +0.202 A 
ATOM      7  N   UNL     1       6.272   0.848   0.000  0.00  0.00    -0.251 NA
ATOM      8  C   UNL     1       4.773  -0.135   0.000  0.00  0.00    +0.126 A 
ATOM      9  N   UNL     1       6.272  -1.627   0.000  0.00  0.00    -0.205 NA
ATOM     10  N   UNL     1       4.288  -0.802   0.000  0.00  0.00    -0.166 NA
ENDROOT
BRANCH   1  11
ATOM     11  C   UNL     1       4.518  -2.254   0.000  0.00  0.00    +0.165 C 
BRANCH  11  13
ATOM     12  O   UNL     1       3.456  -3.210   0.000  0.00  0.00    -0.218 OA
ATOM     13  C   UNL     1       3.711  -2.426   0.000  0.00  0.00    +0.208 C 
ENDBRANCH  11  13
ENDBRANCH   1  11
BRANCH   7  14
ATOM     14  C   UNL     1       5.558   1.260   0.000  0.00  0.00    +0.144 C 
BRANCH  14  15
ATOM     15  C   UNL     1       4.843   0.848   0.000  0.00  0.00    +0.099 C 
BRANCH  15  16
ATOM     16  N   UNL     1       4.128   1.260   0.000  0.00  0.00    -0.271 NA
ATOM     17  C   UNL     1       4.190   2.083   0.000  0.00  0.00    +0.072 C 
ATOM     18  C   UNL     1       3.585   2.644   0.000  0.00  0.00    +0.017 C 
ATOM     19  C   UNL     1       2.770   2.521   0.000  0.00  0.00    +0.001 C 
ATOM     20  C   UNL     1       2.357   1.807   0.000  0.00  0.00    +0.001 C 
ATOM     21  C   UNL     1       2.659   1.039   0.000  0.00  0.00    +0.017 C 
ATOM     22  C   UNL     1       3.447   0.796   0.000  0.00  0.00    +0.072 C 
ENDBRANCH  15  16
ENDBRANCH  14  15
ENDBRANCH   7  14
TORSDOF 5
