REMARK  Name = 
REMARK  3 active torsions:
REMARK  status: ('A' for Active; 'I' for Inactive)
REMARK    1  A    between atoms: S_2  and  C_3
REMARK    2  A    between atoms: C_5  and  N_6
REMARK    3  A    between atoms: N_9  and  C_10
REMARK                            x       y       z     vdW  Elec       q    Type
REMARK                         _______ _______ _______ _____ _____    ______ ____
ROOT
ATOM      1  N   UNL     1       4.287  -4.125   0.000  0.00  0.00    -0.161 NA
ATOM      2  C   UNL     1       4.287  -4.950   0.000  0.00  0.00    +0.343 C 
ATOM      3  N   UNL     1       5.001  -5.362   0.000  0.00  0.00    -0.189 NA
ATOM      4  O   UNL     1       3.572  -5.362   0.000  0.00  0.00    -0.249 OA
ENDROOT
BRANCH   3   5
ATOM      5  C   UNL     1       5.001  -6.188   0.000  0.00  0.00    +0.100 C 
ATOM      6  C   UNL     1       4.287  -6.600   0.000  0.00  0.00    +0.039 C 
ATOM      7  C   UNL     1       4.287  -7.425   0.000  0.00  0.00    +0.074 C 
ATOM      8  N   UNL     1       5.001  -7.838   0.000  0.00  0.00    -0.271 NA
ATOM      9  C   UNL     1       5.001  -8.662   0.000  0.00  0.00    +0.090 C 
ATOM     10  C   UNL     1       5.716  -7.425   0.000  0.00  0.00    +0.074 C 
ATOM     11  C   UNL     1       5.716  -6.600   0.000  0.00  0.00    +0.039 C 
ENDBRANCH   3   5
BRANCH   1  16
ATOM     12  C   UNL     1       2.858  -2.475   0.000  0.00  0.00    +0.108 A 
ATOM     13  N   UNL     1       2.143  -2.888   0.000  0.00  0.00    -0.238 NA
ATOM     14  C   UNL     1       2.143  -3.712   0.000  0.00  0.00    +0.101 A 
ATOM     15  C   UNL     1       2.858  -4.125   0.000  0.00  0.00    +0.037 A 
ATOM     16  C   UNL     1       3.572  -3.712   0.000  0.00  0.00    +0.079 A 
ATOM     17  C   UNL     1       3.572  -2.888   0.000  0.00  0.00    +0.042 A 
BRANCH  12  19
ATOM     18  C   UNL     1       2.143  -1.238   0.000  0.00  0.00    +0.076 C 
ATOM     19  S   UNL     1       2.858  -1.650   0.000  0.00  0.00    -0.094 S 
ENDBRANCH  12  19
ENDBRANCH   1  16
TORSDOF 3
