REMARK  Name = 
REMARK  6 active torsions:
REMARK  status: ('A' for Active; 'I' for Inactive)
REMARK    1  A    between atoms: C_2  and  C_3
REMARK    2  A    between atoms: C_2  and  N_9
REMARK    3  A    between atoms: C_3  and  N_4
REMARK    4  A    between atoms: C_10  and  C_12
REMARK    5  A    between atoms: N_14  and  C_15
REMARK    6  A    between atoms: C_15  and  C_16
REMARK                            x       y       z     vdW  Elec       q    Type
REMARK                         _______ _______ _______ _____ _____    ______ ____
ROOT
ATOM      1  N   UNL     1       2.816  -2.408   0.000  0.00  0.00    -0.205 NA
ATOM      2  C   UNL     1       3.530  -1.996   0.000  0.00  0.00    +0.243 C 
ATOM      3  O   UNL     1       3.530  -1.171   0.000  0.00  0.00    -0.273 OA
ENDROOT
BRANCH   2   4
ATOM      4  C   UNL     1       4.245  -2.408   0.000  0.00  0.00    +0.107 C 
ATOM      5  C   UNL     1       4.331  -3.229   0.000  0.00  0.00    +0.096 C 
ATOM      6  C   UNL     1       5.138  -3.400   0.000  0.00  0.00    +0.226 C 
ATOM      7  O   UNL     1       5.474  -4.154   0.000  0.00  0.00    -0.275 OA
ATOM      8  N   UNL     1       5.551  -2.686   0.000  0.00  0.00    -0.279 N 
ATOM      9  C   UNL     1       4.999  -2.073   0.000  0.00  0.00    +0.103 C 
BRANCH   8  10
ATOM     10  C   UNL     1       6.371  -2.599   0.000  0.00  0.00    +0.093 C 
BRANCH  10  11
ATOM     11  C   UNL     1       6.856  -3.267   0.000  0.00  0.00    +0.020 C 
ATOM     12  C   UNL     1       6.942  -4.087   0.000  0.00  0.00    +0.002 C 
ATOM     13  C   UNL     1       7.610  -3.603   0.000  0.00  0.00    +0.002 C 
ENDBRANCH  10  11
ENDBRANCH   8  10
ENDBRANCH   2   4
BRANCH   1  15
ATOM     14  C   UNL     1       2.102  -1.171   0.000  0.00  0.00    +0.026 C 
ATOM     15  C   UNL     1       2.102  -1.996   0.000  0.00  0.00    +0.120 C 
BRANCH  15  16
ATOM     16  C   UNL     1       1.387  -2.408   0.000  0.00  0.00    +0.149 C 
BRANCH  16  17
ATOM     17  N   UNL     1       0.672  -1.996   0.000  0.00  0.00    -0.248 N 
ATOM     18  N   UNL     1       0.586  -1.175   0.000  0.00  0.00    -0.168 NA
ATOM     19  C   UNL     1      -0.221  -1.004   0.000  0.00  0.00    +0.122 A 
ATOM     20  C   UNL     1      -0.633  -1.718   0.000  0.00  0.00    +0.043 A 
ATOM     21  C   UNL     1      -0.081  -2.331   0.000  0.00  0.00    +0.097 A 
ENDBRANCH  16  17
ENDBRANCH  15  16
ENDBRANCH   1  15
TORSDOF 6
