REMARK  Name = 
REMARK  4 active torsions:
REMARK  status: ('A' for Active; 'I' for Inactive)
REMARK    1  A    between atoms: N_1  and  C_8
REMARK    2  A    between atoms: N_2  and  C_7
REMARK    3  A    between atoms: C_8  and  C_9
REMARK    4  A    between atoms: N_12  and  C_16
REMARK                            x       y       z     vdW  Elec       q    Type
REMARK                         _______ _______ _______ _____ _____    ______ ____
ROOT
ATOM      1  N   UNL     1       0.854  -3.333   0.000  0.00  0.00    -0.238 N 
ATOM      2  C   UNL     1       1.567  -2.921   0.000  0.00  0.00    +0.294 A 
ATOM      3  O   UNL     1       1.567  -2.096   0.000  0.00  0.00    -0.264 OA
ATOM      4  C   UNL     1       2.279  -3.333   0.000  0.00  0.00    +0.213 A 
ATOM      5  F   UNL     1       2.996  -2.921   0.000  0.00  0.00    -0.198 F 
ATOM      6  C   UNL     1       2.279  -4.158   0.000  0.00  0.00    +0.116 A 
ATOM      7  N   UNL     1       1.567  -4.571   0.000  0.00  0.00    -0.255 N 
ATOM      8  C   UNL     1       0.854  -4.158   0.000  0.00  0.00    +0.336 A 
ATOM      9  O   UNL     1       0.138  -4.571   0.000  0.00  0.00    -0.246 OA
ENDROOT
BRANCH   7  10
ATOM     10  C   UNL     1       1.567  -5.396   0.000  0.00  0.00    +0.208 C 
ATOM     11  C   UNL     1       2.233  -5.879   0.000  0.00  0.00    +0.057 C 
ATOM     12  C   UNL     1       1.979  -6.667   0.000  0.00  0.00    +0.037 C 
ATOM     13  C   UNL     1       1.154  -6.667   0.000  0.00  0.00    +0.144 C 
ATOM     14  O   UNL     1       0.900  -5.879   0.000  0.00  0.00    -0.335 OA
ENDBRANCH   7  10
BRANCH   1  15
ATOM     15  C   UNL     1       0.138  -2.921   0.000  0.00  0.00    +0.200 C 
BRANCH  15  16
ATOM     16  C   UNL     1       0.138  -2.096   0.000  0.00  0.00    +0.265 C 
ATOM     17  O   UNL     1       0.854  -1.683   0.000  0.00  0.00    -0.271 OA
ATOM     18  N   UNL     1      -0.575  -1.683   0.000  0.00  0.00    -0.206 NA
BRANCH  18  19
ATOM     19  C   UNL     1      -0.575  -0.858   0.000  0.00  0.00    +0.095 C 
ATOM     20  C   UNL     1       0.167  -0.500   0.000  0.00  0.00    +0.022 C 
ATOM     21  C   UNL     1       0.350   0.304   0.000  0.00  0.00    +0.002 C 
ATOM     22  C   UNL     1      -0.163   0.950   0.000  0.00  0.00    +0.000 C 
ATOM     23  C   UNL     1      -0.988   0.950   0.000  0.00  0.00    +0.000 C 
ATOM     24  C   UNL     1      -1.504   0.304   0.000  0.00  0.00    +0.002 C 
ATOM     25  C   UNL     1      -1.321  -0.500   0.000  0.00  0.00    +0.022 C 
ENDBRANCH  18  19
ENDBRANCH  15  16
ENDBRANCH   1  15
TORSDOF 4
