REMARK  Name = 
REMARK  6 active torsions:
REMARK  status: ('A' for Active; 'I' for Inactive)
REMARK    1  A    between atoms: C_2  and  C_3
REMARK    2  A    between atoms: C_3  and  C_4
REMARK    3  A    between atoms: N_10  and  C_11
REMARK    4  A    between atoms: C_11  and  C_12
REMARK    5  A    between atoms: C_12  and  N_13
REMARK    6  A    between atoms: C_17  and  C_18
REMARK                            x       y       z     vdW  Elec       q    Type
REMARK                         _______ _______ _______ _____ _____    ______ ____
ROOT
ATOM      1  O   UNL     1       1.429   0.000   0.000  0.00  0.00    -0.273 OA
ATOM      2  C   UNL     1       1.429  -0.825   0.000  0.00  0.00    +0.246 C 
ATOM      3  N   UNL     1       2.143  -1.238   0.000  0.00  0.00    -0.203 NA
ENDROOT
BRANCH   3   4
ATOM      4  C   UNL     1       2.858  -0.825   0.000  0.00  0.00    +0.140 C 
BRANCH   4   5
ATOM      5  C   UNL     1       3.572  -1.238   0.000  0.00  0.00    +0.132 C 
BRANCH   5   6
ATOM      6  N   UNL     1       4.287  -0.825   0.000  0.00  0.00    -0.294 N 
ATOM      7  C   UNL     1       5.040  -1.161   0.000  0.00  0.00    +0.143 A 
ATOM      8  N   UNL     1       5.593  -0.547   0.000  0.00  0.00    -0.133 NA
ATOM      9  N   UNL     1       5.180   0.167   0.000  0.00  0.00    -0.126 NA
ATOM     10  C   UNL     1       4.373  -0.004   0.000  0.00  0.00    +0.202 A 
BRANCH   7  11
ATOM     11  C   UNL     1       5.212  -1.968   0.000  0.00  0.00    +0.059 C 
ATOM     12  C   UNL     1       4.957  -2.752   0.000  0.00  0.00    +0.008 C 
ATOM     13  C   UNL     1       5.764  -2.581   0.000  0.00  0.00    +0.008 C 
ENDBRANCH   7  11
ENDBRANCH   5   6
ENDBRANCH   4   5
ENDBRANCH   3   4
BRANCH   2  14
ATOM     14  C   UNL     1       0.715  -1.238   0.000  0.00  0.00    +0.109 C 
BRANCH  14  15
ATOM     15  C   UNL     1       0.000  -0.825   0.000  0.00  0.00    -0.039 C 
ATOM     16  C   UNL     1       0.000   0.000   0.000  0.00  0.00    +0.022 C 
ATOM     17  C   UNL     1      -0.715   0.412   0.000  0.00  0.00    +0.005 C 
ATOM     18  C   UNL     1      -1.429   0.000   0.000  0.00  0.00    +0.005 C 
ATOM     19  C   UNL     1      -1.429  -0.825   0.000  0.00  0.00    +0.025 C 
ATOM     20  C   UNL     1      -0.715  -1.238   0.000  0.00  0.00    -0.034 C 
ENDBRANCH  14  15
ENDBRANCH   2  14
TORSDOF 6
