REMARK  Name = 
REMARK  3 active torsions:
REMARK  status: ('A' for Active; 'I' for Inactive)
REMARK    1  A    between atoms: N_6  and  C_7
REMARK    2  A    between atoms: C_7  and  C_8
REMARK    3  A    between atoms: N_10  and  C_11
REMARK                            x       y       z     vdW  Elec       q    Type
REMARK                         _______ _______ _______ _____ _____    ______ ____
ROOT
ATOM      1  C   UNL     1       0.284  -4.872   0.000  0.00  0.00    +0.267 C 
ATOM      2  N   UNL     1      -0.201  -5.539   0.000  0.00  0.00    -0.196 NA
ATOM      3  O   UNL     1      -0.052  -4.118   0.000  0.00  0.00    -0.271 OA
ENDROOT
BRANCH   2   4
ATOM      4  C   UNL     1      -1.022  -5.453   0.000  0.00  0.00    +0.173 C 
ATOM      5  C   UNL     1      -1.300  -4.676   0.000  0.00  0.00    +0.261 C 
ATOM      6  O   UNL     1      -0.721  -4.088   0.000  0.00  0.00    -0.271 OA
ATOM      7  N   UNL     1      -2.080  -4.410   0.000  0.00  0.00    -0.204 NA
ATOM      8  C   UNL     1      -2.776  -4.854   0.000  0.00  0.00    +0.115 C 
ATOM      9  C   UNL     1      -2.862  -5.674   0.000  0.00  0.00    +0.024 C 
ATOM     10  C   UNL     1      -2.274  -6.253   0.000  0.00  0.00    +0.004 C 
ATOM     11  C   UNL     1      -1.455  -6.155   0.000  0.00  0.00    +0.031 C 
ENDBRANCH   2   4
BRANCH   1  12
ATOM     12  C   UNL     1       1.104  -4.958   0.000  0.00  0.00    +0.213 C 
BRANCH  12  16
ATOM     13  C   UNL     1       2.002  -2.196   0.000  0.00  0.00    +0.054 C 
ATOM     14  C   UNL     1       2.002  -3.021   0.000  0.00  0.00    +0.080 A 
ATOM     15  N   UNL     1       1.334  -3.506   0.000  0.00  0.00    -0.174 NA
ATOM     16  N   UNL     1       1.589  -4.290   0.000  0.00  0.00    -0.246 N 
ATOM     17  C   UNL     1       2.414  -4.290   0.000  0.00  0.00    +0.058 A 
ATOM     18  C   UNL     1       2.899  -4.958   0.000  0.00  0.00    +0.052 C 
ATOM     19  C   UNL     1       2.669  -3.506   0.000  0.00  0.00    +0.031 A 
ENDBRANCH  12  16
ENDBRANCH   1  12
TORSDOF 3
