REMARK  Name = 
REMARK  5 active torsions:
REMARK  status: ('A' for Active; 'I' for Inactive)
REMARK    1  A    between atoms: N_2  and  C_13
REMARK    2  A    between atoms: C_5  and  N_6
REMARK    3  A    between atoms: C_7  and  C_10
REMARK    4  A    between atoms: C_13  and  C_14
REMARK    5  A    between atoms: C_14  and  C_19
REMARK                            x       y       z     vdW  Elec       q    Type
REMARK                         _______ _______ _______ _____ _____    ______ ____
ROOT
ATOM      1  C   UNL     1       2.563   0.825   0.000  0.00  0.00    +0.149 A 
ATOM      2  C   UNL     1       3.275   1.238   0.000  0.00  0.00    +0.154 A 
ATOM      3  N   UNL     1       3.992   0.825   0.000  0.00  0.00    -0.207 NA
ATOM      4  C   UNL     1       3.992   0.000   0.000  0.00  0.00    +0.201 A 
ATOM      5  N   UNL     1       3.275  -0.412   0.000  0.00  0.00    -0.205 NA
ATOM      6  N   UNL     1       1.779   1.083   0.000  0.00  0.00    -0.219 NA
ATOM      7  C   UNL     1       1.292   0.412   0.000  0.00  0.00    +0.180 A 
ATOM      8  N   UNL     1       1.779  -0.254   0.000  0.00  0.00    -0.292 N 
ATOM      9  C   UNL     1       2.563   0.000   0.000  0.00  0.00    +0.167 A 
ENDROOT
BRANCH   2  10
ATOM     10  N   UNL     1       3.275   2.063   0.000  0.00  0.00    -0.291 N 
ATOM     11  C   UNL     1       3.946   2.550   0.000  0.00  0.00    +0.093 C 
ATOM     12  C   UNL     1       3.688   3.334   0.000  0.00  0.00    +0.032 C 
ATOM     13  C   UNL     1       2.863   3.334   0.000  0.00  0.00    +0.090 C 
ATOM     14  C   UNL     1       2.058   3.505   0.000  0.00  0.00    +0.011 C 
ATOM     15  C   UNL     1       2.609   2.550   0.000  0.00  0.00    +0.101 C 
BRANCH  13  16
ATOM     16  C   UNL     1       2.950   4.151   0.000  0.00  0.00    +0.242 C 
ATOM     17  N   UNL     1       2.284   4.634   0.000  0.00  0.00    -0.204 NA
ATOM     18  C   UNL     1       2.371   5.455   0.000  0.00  0.00    +0.138 C 
ATOM     19  O   UNL     1       3.705   4.488   0.000  0.00  0.00    -0.273 OA
ENDBRANCH  13  16
ENDBRANCH   2  10
BRANCH   8  20
ATOM     20  C   UNL     1       1.521  -1.038   0.000  0.00  0.00    +0.144 C 
BRANCH  20  21
ATOM     21  C   UNL     1       2.075  -1.650   0.000  0.00  0.00    +0.201 C 
ATOM     22  O   UNL     1       2.884  -1.479   0.000  0.00  0.00    -0.218 OA
BRANCH  21  23
ATOM     23  C   UNL     1       1.821  -2.434   0.000  0.00  0.00    +0.147 C 
ATOM     24  C   UNL     1       2.304  -3.104   0.000  0.00  0.00    +0.035 C 
ATOM     25  C   UNL     1       1.821  -3.771   0.000  0.00  0.00    +0.035 C 
ATOM     26  C   UNL     1       1.033  -3.517   0.000  0.00  0.00    +0.142 C 
ATOM     27  O   UNL     1       1.033  -2.692   0.000  0.00  0.00    -0.354 OA
ENDBRANCH  21  23
ENDBRANCH  20  21
ENDBRANCH   8  20
TORSDOF 5
