REMARK  Name = 
REMARK  5 active torsions:
REMARK  status: ('A' for Active; 'I' for Inactive)
REMARK    1  A    between atoms: N_5  and  C_6
REMARK    2  A    between atoms: C_6  and  C_7
REMARK    3  A    between atoms: N_9  and  C_10
REMARK    4  A    between atoms: C_10  and  C_12
REMARK    5  A    between atoms: C_10  and  C_14
REMARK                            x       y       z     vdW  Elec       q    Type
REMARK                         _______ _______ _______ _____ _____    ______ ____
ROOT
ATOM      1  C   UNL     1       0.461   3.591   0.000  0.00  0.00    +0.265 C 
ATOM      2  N   UNL     1       0.048   4.306   0.000  0.00  0.00    -0.193 NA
ATOM      3  O   UNL     1       0.048   2.877   0.000  0.00  0.00    -0.271 OA
ENDROOT
BRANCH   2   4
ATOM      4  C   UNL     1      -0.777   4.306   0.000  0.00  0.00    +0.157 C 
ATOM      5  C   UNL     1      -0.777   5.131   0.000  0.00  0.00    +0.037 C 
BRANCH   4   6
ATOM      6  C   UNL     1      -0.777   3.481   0.000  0.00  0.00    +0.032 C 
ATOM      7  C   UNL     1      -1.189   2.767   0.000  0.00  0.00    +0.003 C 
ATOM      8  C   UNL     1      -0.364   2.767   0.000  0.00  0.00    +0.003 C 
ENDBRANCH   4   6
BRANCH   4   9
ATOM      9  C   UNL     1      -1.602   4.306   0.000  0.00  0.00    +0.091 C 
ATOM     10  N   UNL     1      -2.427   4.306   0.000  0.00  0.00    -0.194 NA
ENDBRANCH   4   9
ENDBRANCH   2   4
BRANCH   1  11
ATOM     11  C   UNL     1       1.286   3.591   0.000  0.00  0.00    +0.194 C 
BRANCH  11  16
ATOM     12  C   UNL     1       3.444   1.648   0.000  0.00  0.00    +0.053 C 
ATOM     13  C   UNL     1       2.690   1.984   0.000  0.00  0.00    +0.073 A 
ATOM     14  C   UNL     1       2.519   2.791   0.000  0.00  0.00    +0.053 A 
ATOM     15  C   UNL     1       3.071   3.404   0.000  0.00  0.00    +0.051 C 
ATOM     16  N   UNL     1       1.698   2.877   0.000  0.00  0.00    -0.304 N 
ATOM     17  C   UNL     1       1.363   2.123   0.000  0.00  0.00    +0.178 A 
ATOM     18  N   UNL     1       1.976   1.571   0.000  0.00  0.00    -0.229 NA
ENDBRANCH  11  16
ENDBRANCH   1  11
TORSDOF 5
