REMARK  Name = 
REMARK  4 active torsions:
REMARK  status: ('A' for Active; 'I' for Inactive)
REMARK    1  A    between atoms: C_8  and  C_11
REMARK    2  A    between atoms: N_13  and  C_14
REMARK    3  A    between atoms: C_14  and  C_15
REMARK    4  A    between atoms: C_15  and  C_16
REMARK                            x       y       z     vdW  Elec       q    Type
REMARK                         _______ _______ _______ _____ _____    ______ ____
ROOT
ATOM      1  C   UNL     1      -2.136   0.562   0.000  0.00  0.00    +0.260 C 
ATOM      2  N   UNL     1      -1.421   0.974   0.000  0.00  0.00    -0.204 NA
ATOM      3  O   UNL     1      -2.136  -0.263   0.000  0.00  0.00    -0.272 OA
ENDROOT
BRANCH   1   8
ATOM      4  C   UNL     1      -4.550   2.138   0.000  0.00  0.00    +0.031 C 
ATOM      5  C   UNL     1      -3.743   1.966   0.000  0.00  0.00    +0.101 C 
ATOM      6  S   UNL     1      -4.156   1.252   0.000  0.00  0.00    -0.121 S 
ATOM      7  C   UNL     1      -3.604   0.639   0.000  0.00  0.00    +0.088 C 
ATOM      8  C   UNL     1      -2.850   0.974   0.000  0.00  0.00    +0.165 C 
ATOM      9  N   UNL     1      -2.936   1.795   0.000  0.00  0.00    -0.267 N 
ATOM     10  C   UNL     1      -2.524   2.509   0.000  0.00  0.00    +0.227 C 
ATOM     11  O   UNL     1      -1.703   2.596   0.000  0.00  0.00    -0.275 OA
ATOM     12  C   UNL     1      -3.076   3.122   0.000  0.00  0.00    +0.088 C 
ATOM     13  C   UNL     1      -3.829   2.787   0.000  0.00  0.00    +0.038 C 
ENDBRANCH   1   8
BRANCH   2  14
ATOM     14  C   UNL     1      -0.707   0.562   0.000  0.00  0.00    +0.121 C 
BRANCH  14  15
ATOM     15  C   UNL     1       0.008   0.974   0.000  0.00  0.00    +0.069 C 
BRANCH  15  16
ATOM     16  C   UNL     1       0.722   0.562   0.000  0.00  0.00    +0.061 A 
ATOM     17  N   UNL     1       0.722  -0.263   0.000  0.00  0.00    -0.248 NA
ATOM     18  C   UNL     1       1.437  -0.676   0.000  0.00  0.00    +0.098 A 
ATOM     19  C   UNL     1       2.151  -0.263   0.000  0.00  0.00    +0.021 A 
ATOM     20  C   UNL     1       2.151   0.562   0.000  0.00  0.00    +0.003 A 
ATOM     21  C   UNL     1       1.437   0.974   0.000  0.00  0.00    +0.015 A 
ENDBRANCH  15  16
ENDBRANCH  14  15
ENDBRANCH   2  14
TORSDOF 4
