REMARK  Name = 
REMARK  3 active torsions:
REMARK  status: ('A' for Active; 'I' for Inactive)
REMARK    1  A    between atoms: C_5  and  N_6
REMARK    2  A    between atoms: N_6  and  C_7
REMARK    3  A    between atoms: C_14  and  C_15
REMARK                            x       y       z     vdW  Elec       q    Type
REMARK                         _______ _______ _______ _____ _____    ______ ____
ROOT
ATOM      1  C   UNL     1      -0.551   4.254   0.000  0.00  0.00    +0.054 C 
ATOM      2  C   UNL     1      -0.551   3.429   0.000  0.00  0.00    +0.078 A 
ATOM      3  C   UNL     1      -1.265   3.017   0.000  0.00  0.00    +0.006 A 
ATOM      4  C   UNL     1      -1.980   3.429   0.000  0.00  0.00    +0.033 C 
ATOM      5  C   UNL     1      -1.265   2.192   0.000  0.00  0.00    +0.100 A 
ATOM      6  C   UNL     1      -0.551   1.779   0.000  0.00  0.00    +0.179 A 
ATOM      7  N   UNL     1       0.164   2.192   0.000  0.00  0.00    -0.131 NA
ATOM      8  N   UNL     1       0.164   3.017   0.000  0.00  0.00    -0.151 NA
ENDROOT
BRANCH   5   9
ATOM      9  C   UNL     1      -1.980   1.779   0.000  0.00  0.00    +0.103 C 
ATOM     10  N   UNL     1      -2.694   1.367   0.000  0.00  0.00    -0.191 NA
ENDBRANCH   5   9
BRANCH   6  11
ATOM     11  N   UNL     1      -0.551   0.954   0.000  0.00  0.00    -0.218 NA
BRANCH  11  12
ATOM     12  C   UNL     1       0.164   0.542   0.000  0.00  0.00    +0.124 C 
ATOM     13  C   UNL     1       0.878   0.954   0.000  0.00  0.00    +0.135 C 
ATOM     14  O   UNL     1       0.672   0.129   0.000  0.00  0.00    -0.357 OA
ATOM     15  C   UNL     1       0.878  -0.696   0.000  0.00  0.00    +0.117 C 
ATOM     16  C   UNL     1       1.593  -0.283   0.000  0.00  0.00    +0.032 C 
ATOM     17  C   UNL     1       1.593   0.542   0.000  0.00  0.00    +0.034 C 
ATOM     18  C   UNL     1       0.164  -0.283   0.000  0.00  0.00    +0.054 C 
ENDBRANCH  11  12
ENDBRANCH   6  11
TORSDOF 3
