REMARK  Name = 
REMARK  3 active torsions:
REMARK  status: ('A' for Active; 'I' for Inactive)
REMARK    1  A    between atoms: N_3  and  C_16
REMARK    2  A    between atoms: C_4  and  C_10
REMARK    3  A    between atoms: N_9  and  C_10
REMARK                            x       y       z     vdW  Elec       q    Type
REMARK                         _______ _______ _______ _____ _____    ______ ____
ROOT
ATOM      1  C   UNL     1       2.142  -2.888   0.000  0.00  0.00    +0.353 A 
ATOM      2  O   UNL     1       1.425  -2.475   0.000  0.00  0.00    -0.244 OA
ATOM      3  N   UNL     1       2.854  -2.475   0.000  0.00  0.00    -0.280 N 
ATOM      4  C   UNL     1       3.571  -2.888   0.000  0.00  0.00    +0.082 A 
ATOM      5  C   UNL     1       3.571  -3.712   0.000  0.00  0.00    +0.075 A 
ATOM      6  C   UNL     1       2.854  -4.125   0.000  0.00  0.00    +0.282 A 
ATOM      7  O   UNL     1       2.854  -4.950   0.000  0.00  0.00    -0.265 OA
ATOM      8  N   UNL     1       2.142  -3.712   0.000  0.00  0.00    -0.153 NA
ENDROOT
BRANCH   3   9
ATOM      9  C   UNL     1       2.854  -1.650   0.000  0.00  0.00    +0.090 C 
ATOM     10  C   UNL     1       2.142  -1.238   0.000  0.00  0.00    +0.025 C 
ATOM     11  C   UNL     1       3.571  -1.238   0.000  0.00  0.00    +0.025 C 
ENDBRANCH   3   9
BRANCH   5  12
ATOM     12  C   UNL     1       4.283  -4.125   0.000  0.00  0.00    +0.149 C 
BRANCH  12  13
ATOM     13  N   UNL     1       4.283  -4.950   0.000  0.00  0.00    -0.183 NA
ATOM     14  C   UNL     1       5.000  -5.362   0.000  0.00  0.00    +0.324 C 
ATOM     15  O   UNL     1       5.713  -4.950   0.000  0.00  0.00    -0.251 OA
ATOM     16  N   UNL     1       5.000  -6.188   0.000  0.00  0.00    -0.259 N 
ATOM     17  C   UNL     1       5.713  -6.600   0.000  0.00  0.00    +0.100 C 
ATOM     18  C   UNL     1       5.713  -7.425   0.000  0.00  0.00    +0.047 C 
ATOM     19  C   UNL     1       5.000  -7.838   0.000  0.00  0.00    -0.031 C 
ATOM     20  C   UNL     1       4.283  -7.425   0.000  0.00  0.00    -0.028 C 
ATOM     21  C   UNL     1       3.571  -7.838   0.000  0.00  0.00    +0.028 C 
ATOM     22  C   UNL     1       4.283  -6.600   0.000  0.00  0.00    +0.117 C 
ENDBRANCH  12  13
ENDBRANCH   5  12
TORSDOF 3
