REMARK  Name = 
REMARK  5 active torsions:
REMARK  status: ('A' for Active; 'I' for Inactive)
REMARK    1  A    between atoms: C_2  and  C_4
REMARK    2  A    between atoms: C_6  and  C_7
REMARK    3  A    between atoms: C_7  and  C_8
REMARK    4  A    between atoms: N_10  and  C_11
REMARK    5  A    between atoms: C_11  and  C_12
REMARK                            x       y       z     vdW  Elec       q    Type
REMARK                         _______ _______ _______ _____ _____    ______ ____
ROOT
ATOM      1  C   UNL     1       1.387  -2.408   0.000  0.00  0.00    +0.133 C 
ENDROOT
BRANCH   1   5
ATOM      2  C   UNL     1      -0.221  -1.004   0.000  0.00  0.00    +0.087 A 
ATOM      3  S   UNL     1      -0.633  -1.718   0.000  0.00  0.00    -0.071 S 
ATOM      4  C   UNL     1      -0.081  -2.331   0.000  0.00  0.00    +0.052 A 
ATOM      5  C   UNL     1       0.672  -1.996   0.000  0.00  0.00    +0.075 A 
ATOM      6  N   UNL     1       0.586  -1.175   0.000  0.00  0.00    -0.247 NA
BRANCH   2   8
ATOM      7  C   UNL     1      -1.377  -0.164   0.000  0.00  0.00    +0.007 C 
ATOM      8  C   UNL     1      -0.556  -0.250   0.000  0.00  0.00    +0.047 C 
ATOM      9  C   UNL     1      -0.071   0.417   0.000  0.00  0.00    +0.007 C 
ENDBRANCH   2   8
ENDBRANCH   1   5
BRANCH   1  10
ATOM     10  C   UNL     1       2.102  -1.996   0.000  0.00  0.00    +0.247 C 
ATOM     11  N   UNL     1       2.816  -2.408   0.000  0.00  0.00    -0.205 NA
ATOM     12  O   UNL     1       2.102  -1.171   0.000  0.00  0.00    -0.273 OA
BRANCH  11  13
ATOM     13  C   UNL     1       3.530  -1.996   0.000  0.00  0.00    +0.118 C 
BRANCH  13  14
ATOM     14  C   UNL     1       4.245  -2.408   0.000  0.00  0.00    +0.054 C 
ATOM     15  C   UNL     1       4.331  -3.229   0.000  0.00  0.00    +0.144 C 
ATOM     16  O   UNL     1       5.138  -3.400   0.000  0.00  0.00    -0.354 OA
ATOM     17  C   UNL     1       5.551  -2.686   0.000  0.00  0.00    +0.142 C 
ATOM     18  C   UNL     1       4.999  -2.073   0.000  0.00  0.00    +0.036 C 
ENDBRANCH  13  14
ENDBRANCH  11  13
ENDBRANCH   1  10
TORSDOF 5
