REMARK  Name = 
REMARK  7 active torsions:
REMARK  status: ('A' for Active; 'I' for Inactive)
REMARK    1  A    between atoms: C_4  and  S_5
REMARK    2  A    between atoms: S_5  and  C_6
REMARK    3  A    between atoms: C_6  and  C_7
REMARK    4  A    between atoms: C_7  and  O_8
REMARK    5  A    between atoms: O_8  and  C_9
REMARK    6  A    between atoms: C_16  and  C_17
REMARK    7  A    between atoms: C_20  and  C_21
REMARK                            x       y       z     vdW  Elec       q    Type
REMARK                         _______ _______ _______ _____ _____    ______ ____
ROOT
ATOM      1  N   UNL     1      -4.083  -1.954   0.000  0.00  0.00    -0.106 NA
ATOM      2  C   UNL     1      -3.368  -2.366   0.000  0.00  0.00    +0.180 A 
ATOM      3  C   UNL     1      -3.368  -3.191   0.000  0.00  0.00    +0.104 A 
ATOM      4  C   UNL     1      -2.654  -3.604   0.000  0.00  0.00    +0.026 A 
ATOM      5  C   UNL     1      -1.939  -3.191   0.000  0.00  0.00    +0.093 A 
ATOM      6  C   UNL     1      -1.939  -2.366   0.000  0.00  0.00    +0.118 A 
ATOM      7  N   UNL     1      -2.654  -1.954   0.000  0.00  0.00    -0.220 NA
ENDROOT
BRANCH   5   8
ATOM      8  C   UNL     1      -1.225  -3.604   0.000  0.00  0.00    +0.102 C 
ATOM      9  N   UNL     1      -0.510  -4.016   0.000  0.00  0.00    -0.191 NA
ENDBRANCH   5   8
BRANCH   3  10
ATOM     10  C   UNL     1      -4.083  -3.604   0.000  0.00  0.00    +0.103 C 
ATOM     11  N   UNL     1      -4.797  -4.016   0.000  0.00  0.00    -0.191 NA
ENDBRANCH   3  10
BRANCH   6  12
ATOM     12  S   UNL     1      -1.225  -1.954   0.000  0.00  0.00    -0.092 S 
BRANCH  12  13
ATOM     13  C   UNL     1      -0.510  -2.366   0.000  0.00  0.00    +0.096 C 
BRANCH  13  14
ATOM     14  C   UNL     1       0.204  -1.954   0.000  0.00  0.00    +0.154 C 
BRANCH  14  15
ATOM     15  O   UNL     1       0.918  -2.366   0.000  0.00  0.00    -0.355 OA
BRANCH  15  16
ATOM     16  C   UNL     1       1.633  -1.954   0.000  0.00  0.00    +0.115 C 
ATOM     17  C   UNL     1       2.315  -2.418   0.000  0.00  0.00    +0.030 C 
ATOM     18  C   UNL     1       3.103  -2.175   0.000  0.00  0.00    +0.002 C 
ATOM     19  C   UNL     1       3.404  -1.407   0.000  0.00  0.00    +0.000 C 
ATOM     20  C   UNL     1       2.992  -0.693   0.000  0.00  0.00    +0.000 C 
ATOM     21  C   UNL     1       2.176  -0.570   0.000  0.00  0.00    +0.002 C 
ATOM     22  C   UNL     1       1.571  -1.131   0.000  0.00  0.00    +0.030 C 
ENDBRANCH  15  16
ENDBRANCH  14  15
ENDBRANCH  13  14
ENDBRANCH  12  13
ENDBRANCH   6  12
TORSDOF 7
