REMARK  Name = 
REMARK  6 active torsions:
REMARK  status: ('A' for Active; 'I' for Inactive)
REMARK    1  A    between atoms: C_2  and  C_3
REMARK    2  A    between atoms: C_3  and  N_4
REMARK    3  A    between atoms: C_3  and  C_14
REMARK    4  A    between atoms: N_4  and  C_5
REMARK    5  A    between atoms: C_5  and  C_7
REMARK    6  A    between atoms: C_7  and  N_8
REMARK                            x       y       z     vdW  Elec       q    Type
REMARK                         _______ _______ _______ _____ _____    ______ ____
ROOT
ATOM      1  C   UNL     1       1.865  -1.040   0.000  0.00  0.00    +0.098 C 
ATOM      2  C   UNL     1       2.277  -0.325   0.000  0.00  0.00    +0.021 C 
ENDROOT
BRANCH   1   3
ATOM      3  C   UNL     1       1.040  -1.040   0.000  0.00  0.00    +0.145 C 
BRANCH   3   4
ATOM      4  N   UNL     1       0.627  -0.325   0.000  0.00  0.00    -0.248 N 
ATOM      5  N   UNL     1       0.963   0.429   0.000  0.00  0.00    -0.168 NA
ATOM      6  C   UNL     1       0.349   0.981   0.000  0.00  0.00    +0.117 A 
ATOM      7  C   UNL     1      -0.365   0.568   0.000  0.00  0.00    +0.018 A 
ATOM      8  C   UNL     1      -1.119   0.904   0.000  0.00  0.00    +0.034 C 
ATOM      9  C   UNL     1      -0.193  -0.239   0.000  0.00  0.00    +0.092 A 
ENDBRANCH   3   4
ENDBRANCH   1   3
BRANCH   1  10
ATOM     10  N   UNL     1       2.277  -1.754   0.000  0.00  0.00    -0.210 NA
BRANCH  10  11
ATOM     11  C   UNL     1       3.102  -1.754   0.000  0.00  0.00    +0.152 C 
BRANCH  11  12
ATOM     12  C   UNL     1       3.515  -1.040   0.000  0.00  0.00    +0.277 C 
ATOM     13  N   UNL     1       4.340  -1.040   0.000  0.00  0.00    -0.087 NA
ATOM     14  O   UNL     1       3.102  -0.325   0.000  0.00  0.00    -0.270 OA
ENDBRANCH  11  12
BRANCH  11  16
ATOM     15  C   UNL     1       4.340  -2.469   0.000  0.00  0.00    +0.002 C 
ATOM     16  C   UNL     1       3.515  -2.469   0.000  0.00  0.00    +0.027 C 
ENDBRANCH  11  16
ENDBRANCH  10  11
ENDBRANCH   1  10
TORSDOF 6
