REMARK  Name = 
REMARK  6 active torsions:
REMARK  status: ('A' for Active; 'I' for Inactive)
REMARK    1  A    between atoms: C_2  and  C_3
REMARK    2  A    between atoms: C_3  and  N_4
REMARK    3  A    between atoms: C_5  and  C_7
REMARK    4  A    between atoms: C_7  and  N_8
REMARK    5  A    between atoms: C_10  and  N_11
REMARK    6  A    between atoms: C_12  and  C_14
REMARK                            x       y       z     vdW  Elec       q    Type
REMARK                         _______ _______ _______ _____ _____    ______ ____
ROOT
ATOM      1  N   UNL     1       6.736  -3.364   0.000  0.00  0.00    -0.239 N 
ATOM      2  N   UNL     1       6.822  -4.185   0.000  0.00  0.00    -0.166 NA
ATOM      3  C   UNL     1       7.629  -4.356   0.000  0.00  0.00    +0.138 A 
ATOM      4  C   UNL     1       8.041  -3.642   0.000  0.00  0.00    +0.113 A 
ATOM      5  C   UNL     1       7.489  -3.029   0.000  0.00  0.00    +0.114 A 
ENDROOT
BRANCH   4   6
ATOM      6  N   UNL     1       8.862  -3.556   0.000  0.00  0.00    -0.176 NA
ATOM      7  C   UNL     1       9.347  -4.223   0.000  0.00  0.00    +0.245 C 
ATOM      8  O   UNL     1       9.011  -4.977   0.000  0.00  0.00    -0.273 OA
BRANCH   7   9
ATOM      9  C   UNL     1      10.167  -4.137   0.000  0.00  0.00    +0.071 C 
ATOM     10  C   UNL     1      10.081  -3.316   0.000  0.00  0.00    +0.009 C 
ATOM     11  C   UNL     1      10.254  -4.957   0.000  0.00  0.00    +0.009 C 
ATOM     12  C   UNL     1      10.988  -4.051   0.000  0.00  0.00    +0.009 C 
ENDBRANCH   7   9
ENDBRANCH   4   6
BRANCH   1  13
ATOM     13  C   UNL     1       6.021  -2.952   0.000  0.00  0.00    +0.214 C 
BRANCH  13  15
ATOM     14  N   UNL     1       4.592  -2.952   0.000  0.00  0.00    -0.204 NA
ATOM     15  C   UNL     1       5.307  -3.364   0.000  0.00  0.00    +0.266 C 
ATOM     16  O   UNL     1       5.307  -4.189   0.000  0.00  0.00    -0.271 OA
BRANCH  14  17
ATOM     17  C   UNL     1       3.878  -3.364   0.000  0.00  0.00    +0.115 C 
BRANCH  17  19
ATOM     18  C   UNL     1       2.449  -3.364   0.000  0.00  0.00    +0.002 C 
ATOM     19  C   UNL     1       3.163  -2.952   0.000  0.00  0.00    +0.023 C 
ENDBRANCH  17  19
ENDBRANCH  14  17
ENDBRANCH  13  15
ENDBRANCH   1  13
TORSDOF 6
