REMARK  Name = 
REMARK  2 active torsions:
REMARK  status: ('A' for Active; 'I' for Inactive)
REMARK    1  A    between atoms: C_6  and  C_7
REMARK    2  A    between atoms: C_7  and  N_8
REMARK                            x       y       z     vdW  Elec       q    Type
REMARK                         _______ _______ _______ _____ _____    ______ ____
ROOT
ATOM      1  N   UNL     1       1.429  -2.475   0.000  0.00  0.00    -0.187 NA
ATOM      2  C   UNL     1       2.143  -2.888   0.000  0.00  0.00    +0.345 C 
ATOM      3  N   UNL     1       2.858  -2.475   0.000  0.00  0.00    -0.142 NA
ATOM      4  C   UNL     1       3.572  -2.888   0.000  0.00  0.00    +0.156 A 
ATOM      5  N   UNL     1       3.572  -3.712   0.000  0.00  0.00    -0.227 NA
ATOM      6  C   UNL     1       4.287  -4.125   0.000  0.00  0.00    +0.100 A 
ATOM      7  C   UNL     1       5.001  -3.712   0.000  0.00  0.00    +0.021 A 
ATOM      8  C   UNL     1       5.001  -2.888   0.000  0.00  0.00    +0.005 A 
ATOM      9  C   UNL     1       4.287  -2.475   0.000  0.00  0.00    +0.036 A 
ATOM     10  O   UNL     1       2.143  -3.712   0.000  0.00  0.00    -0.249 OA
ENDROOT
BRANCH   1  11
ATOM     11  C   UNL     1       0.715  -2.888   0.000  0.00  0.00    +0.119 C 
BRANCH  11  14
ATOM     12  O   UNL     1      -0.925  -3.618   0.000  0.00  0.00    -0.223 OA
ATOM     13  C   UNL     1      -0.754  -2.811   0.000  0.00  0.00    +0.154 C 
ATOM     14  C   UNL     1       0.000  -2.475   0.000  0.00  0.00    +0.052 C 
ATOM     15  C   UNL     1      -0.086  -1.655   0.000  0.00  0.00    +0.004 C 
ATOM     16  C   UNL     1      -0.893  -1.483   0.000  0.00  0.00    +0.003 C 
ATOM     17  C   UNL     1      -1.306  -2.197   0.000  0.00  0.00    +0.033 C 
ENDBRANCH  11  14
ENDBRANCH   1  11
TORSDOF 2
