REMARK  Name = 
REMARK  3 active torsions:
REMARK  status: ('A' for Active; 'I' for Inactive)
REMARK    1  A    between atoms: C_7  and  N_8
REMARK    2  A    between atoms: N_11  and  C_12
REMARK    3  A    between atoms: N_16  and  S_18
REMARK                            x       y       z     vdW  Elec       q    Type
REMARK                         _______ _______ _______ _____ _____    ______ ____
ROOT
ATOM      1  N   UNL     1      -1.429  -4.950   0.000  0.00  0.00    -0.159 NA
ATOM      2  C   UNL     1      -0.715  -5.362   0.000  0.00  0.00    +0.344 C 
ATOM      3  N   UNL     1      -0.715  -6.188   0.000  0.00  0.00    -0.187 NA
ATOM      4  O   UNL     1       0.000  -4.950   0.000  0.00  0.00    -0.249 OA
ENDROOT
BRANCH   1  10
ATOM      5  C   UNL     1      -2.143  -1.238   0.000  0.00  0.00    +0.114 C 
ATOM      6  N   UNL     1      -1.429  -1.650   0.000  0.00  0.00    -0.290 N 
ATOM      7  C   UNL     1      -1.429  -2.475   0.000  0.00  0.00    +0.132 A 
ATOM      8  N   UNL     1      -2.143  -2.888   0.000  0.00  0.00    -0.228 NA
ATOM      9  C   UNL     1      -2.143  -3.712   0.000  0.00  0.00    +0.117 A 
ATOM     10  C   UNL     1      -1.429  -4.125   0.000  0.00  0.00    +0.094 A 
ATOM     11  C   UNL     1      -0.715  -3.712   0.000  0.00  0.00    +0.021 A 
ATOM     12  C   UNL     1      -0.715  -2.888   0.000  0.00  0.00    +0.036 A 
ATOM     13  C   UNL     1      -0.715  -1.238   0.000  0.00  0.00    +0.114 C 
ENDBRANCH   1  10
BRANCH   3  14
ATOM     14  C   UNL     1       0.000  -6.600   0.000  0.00  0.00    +0.115 C 
ATOM     15  C   UNL     1       0.000  -7.425   0.000  0.00  0.00    +0.117 C 
ATOM     16  N   UNL     1       0.715  -7.838   0.000  0.00  0.00    -0.158 NA
ATOM     17  C   UNL     1       1.429  -7.425   0.000  0.00  0.00    +0.096 C 
ATOM     18  C   UNL     1       1.429  -6.600   0.000  0.00  0.00    +0.021 C 
ATOM     19  C   UNL     1       0.715  -6.188   0.000  0.00  0.00    +0.025 C 
BRANCH  16  20
ATOM     20  S   UNL     1       0.715  -8.662   0.000  0.00  0.00    +0.046 S 
ATOM     21  C   UNL     1       1.540  -8.662   0.000  0.00  0.00    +0.196 C 
ATOM     22  O   UNL     1      -0.111  -8.662   0.000  0.00  0.00    -0.157 OA
ATOM     23  O   UNL     1       0.715  -9.488   0.000  0.00  0.00    -0.157 OA
ENDBRANCH  16  20
ENDBRANCH   3  14
TORSDOF 3
