REMARK  Name = 
REMARK  1 active torsions:
REMARK  status: ('A' for Active; 'I' for Inactive)
REMARK    1  A    between atoms: C_9  and  C_11
REMARK                            x       y       z     vdW  Elec       q    Type
REMARK                         _______ _______ _______ _____ _____    ______ ____
ROOT
ATOM      1  C   UNL     1       2.143   1.238   0.000  0.00  0.00    +0.140 C 
ATOM      2  N   UNL     1       1.429   0.825   0.000  0.00  0.00    -0.185 NA
ATOM      3  C   UNL     1       1.429   0.000   0.000  0.00  0.00    +0.345 C 
ATOM      4  N   UNL     1       0.715  -0.412   0.000  0.00  0.00    -0.134 NA
ATOM      5  C   UNL     1       0.715  -1.238   0.000  0.00  0.00    +0.209 A 
ATOM      6  S   UNL     1       0.047  -1.722   0.000  0.00  0.00    -0.033 S 
ATOM      7  C   UNL     1       0.302  -2.507   0.000  0.00  0.00    +0.112 A 
ATOM      8  N   UNL     1       1.127  -2.507   0.000  0.00  0.00    -0.144 NA
ATOM      9  N   UNL     1       1.382  -1.722   0.000  0.00  0.00    -0.124 NA
ATOM     10  O   UNL     1       2.143  -0.412   0.000  0.00  0.00    -0.249 OA
ENDROOT
BRANCH   7  11
ATOM     11  C   UNL     1      -0.183  -3.175   0.000  0.00  0.00    +0.048 C 
ATOM     12  C   UNL     1      -1.003  -3.088   0.000  0.00  0.00    +0.007 C 
ATOM     13  C   UNL     1      -1.488  -3.756   0.000  0.00  0.00    +0.000 C 
ATOM     14  C   UNL     1      -1.153  -4.509   0.000  0.00  0.00    +0.000 C 
ATOM     15  C   UNL     1      -0.332  -4.596   0.000  0.00  0.00    +0.000 C 
ATOM     16  C   UNL     1       0.153  -3.928   0.000  0.00  0.00    +0.007 C 
ENDBRANCH   7  11
TORSDOF 1
