REMARK  Name = 
REMARK  4 active torsions:
REMARK  status: ('A' for Active; 'I' for Inactive)
REMARK    1  A    between atoms: C_2  and  C_3
REMARK    2  A    between atoms: C_2  and  N_11
REMARK    3  A    between atoms: C_3  and  N_4
REMARK    4  A    between atoms: N_11  and  C_12
REMARK                            x       y       z     vdW  Elec       q    Type
REMARK                         _______ _______ _______ _____ _____    ______ ____
ROOT
ATOM      1  C   UNL     1       4.180  -1.712   0.000  0.00  0.00    +0.021 C 
ATOM      2  C   UNL     1       3.466  -1.299   0.000  0.00  0.00    +0.095 C 
ENDROOT
BRANCH   2   3
ATOM      3  N   UNL     1       3.466  -0.474   0.000  0.00  0.00    -0.219 NA
BRANCH   3   4
ATOM      4  C   UNL     1       4.180  -0.062   0.000  0.00  0.00    +0.073 C 
ATOM      5  C   UNL     1       4.895  -0.474   0.000  0.00  0.00    +0.017 C 
ATOM      6  C   UNL     1       5.609  -0.062   0.000  0.00  0.00    +0.001 C 
ATOM      7  C   UNL     1       5.609   0.763   0.000  0.00  0.00    +0.000 C 
ATOM      8  C   UNL     1       4.895   1.176   0.000  0.00  0.00    +0.001 C 
ATOM      9  C   UNL     1       4.180   0.763   0.000  0.00  0.00    +0.017 C 
ENDBRANCH   3   4
ENDBRANCH   2   3
BRANCH   2  10
ATOM     10  C   UNL     1       2.751  -1.712   0.000  0.00  0.00    +0.125 C 
BRANCH  10  11
ATOM     11  N   UNL     1       2.751  -2.537   0.000  0.00  0.00    -0.311 N 
ATOM     12  C   UNL     1       2.084  -3.022   0.000  0.00  0.00    +0.052 A 
ATOM     13  C   UNL     1       1.299  -2.767   0.000  0.00  0.00    +0.051 C 
ATOM     14  C   UNL     1       2.339  -3.806   0.000  0.00  0.00    +0.073 A 
ATOM     15  C   UNL     1       1.854  -4.474   0.000  0.00  0.00    +0.053 C 
ATOM     16  N   UNL     1       3.164  -3.806   0.000  0.00  0.00    -0.229 NA
ATOM     17  C   UNL     1       3.419  -3.022   0.000  0.00  0.00    +0.178 A 
ENDBRANCH  10  11
ENDBRANCH   2  10
TORSDOF 4
