REMARK  Name = 
REMARK  6 active torsions:
REMARK  status: ('A' for Active; 'I' for Inactive)
REMARK    1  A    between atoms: C_2  and  C_3
REMARK    2  A    between atoms: C_3  and  C_4
REMARK    3  A    between atoms: C_7  and  N_10
REMARK    4  A    between atoms: N_10  and  C_11
REMARK    5  A    between atoms: C_11  and  C_12
REMARK    6  A    between atoms: C_12  and  C_13
REMARK                            x       y       z     vdW  Elec       q    Type
REMARK                         _______ _______ _______ _____ _____    ______ ____
ROOT
ATOM      1  C   UNL     1      -0.107   8.065   0.000  0.00  0.00    +0.000 C 
ATOM      2  C   UNL     1      -0.107   7.240   0.000  0.00  0.00    +0.001 C 
ATOM      3  C   UNL     1       0.608   6.828   0.000  0.00  0.00    +0.017 C 
ATOM      4  C   UNL     1       1.322   7.240   0.000  0.00  0.00    +0.073 C 
ATOM      5  C   UNL     1       1.322   8.065   0.000  0.00  0.00    +0.017 C 
ATOM      6  C   UNL     1       0.608   8.478   0.000  0.00  0.00    +0.001 C 
ENDROOT
BRANCH   1   7
ATOM      7  C   UNL     1      -0.821   8.478   0.000  0.00  0.00    +0.000 C 
BRANCH   7   9
ATOM      8  C   UNL     1      -2.250   8.478   0.000  0.00  0.00    +0.000 C 
ATOM      9  C   UNL     1      -1.536   8.065   0.000  0.00  0.00    +0.000 C 
ENDBRANCH   7   9
ENDBRANCH   1   7
BRANCH   4  10
ATOM     10  N   UNL     1       2.037   6.828   0.000  0.00  0.00    -0.219 NA
BRANCH  10  11
ATOM     11  C   UNL     1       2.037   6.003   0.000  0.00  0.00    +0.097 C 
BRANCH  11  12
ATOM     12  C   UNL     1       2.751   5.590   0.000  0.00  0.00    +0.086 C 
BRANCH  12  13
ATOM     13  C   UNL     1       2.751   4.765   0.000  0.00  0.00    +0.164 A 
ATOM     14  N   UNL     1       2.084   4.280   0.000  0.00  0.00    -0.206 NA
ATOM     15  C   UNL     1       2.339   3.496   0.000  0.00  0.00    +0.223 A 
ATOM     16  N   UNL     1       3.164   3.496   0.000  0.00  0.00    -0.124 NA
ATOM     17  N   UNL     1       3.419   4.280   0.000  0.00  0.00    -0.131 NA
ENDBRANCH  12  13
ENDBRANCH  11  12
ENDBRANCH  10  11
ENDBRANCH   4  10
TORSDOF 6
