REMARK  Name = 
REMARK  6 active torsions:
REMARK  status: ('A' for Active; 'I' for Inactive)
REMARK    1  A    between atoms: C_3  and  C_5
REMARK    2  A    between atoms: C_5  and  C_6
REMARK    3  A    between atoms: C_5  and  N_10
REMARK    4  A    between atoms: C_6  and  C_7
REMARK    5  A    between atoms: C_11  and  C_13
REMARK    6  A    between atoms: C_13  and  N_14
REMARK                            x       y       z     vdW  Elec       q    Type
REMARK                         _______ _______ _______ _____ _____    ______ ____
ROOT
ATOM      1  N   UNL     1      -0.191  -1.760   0.000  0.00  0.00    -0.196 NA
ATOM      2  C   UNL     1       0.221  -2.475   0.000  0.00  0.00    +0.265 C 
ATOM      3  O   UNL     1       0.307  -3.296   0.000  0.00  0.00    -0.271 OA
ENDROOT
BRANCH   1   4
ATOM      4  C   UNL     1      -1.016  -1.760   0.000  0.00  0.00    +0.173 C 
BRANCH   4   7
ATOM      5  C   UNL     1      -2.666  -0.332   0.000  0.00  0.00    +0.139 C 
ATOM      6  N   UNL     1      -2.254  -1.046   0.000  0.00  0.00    -0.202 NA
ATOM      7  C   UNL     1      -1.429  -1.046   0.000  0.00  0.00    +0.261 C 
ATOM      8  O   UNL     1      -1.016  -0.332   0.000  0.00  0.00    -0.271 OA
ENDBRANCH   4   7
BRANCH   4   9
ATOM      9  C   UNL     1      -1.429  -2.475   0.000  0.00  0.00    +0.031 C 
BRANCH   9  10
ATOM     10  C   UNL     1      -1.016  -3.189   0.000  0.00  0.00    +0.002 C 
ATOM     11  C   UNL     1      -1.429  -3.904   0.000  0.00  0.00    +0.000 C 
ATOM     12  C   UNL     1      -0.191  -3.189   0.000  0.00  0.00    +0.000 C 
ENDBRANCH   9  10
ENDBRANCH   4   9
ENDBRANCH   1   4
BRANCH   2  13
ATOM     13  C   UNL     1       1.046  -2.475   0.000  0.00  0.00    +0.197 C 
BRANCH  13  14
ATOM     14  N   UNL     1       1.459  -1.760   0.000  0.00  0.00    -0.269 N 
ATOM     15  C   UNL     1       2.284  -1.760   0.000  0.00  0.00    +0.353 A 
ATOM     16  O   UNL     1       2.696  -2.475   0.000  0.00  0.00    -0.244 OA
ATOM     17  N   UNL     1       2.696  -1.046   0.000  0.00  0.00    -0.153 NA
ATOM     18  C   UNL     1       2.284  -0.332   0.000  0.00  0.00    +0.285 A 
ATOM     19  O   UNL     1       2.696   0.383   0.000  0.00  0.00    -0.265 OA
ATOM     20  C   UNL     1       1.459  -0.332   0.000  0.00  0.00    +0.081 A 
ATOM     21  C   UNL     1       1.046  -1.046   0.000  0.00  0.00    +0.085 A 
ENDBRANCH  13  14
ENDBRANCH   2  13
TORSDOF 6
