REMARK  Name = 
REMARK  5 active torsions:
REMARK  status: ('A' for Active; 'I' for Inactive)
REMARK    1  A    between atoms: C_2  and  C_3
REMARK    2  A    between atoms: C_3  and  C_4
REMARK    3  A    between atoms: C_3  and  N_10
REMARK    4  A    between atoms: C_4  and  N_5
REMARK    5  A    between atoms: N_13  and  C_14
REMARK                            x       y       z     vdW  Elec       q    Type
REMARK                         _______ _______ _______ _____ _____    ______ ____
ROOT
ATOM      1  N   UNL     1       3.572  -3.712   0.000  0.00  0.00    -0.187 NA
ATOM      2  C   UNL     1       4.287  -4.125   0.000  0.00  0.00    +0.343 C 
ATOM      3  N   UNL     1       5.001  -3.712   0.000  0.00  0.00    -0.161 NA
ATOM      4  O   UNL     1       4.287  -4.950   0.000  0.00  0.00    -0.249 OA
ENDROOT
BRANCH   3   5
ATOM      5  C   UNL     1       5.716  -4.125   0.000  0.00  0.00    +0.078 A 
ATOM      6  C   UNL     1       5.716  -4.950   0.000  0.00  0.00    +0.037 A 
ATOM      7  C   UNL     1       6.430  -5.362   0.000  0.00  0.00    +0.100 A 
ATOM      8  N   UNL     1       7.145  -4.950   0.000  0.00  0.00    -0.242 NA
ATOM      9  C   UNL     1       7.145  -4.125   0.000  0.00  0.00    +0.100 A 
ATOM     10  C   UNL     1       6.430  -3.712   0.000  0.00  0.00    +0.037 A 
ENDBRANCH   3   5
BRANCH   1  11
ATOM     11  C   UNL     1       2.858  -4.125   0.000  0.00  0.00    +0.113 C 
BRANCH  11  13
ATOM     12  C   UNL     1       3.572  -5.362   0.000  0.00  0.00    +0.002 C 
ATOM     13  C   UNL     1       2.858  -4.950   0.000  0.00  0.00    +0.023 C 
ENDBRANCH  11  13
BRANCH  11  14
ATOM     14  C   UNL     1       2.143  -3.712   0.000  0.00  0.00    +0.094 C 
BRANCH  14  15
ATOM     15  N   UNL     1       1.429  -4.125   0.000  0.00  0.00    -0.271 NA
ATOM     16  C   UNL     1       0.675  -3.789   0.000  0.00  0.00    +0.072 C 
ATOM     17  C   UNL     1       0.123  -4.402   0.000  0.00  0.00    +0.019 C 
ATOM     18  C   UNL     1       0.536  -5.117   0.000  0.00  0.00    +0.019 C 
ATOM     19  C   UNL     1       1.343  -4.946   0.000  0.00  0.00    +0.072 C 
ENDBRANCH  14  15
ENDBRANCH  11  14
ENDBRANCH   1  11
TORSDOF 5
