REMARK  Name = 
REMARK  3 active torsions:
REMARK  status: ('A' for Active; 'I' for Inactive)
REMARK    1  A    between atoms: N_2  and  C_13
REMARK    2  A    between atoms: N_3  and  C_6
REMARK    3  A    between atoms: C_13  and  C_14
REMARK                            x       y       z     vdW  Elec       q    Type
REMARK                         _______ _______ _______ _____ _____    ______ ____
ROOT
ATOM      1  C   UNL     1       5.008   2.329   0.000  0.00  0.00    +0.149 A 
ATOM      2  C   UNL     1       5.721   2.742   0.000  0.00  0.00    +0.154 A 
ATOM      3  N   UNL     1       6.438   2.329   0.000  0.00  0.00    -0.207 NA
ATOM      4  C   UNL     1       6.438   1.504   0.000  0.00  0.00    +0.201 A 
ATOM      5  N   UNL     1       5.721   1.092   0.000  0.00  0.00    -0.205 NA
ATOM      6  N   UNL     1       4.225   2.583   0.000  0.00  0.00    -0.219 NA
ATOM      7  C   UNL     1       3.737   1.917   0.000  0.00  0.00    +0.180 A 
ATOM      8  N   UNL     1       4.225   1.250   0.000  0.00  0.00    -0.292 N 
ATOM      9  C   UNL     1       5.008   1.504   0.000  0.00  0.00    +0.167 A 
ENDROOT
BRANCH   2  10
ATOM     10  N   UNL     1       5.721   3.567   0.000  0.00  0.00    -0.287 N 
ATOM     11  C   UNL     1       5.008   3.979   0.000  0.00  0.00    +0.122 C 
ATOM     12  C   UNL     1       5.008   4.800   0.000  0.00  0.00    +0.135 C 
ATOM     13  C   UNL     1       4.292   5.213   0.000  0.00  0.00    +0.034 C 
ATOM     14  O   UNL     1       5.721   5.213   0.000  0.00  0.00    -0.355 OA
ATOM     15  C   UNL     1       6.438   4.800   0.000  0.00  0.00    +0.138 C 
ATOM     16  C   UNL     1       7.192   4.467   0.000  0.00  0.00    +0.063 C 
ATOM     17  C   UNL     1       7.742   5.079   0.000  0.00  0.00    +0.145 C 
ATOM     18  O   UNL     1       7.329   5.792   0.000  0.00  0.00    -0.354 OA
ATOM     19  C   UNL     1       6.525   5.621   0.000  0.00  0.00    +0.142 C 
ATOM     20  C   UNL     1       5.908   6.171   0.000  0.00  0.00    +0.035 C 
ATOM     21  C   UNL     1       6.438   3.979   0.000  0.00  0.00    +0.122 C 
ENDBRANCH   2  10
BRANCH   8  22
ATOM     22  C   UNL     1       3.967   0.467   0.000  0.00  0.00    +0.142 C 
BRANCH  22  23
ATOM     23  C   UNL     1       4.521  -0.150   0.000  0.00  0.00    +0.177 C 
ATOM     24  C   UNL     1       4.933  -0.863   0.000  0.00  0.00    +0.174 C 
ATOM     25  O   UNL     1       5.742  -0.692   0.000  0.00  0.00    -0.351 OA
ATOM     26  C   UNL     1       5.825   0.129   0.000  0.00  0.00    +0.145 C 
ATOM     27  O   UNL     1       3.854  -0.633   0.000  0.00  0.00    -0.221 OA
ATOM     28  C   UNL     1       5.071   0.467   0.000  0.00  0.00    +0.067 C 
ENDBRANCH  22  23
ENDBRANCH   8  22
TORSDOF 3
