REMARK  Name = 
REMARK  3 active torsions:
REMARK  status: ('A' for Active; 'I' for Inactive)
REMARK    1  A    between atoms: N_5  and  C_6
REMARK    2  A    between atoms: C_6  and  C_7
REMARK    3  A    between atoms: N_9  and  C_10
REMARK                            x       y       z     vdW  Elec       q    Type
REMARK                         _______ _______ _______ _____ _____    ______ ____
ROOT
ATOM      1 CL   UNL     1      -0.821   8.478   0.000  0.00  0.00    -0.080 Cl
ATOM      2  C   UNL     1      -0.107   8.065   0.000  0.00  0.00    +0.094 A 
ATOM      3  C   UNL     1      -0.107   7.240   0.000  0.00  0.00    +0.127 A 
ATOM      4 CL   UNL     1      -0.821   6.828   0.000  0.00  0.00    -0.076 Cl
ATOM      5  C   UNL     1       0.608   6.828   0.000  0.00  0.00    +0.288 A 
ATOM      6  O   UNL     1       0.608   6.003   0.000  0.00  0.00    -0.265 OA
ATOM      7  N   UNL     1       1.322   7.240   0.000  0.00  0.00    -0.206 N 
ATOM      8  N   UNL     1       1.322   8.065   0.000  0.00  0.00    -0.164 NA
ATOM      9  C   UNL     1       0.608   8.478   0.000  0.00  0.00    +0.133 A 
ENDROOT
BRANCH   7  10
ATOM     10  C   UNL     1       2.037   6.828   0.000  0.00  0.00    +0.217 C 
BRANCH  10  11
ATOM     11  C   UNL     1       2.037   6.003   0.000  0.00  0.00    +0.266 C 
ATOM     12  N   UNL     1       2.751   5.590   0.000  0.00  0.00    -0.206 NA
ATOM     13  O   UNL     1       1.322   5.590   0.000  0.00  0.00    -0.271 OA
BRANCH  12  14
ATOM     14  C   UNL     1       2.751   4.765   0.000  0.00  0.00    +0.095 C 
ATOM     15  C   UNL     1       2.084   4.280   0.000  0.00  0.00    +0.022 C 
ATOM     16  C   UNL     1       2.339   3.496   0.000  0.00  0.00    +0.002 C 
ATOM     17  C   UNL     1       3.164   3.496   0.000  0.00  0.00    +0.002 C 
ATOM     18  C   UNL     1       3.419   4.280   0.000  0.00  0.00    +0.022 C 
ENDBRANCH  12  14
ENDBRANCH  10  11
ENDBRANCH   7  10
TORSDOF 3
