REMARK  Name = 
REMARK  5 active torsions:
REMARK  status: ('A' for Active; 'I' for Inactive)
REMARK    1  A    between atoms: O_2  and  C_3
REMARK    2  A    between atoms: C_8  and  N_9
REMARK    3  A    between atoms: N_12  and  C_13
REMARK    4  A    between atoms: C_13  and  C_14
REMARK    5  A    between atoms: C_14  and  N_15
REMARK                            x       y       z     vdW  Elec       q    Type
REMARK                         _______ _______ _______ _____ _____    ______ ____
ROOT
ATOM      1  N   UNL     1       1.304  -4.050   0.000  0.00  0.00    -0.156 NA
ATOM      2  C   UNL     1       2.018  -4.462   0.000  0.00  0.00    +0.344 C 
ATOM      3  N   UNL     1       2.733  -4.050   0.000  0.00  0.00    -0.185 NA
ATOM      4  O   UNL     1       2.018  -5.287   0.000  0.00  0.00    -0.249 OA
ENDROOT
BRANCH   1   6
ATOM      5  C   UNL     1       0.589  -5.287   0.000  0.00  0.00    +0.241 A 
ATOM      6  C   UNL     1       0.589  -4.462   0.000  0.00  0.00    +0.128 A 
ATOM      7  C   UNL     1      -0.125  -4.050   0.000  0.00  0.00    +0.023 A 
ATOM      8  C   UNL     1      -0.840  -4.462   0.000  0.00  0.00    +0.022 A 
ATOM      9  C   UNL     1      -0.840  -5.287   0.000  0.00  0.00    +0.102 A 
ATOM     10  N   UNL     1      -0.125  -5.700   0.000  0.00  0.00    -0.209 NA
BRANCH   5  12
ATOM     11  C   UNL     1       1.304  -6.525   0.000  0.00  0.00    +0.254 C 
ATOM     12  O   UNL     1       1.304  -5.700   0.000  0.00  0.00    -0.455 OA
ENDBRANCH   5  12
ENDBRANCH   1   6
BRANCH   3  13
ATOM     13  C   UNL     1       3.447  -4.462   0.000  0.00  0.00    +0.138 C 
BRANCH  13  14
ATOM     14  C   UNL     1       4.162  -4.050   0.000  0.00  0.00    +0.117 C 
BRANCH  14  15
ATOM     15  N   UNL     1       4.876  -4.462   0.000  0.00  0.00    -0.278 N 
ATOM     16  C   UNL     1       4.814  -5.285   0.000  0.00  0.00    +0.226 C 
ATOM     17  O   UNL     1       4.046  -5.586   0.000  0.00  0.00    -0.275 OA
ATOM     18  C   UNL     1       5.419  -5.846   0.000  0.00  0.00    +0.085 C 
ATOM     19  C   UNL     1       6.235  -5.723   0.000  0.00  0.00    +0.010 C 
ATOM     20  C   UNL     1       6.648  -5.008   0.000  0.00  0.00    +0.002 C 
ATOM     21  C   UNL     1       6.346  -4.240   0.000  0.00  0.00    +0.022 C 
ATOM     22  C   UNL     1       5.558  -3.997   0.000  0.00  0.00    +0.093 C 
ENDBRANCH  14  15
ENDBRANCH  13  14
ENDBRANCH   3  13
TORSDOF 5
