REMARK  Name = 
REMARK  6 active torsions:
REMARK  status: ('A' for Active; 'I' for Inactive)
REMARK    1  A    between atoms: C_2  and  S_3
REMARK    2  A    between atoms: S_3  and  N_6
REMARK    3  A    between atoms: C_9  and  C_12
REMARK    4  A    between atoms: N_14  and  C_15
REMARK    5  A    between atoms: C_15  and  C_16
REMARK    6  A    between atoms: C_16  and  C_17
REMARK                            x       y       z     vdW  Elec       q    Type
REMARK                         _______ _______ _______ _____ _____    ______ ____
ROOT
ATOM      1  N   UNL     1      -1.429  -1.650   0.000  0.00  0.00    -0.159 NA
ATOM      2  C   UNL     1      -1.429  -2.475   0.000  0.00  0.00    +0.096 C 
ATOM      3  C   UNL     1      -0.715  -2.888   0.000  0.00  0.00    +0.028 C 
ATOM      4  C   UNL     1       0.000  -2.475   0.000  0.00  0.00    +0.081 C 
ATOM      5  C   UNL     1       0.000  -1.650   0.000  0.00  0.00    +0.028 C 
ATOM      6  C   UNL     1      -0.715  -1.238   0.000  0.00  0.00    +0.096 C 
ENDROOT
BRANCH   1   7
ATOM      7  S   UNL     1      -2.143  -1.238   0.000  0.00  0.00    +0.044 S 
ATOM      8  O   UNL     1      -1.731  -0.523   0.000  0.00  0.00    -0.157 OA
ATOM      9  O   UNL     1      -2.556  -1.952   0.000  0.00  0.00    -0.157 OA
BRANCH   7  11
ATOM     10  C   UNL     1      -3.572  -1.238   0.000  0.00  0.00    +0.029 C 
ATOM     11  C   UNL     1      -2.858  -0.825   0.000  0.00  0.00    +0.169 C 
ENDBRANCH   7  11
ENDBRANCH   1   7
BRANCH   4  12
ATOM     12  C   UNL     1       0.715  -2.888   0.000  0.00  0.00    +0.241 C 
ATOM     13  N   UNL     1       1.429  -2.475   0.000  0.00  0.00    -0.205 NA
ATOM     14  O   UNL     1       0.715  -3.712   0.000  0.00  0.00    -0.273 OA
BRANCH  13  15
ATOM     15  C   UNL     1       2.143  -2.888   0.000  0.00  0.00    +0.121 C 
BRANCH  15  16
ATOM     16  C   UNL     1       2.858  -2.475   0.000  0.00  0.00    +0.069 C 
BRANCH  16  17
ATOM     17  C   UNL     1       3.572  -2.888   0.000  0.00  0.00    +0.061 A 
ATOM     18  N   UNL     1       3.572  -3.712   0.000  0.00  0.00    -0.248 NA
ATOM     19  C   UNL     1       4.287  -4.125   0.000  0.00  0.00    +0.098 A 
ATOM     20  C   UNL     1       5.001  -3.712   0.000  0.00  0.00    +0.021 A 
ATOM     21  C   UNL     1       5.001  -2.888   0.000  0.00  0.00    +0.003 A 
ATOM     22  C   UNL     1       4.287  -2.475   0.000  0.00  0.00    +0.015 A 
ENDBRANCH  16  17
ENDBRANCH  15  16
ENDBRANCH  13  15
ENDBRANCH   4  12
TORSDOF 6
