REMARK  Name = 
REMARK  2 active torsions:
REMARK  status: ('A' for Active; 'I' for Inactive)
REMARK    1  A    between atoms: N_1  and  C1*_3
REMARK    2  A    between atoms: C4*_14  and  C5*_19
REMARK                            x       y       z     vdW  Elec       q    Type
REMARK                         _______ _______ _______ _____ _____    ______ ____
ROOT
ATOM      1  N   UNL     1       1.779  -0.254   0.000  0.00  0.00    -0.269 N 
ATOM      2  C   UNL     1       1.292   0.412   0.000  0.00  0.00    +0.182 A 
ATOM      3  N   UNL     1       1.779   1.083   0.000  0.00  0.00    -0.219 NA
ATOM      4  C   UNL     1       2.562   0.825   0.000  0.00  0.00    +0.152 A 
ATOM      5  C   UNL     1       3.275   1.238   0.000  0.00  0.00    +0.194 A 
ATOM      6  N   UNL     1       3.275   2.062   0.000  0.00  0.00    -0.105 NA
ATOM      7  N   UNL     1       3.992   0.825   0.000  0.00  0.00    -0.181 NA
ATOM      8  C   UNL     1       3.992   0.000   0.000  0.00  0.00    +0.313 A 
ATOM      9  F   UNL     1       4.704  -0.412   0.000  0.00  0.00    -0.161 F 
ATOM     10  N   UNL     1       3.275  -0.412   0.000  0.00  0.00    -0.182 NA
ATOM     11  C   UNL     1       2.562   0.000   0.000  0.00  0.00    +0.171 A 
ENDROOT
BRANCH   1  12
ATOM     12  C1* UNL     1       1.521  -1.038   0.000  0.00  0.00    +0.241 C 
ATOM     13  O4* UNL     1       2.008  -1.704   0.000  0.00  0.00    -0.331 OA
ATOM     14  C4* UNL     1       1.521  -2.371   0.000  0.00  0.00    +0.183 C 
ATOM     15  C3* UNL     1       0.738  -2.117   0.000  0.00  0.00    +0.216 C 
ATOM     16  O3* UNL     1       0.071  -2.604   0.000  0.00  0.00    -0.218 OA
ATOM     17  C2* UNL     1       0.738  -1.292   0.000  0.00  0.00    +0.234 C 
ATOM     18  O2* UNL     1       0.071  -0.808   0.000  0.00  0.00    -0.216 OA
BRANCH  14  19
ATOM     19  C5* UNL     1       1.779  -3.158   0.000  0.00  0.00    +0.214 C 
ATOM     20  O5* UNL     1       2.583  -3.329   0.000  0.00  0.00    -0.218 OA
ENDBRANCH  14  19
ENDBRANCH   1  12
TORSDOF 2
