REMARK  Name = 
REMARK  5 active torsions:
REMARK  status: ('A' for Active; 'I' for Inactive)
REMARK    1  A    between atoms: C_2  and  N_3
REMARK    2  A    between atoms: C_6  and  C_7
REMARK    3  A    between atoms: C_7  and  N_8
REMARK    4  A    between atoms: N_11  and  C_12
REMARK    5  A    between atoms: N_15  and  C_16
REMARK                            x       y       z     vdW  Elec       q    Type
REMARK                         _______ _______ _______ _____ _____    ______ ____
ROOT
ATOM      1  N   UNL     1       0.743  -2.437   0.000  0.00  0.00    -0.187 NA
ATOM      2  C   UNL     1       1.457  -2.025   0.000  0.00  0.00    +0.344 C 
ATOM      3  N   UNL     1       2.171  -2.437   0.000  0.00  0.00    -0.158 NA
ATOM      4  O   UNL     1       1.457  -1.200   0.000  0.00  0.00    -0.249 OA
ENDROOT
BRANCH   3   5
ATOM      5  C   UNL     1       2.886  -2.025   0.000  0.00  0.00    +0.114 A 
ATOM      6  C   UNL     1       3.640  -2.360   0.000  0.00  0.00    +0.113 A 
ATOM      7  N   UNL     1       4.192  -1.747   0.000  0.00  0.00    -0.248 N 
ATOM      8  N   UNL     1       3.779  -1.033   0.000  0.00  0.00    -0.166 NA
ATOM      9  C   UNL     1       2.972  -1.204   0.000  0.00  0.00    +0.138 A 
BRANCH   7  10
ATOM     10  C   UNL     1       5.012  -1.833   0.000  0.00  0.00    +0.128 C 
ATOM     11  C   UNL     1       5.497  -1.166   0.000  0.00  0.00    +0.028 C 
ENDBRANCH   7  10
ENDBRANCH   3   5
BRANCH   1  12
ATOM     12  C   UNL     1       0.028  -2.025   0.000  0.00  0.00    +0.118 C 
BRANCH  12  15
ATOM     13  N   UNL     1      -1.580  -3.429   0.000  0.00  0.00    -0.273 NA
ATOM     14  C   UNL     1      -0.773  -3.258   0.000  0.00  0.00    +0.074 C 
ATOM     15  C   UNL     1      -0.686  -2.437   0.000  0.00  0.00    +0.039 C 
ATOM     16  C   UNL     1      -1.440  -2.102   0.000  0.00  0.00    +0.020 C 
ATOM     17  C   UNL     1      -1.992  -2.715   0.000  0.00  0.00    +0.072 C 
BRANCH  13  19
ATOM     18  C   UNL     1      -2.736  -4.269   0.000  0.00  0.00    +0.019 C 
ATOM     19  C   UNL     1      -1.915  -4.183   0.000  0.00  0.00    +0.072 C 
ENDBRANCH  13  19
ENDBRANCH  12  15
ENDBRANCH   1  12
TORSDOF 5
