REMARK  Name = 
REMARK  4 active torsions:
REMARK  status: ('A' for Active; 'I' for Inactive)
REMARK    1  A    between atoms: C_2  and  N_7
REMARK    2  A    between atoms: N_10  and  C_11
REMARK    3  A    between atoms: N_14  and  C_15
REMARK    4  A    between atoms: C_15  and  C_16
REMARK                            x       y       z     vdW  Elec       q    Type
REMARK                         _______ _______ _______ _____ _____    ______ ____
ROOT
ATOM      1  N   UNL     1       0.743  -2.437   0.000  0.00  0.00    -0.188 NA
ATOM      2  C   UNL     1       0.487  -1.653   0.000  0.00  0.00    +0.344 C 
ATOM      3  N   UNL     1       1.040  -1.040   0.000  0.00  0.00    -0.158 NA
ATOM      4  O   UNL     1      -0.319  -1.481   0.000  0.00  0.00    -0.249 OA
ENDROOT
BRANCH   1   6
ATOM      5  C   UNL     1      -0.362  -2.437   0.000  0.00  0.00    +0.024 C 
ATOM      6  C   UNL     1       0.190  -3.050   0.000  0.00  0.00    +0.110 C 
ATOM      7  C   UNL     1      -0.477  -3.535   0.000  0.00  0.00    +0.162 C 
ATOM      8  O   UNL     1      -0.222  -4.320   0.000  0.00  0.00    -0.352 OA
ATOM      9  C   UNL     1       0.603  -4.320   0.000  0.00  0.00    +0.144 C 
ATOM     10  C   UNL     1       0.858  -3.535   0.000  0.00  0.00    +0.055 C 
ENDBRANCH   1   6
BRANCH   3  11
ATOM     11  C   UNL     1       0.785  -0.255   0.000  0.00  0.00    +0.114 A 
ATOM     12  C   UNL     1       1.270   0.412   0.000  0.00  0.00    +0.114 A 
ATOM     13  N   UNL     1       0.785   1.080   0.000  0.00  0.00    -0.239 N 
ATOM     14  N   UNL     1       0.000   0.825   0.000  0.00  0.00    -0.166 NA
ATOM     15  C   UNL     1       0.000   0.000   0.000  0.00  0.00    +0.138 A 
BRANCH  13  16
ATOM     16  C   UNL     1       1.040   1.865   0.000  0.00  0.00    +0.230 C 
BRANCH  16  17
ATOM     17  C   UNL     1       0.487   2.478   0.000  0.00  0.00    +0.420 C 
ATOM     18  F   UNL     1      -0.126   1.926   0.000  0.00  0.00    -0.168 F 
ATOM     19  F   UNL     1       1.101   3.030   0.000  0.00  0.00    -0.168 F 
ATOM     20  F   UNL     1      -0.065   3.091   0.000  0.00  0.00    -0.168 F 
ENDBRANCH  16  17
ENDBRANCH  13  16
ENDBRANCH   3  11
TORSDOF 4
