REMARK  Name = 
REMARK  4 active torsions:
REMARK  status: ('A' for Active; 'I' for Inactive)
REMARK    1  A    between atoms: N_11  and  C_12
REMARK    2  A    between atoms: C_12  and  C_13
REMARK    3  A    between atoms: C_13  and  C_14
REMARK    4  A    between atoms: C_14  and  N_15
REMARK                            x       y       z     vdW  Elec       q    Type
REMARK                         _______ _______ _______ _____ _____    ______ ____
ROOT
ATOM      1  C   UNL     1      -1.429   1.650   0.000  0.00  0.00    +0.031 C 
ATOM      2  C   UNL     1      -0.715   2.062   0.000  0.00  0.00    -0.018 A 
ATOM      3  C   UNL     1       0.000   1.650   0.000  0.00  0.00    +0.032 A 
ATOM      4  C   UNL     1       0.715   2.062   0.000  0.00  0.00    +0.155 A 
ATOM      5  N   UNL     1       1.429   1.650   0.000  0.00  0.00    -0.142 NA
ATOM      6  C   UNL     1       2.143   2.062   0.000  0.00  0.00    +0.345 C 
ATOM      7  N   UNL     1       2.858   1.650   0.000  0.00  0.00    -0.187 NA
ATOM      8  O   UNL     1       2.143   2.888   0.000  0.00  0.00    -0.249 OA
ATOM      9  N   UNL     1       0.715   2.888   0.000  0.00  0.00    -0.233 NA
ATOM     10  C   UNL     1       0.000   3.300   0.000  0.00  0.00    +0.061 A 
ATOM     11  C   UNL     1       0.000   4.125   0.000  0.00  0.00    +0.052 C 
ATOM     12  C   UNL     1      -0.715   2.888   0.000  0.00  0.00    +0.011 A 
ENDROOT
BRANCH   7  13
ATOM     13  C   UNL     1       3.572   2.062   0.000  0.00  0.00    +0.119 C 
BRANCH  13  14
ATOM     14  C   UNL     1       4.287   1.650   0.000  0.00  0.00    +0.045 C 
BRANCH  14  15
ATOM     15  C   UNL     1       5.001   2.062   0.000  0.00  0.00    +0.095 C 
BRANCH  15  16
ATOM     16  N   UNL     1       5.716   1.650   0.000  0.00  0.00    -0.279 N 
ATOM     17  C   UNL     1       5.802   0.830   0.000  0.00  0.00    +0.226 C 
ATOM     18  O   UNL     1       5.189   0.278   0.000  0.00  0.00    -0.275 OA
ATOM     19  C   UNL     1       6.609   0.658   0.000  0.00  0.00    +0.087 C 
ATOM     20  C   UNL     1       7.021   1.373   0.000  0.00  0.00    +0.031 C 
ATOM     21  C   UNL     1       6.469   1.986   0.000  0.00  0.00    +0.094 C 
ENDBRANCH  15  16
ENDBRANCH  14  15
ENDBRANCH  13  14
ENDBRANCH   7  13
TORSDOF 4
