REMARK  Name = 
REMARK  3 active torsions:
REMARK  status: ('A' for Active; 'I' for Inactive)
REMARK    1  A    between atoms: N_4  and  C_5
REMARK    2  A    between atoms: C_5  and  C_6
REMARK    3  A    between atoms: N_8  and  C_12
REMARK                            x       y       z     vdW  Elec       q    Type
REMARK                         _______ _______ _______ _____ _____    ______ ____
ROOT
ATOM      1  C   UNL     1       0.715  -1.238   0.000  0.00  0.00    +0.157 C 
ATOM      2  O   UNL     1       0.000  -1.650   0.000  0.00  0.00    -0.351 OA
ATOM      3  C   UNL     1       0.000  -2.475   0.000  0.00  0.00    +0.164 C 
ATOM      4  C   UNL     1       0.715  -2.888   0.000  0.00  0.00    +0.124 C 
ATOM      5  N   UNL     1       1.429  -2.475   0.000  0.00  0.00    -0.286 N 
ATOM      6  C   UNL     1       1.429  -1.650   0.000  0.00  0.00    +0.124 C 
ENDROOT
BRANCH   5   7
ATOM      7  C   UNL     1       2.143  -2.888   0.000  0.00  0.00    +0.160 A 
ATOM      8  C   UNL     1       2.143  -3.712   0.000  0.00  0.00    +0.172 A 
ATOM      9  F   UNL     1       1.429  -4.125   0.000  0.00  0.00    -0.201 F 
ATOM     10  C   UNL     1       2.858  -4.125   0.000  0.00  0.00    +0.034 A 
ATOM     11  C   UNL     1       3.572  -3.712   0.000  0.00  0.00    +0.023 A 
ATOM     12  C   UNL     1       3.572  -2.888   0.000  0.00  0.00    +0.100 A 
ATOM     13  N   UNL     1       2.858  -2.475   0.000  0.00  0.00    -0.227 NA
ENDBRANCH   5   7
BRANCH   1  14
ATOM     14  C   UNL     1       0.715  -0.412   0.000  0.00  0.00    +0.146 C 
BRANCH  14  17
ATOM     15  C   UNL     1      -0.715   1.238   0.000  0.00  0.00    +0.096 C 
ATOM     16  C   UNL     1       0.000   0.825   0.000  0.00  0.00    +0.242 C 
ATOM     17  N   UNL     1       0.000   0.000   0.000  0.00  0.00    -0.203 NA
ATOM     18  O   UNL     1       0.715   1.238   0.000  0.00  0.00    -0.273 OA
ENDBRANCH  14  17
ENDBRANCH   1  14
TORSDOF 3
