REMARK  Name = 
REMARK  4 active torsions:
REMARK  status: ('A' for Active; 'I' for Inactive)
REMARK    1  A    between atoms: C_7  and  C_9
REMARK    2  A    between atoms: C_9  and  C_11
REMARK    3  A    between atoms: C_11  and  N_12
REMARK    4  A    between atoms: C_14  and  C_19
REMARK                            x       y       z     vdW  Elec       q    Type
REMARK                         _______ _______ _______ _____ _____    ______ ____
ROOT
ATOM      1  C   UNL     1       0.000  -4.950   0.000  0.00  0.00    +0.168 C 
ENDROOT
BRANCH   1   2
ATOM      2  N   UNL     1      -0.715  -5.362   0.000  0.00  0.00    -0.214 N 
ATOM      3  C   UNL     1      -1.429  -4.950   0.000  0.00  0.00    +0.277 A 
ATOM      4  O   UNL     1      -1.429  -4.125   0.000  0.00  0.00    -0.266 OA
ATOM      5  C   UNL     1      -2.143  -5.362   0.000  0.00  0.00    +0.064 A 
ATOM      6  C   UNL     1      -2.143  -6.188   0.000  0.00  0.00    +0.030 A 
ATOM      7  C   UNL     1      -1.429  -6.600   0.000  0.00  0.00    +0.172 A 
ATOM      8  N   UNL     1      -0.715  -6.188   0.000  0.00  0.00    -0.163 NA
BRANCH   7   9
ATOM      9  C   UNL     1      -1.429  -7.425   0.000  0.00  0.00    +0.436 C 
ATOM     10  F   UNL     1      -0.604  -7.425   0.000  0.00  0.00    -0.164 F 
ATOM     11  F   UNL     1      -2.254  -7.425   0.000  0.00  0.00    -0.164 F 
ATOM     12  F   UNL     1      -1.429  -8.250   0.000  0.00  0.00    -0.164 F 
ENDBRANCH   7   9
ENDBRANCH   1   2
BRANCH   1  13
ATOM     13  C   UNL     1       0.000  -4.125   0.000  0.00  0.00    +0.198 C 
ATOM     14  O   UNL     1      -0.715  -3.712   0.000  0.00  0.00    -0.216 OA
BRANCH  13  18
ATOM     15  C   UNL     1       1.429  -1.650   0.000  0.00  0.00    +0.031 C 
ATOM     16  C   UNL     1       1.429  -2.475   0.000  0.00  0.00    -0.022 A 
ATOM     17  C   UNL     1       0.715  -2.888   0.000  0.00  0.00    -0.006 A 
ATOM     18  C   UNL     1       0.715  -3.712   0.000  0.00  0.00    +0.005 A 
ATOM     19  C   UNL     1       1.429  -4.125   0.000  0.00  0.00    -0.023 A 
ATOM     20  C   UNL     1       1.429  -4.950   0.000  0.00  0.00    +0.031 C 
ATOM     21  C   UNL     1       2.143  -3.712   0.000  0.00  0.00    -0.005 A 
ATOM     22  C   UNL     1       2.143  -2.888   0.000  0.00  0.00    -0.005 A 
ENDBRANCH  13  18
ENDBRANCH   1  13
TORSDOF 4
