REMARK  Name = 
REMARK  1 active torsions:
REMARK  status: ('A' for Active; 'I' for Inactive)
REMARK    1  A    between atoms: C_2  and  C_10
REMARK                            x       y       z     vdW  Elec       q    Type
REMARK                         _______ _______ _______ _____ _____    ______ ____
ROOT
ATOM      1  O   UNL     1       0.000  -1.650   0.000  0.00  0.00    -0.270 OA
ATOM      2  C   UNL     1       0.715  -1.238   0.000  0.00  0.00    +0.277 C 
ATOM      3  N   UNL     1       1.429  -1.650   0.000  0.00  0.00    -0.158 NA
ATOM      4  C   UNL     1       1.429  -2.475   0.000  0.00  0.00    +0.155 A 
ATOM      5  N   UNL     1       0.715  -2.888   0.000  0.00  0.00    -0.227 NA
ATOM      6  C   UNL     1       0.715  -3.712   0.000  0.00  0.00    +0.100 A 
ATOM      7  C   UNL     1       1.429  -4.125   0.000  0.00  0.00    +0.021 A 
ATOM      8  C   UNL     1       2.143  -3.712   0.000  0.00  0.00    +0.005 A 
ATOM      9  C   UNL     1       2.143  -2.888   0.000  0.00  0.00    +0.036 A 
ENDROOT
BRANCH   2  10
ATOM     10  C   UNL     1       0.715  -0.412   0.000  0.00  0.00    +0.223 C 
ATOM     11  O   UNL     1       1.429   0.000   0.000  0.00  0.00    -0.342 OA
ATOM     12  C   UNL     1       1.429   0.825   0.000  0.00  0.00    +0.175 C 
ATOM     13  C   UNL     1       0.715   1.238   0.000  0.00  0.00    +0.174 C 
ATOM     14  O   UNL     1       0.000   0.825   0.000  0.00  0.00    -0.348 OA
ATOM     15  C   UNL     1       0.000   0.000   0.000  0.00  0.00    +0.181 C 
ENDBRANCH   2  10
TORSDOF 1
