REMARK  Name = 
REMARK  5 active torsions:
REMARK  status: ('A' for Active; 'I' for Inactive)
REMARK    1  A    between atoms: C_2  and  C_3
REMARK    2  A    between atoms: C_2  and  C_16
REMARK    3  A    between atoms: C_3  and  N_4
REMARK    4  A    between atoms: C_5  and  C_7
REMARK    5  A    between atoms: C_8  and  C_9
REMARK                            x       y       z     vdW  Elec       q    Type
REMARK                         _______ _______ _______ _____ _____    ______ ____
ROOT
ATOM      1  N   UNL     1       2.561  -1.624   0.000  0.00  0.00    -0.205 NA
ATOM      2  C   UNL     1       3.276  -1.211   0.000  0.00  0.00    +0.241 C 
ATOM      3  O   UNL     1       3.276  -0.386   0.000  0.00  0.00    -0.273 OA
ENDROOT
BRANCH   2   4
ATOM      4  C   UNL     1       3.990  -1.624   0.000  0.00  0.00    +0.082 C 
ATOM      5  C   UNL     1       4.402  -2.338   0.000  0.00  0.00    +0.013 C 
ATOM      6  C   UNL     1       3.929  -3.014   0.000  0.00  0.00    +0.001 C 
ATOM      7  C   UNL     1       4.876  -3.014   0.000  0.00  0.00    +0.001 C 
ATOM      8  C   UNL     1       4.815  -1.624   0.000  0.00  0.00    +0.030 C 
BRANCH   8   9
ATOM      9  C   UNL     1       5.529  -1.211   0.000  0.00  0.00    -0.034 C 
ATOM     10  C   UNL     1       6.244  -1.624   0.000  0.00  0.00    -0.048 C 
ATOM     11  C   UNL     1       6.244  -2.449   0.000  0.00  0.00    +0.026 C 
ATOM     12  C   UNL     1       6.958  -1.211   0.000  0.00  0.00    +0.026 C 
ENDBRANCH   8   9
ENDBRANCH   2   4
BRANCH   1  13
ATOM     13  C   UNL     1       1.847  -1.211   0.000  0.00  0.00    +0.123 C 
BRANCH  13  15
ATOM     14  C   UNL     1       1.132  -2.449   0.000  0.00  0.00    +0.010 C 
ATOM     15  C   UNL     1       1.132  -1.624   0.000  0.00  0.00    +0.080 C 
BRANCH  15  16
ATOM     16  C   UNL     1       0.418  -1.211   0.000  0.00  0.00    +0.145 A 
ATOM     17  N   UNL     1       0.331  -0.391   0.000  0.00  0.00    -0.294 N 
ATOM     18  C   UNL     1       0.944   0.161   0.000  0.00  0.00    +0.133 C 
ATOM     19  C   UNL     1      -0.476  -0.219   0.000  0.00  0.00    +0.202 A 
ATOM     20  N   UNL     1      -0.888  -0.934   0.000  0.00  0.00    -0.126 NA
ATOM     21  N   UNL     1      -0.336  -1.547   0.000  0.00  0.00    -0.133 NA
ENDBRANCH  15  16
ENDBRANCH  13  15
ENDBRANCH   1  13
TORSDOF 5
