REMARK  Name = 
REMARK  6 active torsions:
REMARK  status: ('A' for Active; 'I' for Inactive)
REMARK    1  A    between atoms: C_2  and  O_3
REMARK    2  A    between atoms: O_3  and  C_4
REMARK    3  A    between atoms: C_4  and  C_5
REMARK    4  A    between atoms: C_5  and  N_6
REMARK    5  A    between atoms: C_7  and  C_8
REMARK    6  A    between atoms: C_8  and  N_9
REMARK                            x       y       z     vdW  Elec       q    Type
REMARK                         _______ _______ _______ _____ _____    ______ ____
ROOT
ATOM      1  N   UNL     1       6.054   0.163   0.000  0.00  0.00    -0.306 N 
ATOM      2  C   UNL     1       6.141  -0.657   0.000  0.00  0.00    +0.154 A 
ATOM      3  C   UNL     1       6.947  -0.829   0.000  0.00  0.00    +0.169 A 
ATOM      4  N   UNL     1       7.202  -1.613   0.000  0.00  0.00    -0.261 N 
ATOM      5  C   UNL     1       6.650  -2.227   0.000  0.00  0.00    +0.354 A 
ATOM      6  N   UNL     1       5.843  -2.055   0.000  0.00  0.00    -0.152 NA
ATOM      7  O   UNL     1       6.905  -3.011   0.000  0.00  0.00    -0.244 OA
ATOM      8  C   UNL     1       8.009  -1.785   0.000  0.00  0.00    +0.137 C 
ATOM      9  N   UNL     1       7.360  -0.114   0.000  0.00  0.00    -0.212 NA
ATOM     10  C   UNL     1       5.588  -1.270   0.000  0.00  0.00    +0.302 A 
ATOM     11  O   UNL     1       4.782  -1.099   0.000  0.00  0.00    -0.263 OA
ATOM     12  C   UNL     1       6.808   0.499   0.000  0.00  0.00    +0.139 A 
ENDROOT
BRANCH  12  13
ATOM     13  C   UNL     1       6.979   1.306   0.000  0.00  0.00    +0.137 C 
BRANCH  13  14
ATOM     14  N   UNL     1       7.764   1.561   0.000  0.00  0.00    -0.262 NA
ATOM     15  C   UNL     1       8.377   1.009   0.000  0.00  0.00    +0.105 C 
ATOM     16  C   UNL     1       9.162   1.264   0.000  0.00  0.00    +0.159 C 
ATOM     17  O   UNL     1       9.333   2.071   0.000  0.00  0.00    -0.351 OA
ATOM     18  C   UNL     1       8.720   2.623   0.000  0.00  0.00    +0.159 C 
ATOM     19  C   UNL     1       7.936   2.368   0.000  0.00  0.00    +0.105 C 
ENDBRANCH  13  14
ENDBRANCH  12  13
BRANCH   1  20
ATOM     20  C   UNL     1       5.340   0.576   0.000  0.00  0.00    +0.139 C 
BRANCH  20  21
ATOM     21  C   UNL     1       4.625   0.163   0.000  0.00  0.00    +0.167 C 
BRANCH  21  22
ATOM     22  O   UNL     1       3.911   0.576   0.000  0.00  0.00    -0.352 OA
BRANCH  22  24
ATOM     23  C   UNL     1       2.482   0.576   0.000  0.00  0.00    +0.035 C 
ATOM     24  C   UNL     1       3.196   0.163   0.000  0.00  0.00    +0.142 C 
ENDBRANCH  22  24
ENDBRANCH  21  22
ENDBRANCH  20  21
ENDBRANCH   1  20
TORSDOF 6
