REMARK  Name = 
REMARK  4 active torsions:
REMARK  status: ('A' for Active; 'I' for Inactive)
REMARK    1  A    between atoms: C_2  and  C_4
REMARK    2  A    between atoms: N_7  and  C_8
REMARK    3  A    between atoms: C_8  and  C_9
REMARK    4  A    between atoms: N_11  and  C_12
REMARK                            x       y       z     vdW  Elec       q    Type
REMARK                         _______ _______ _______ _____ _____    ______ ____
ROOT
ATOM      1  C   UNL     1       1.854  -4.474   0.000  0.00  0.00    +0.214 C 
ENDROOT
BRANCH   1   4
ATOM      2  C   UNL     1       2.751  -2.537   0.000  0.00  0.00    +0.119 A 
ATOM      3  C   UNL     1       2.084  -3.022   0.000  0.00  0.00    +0.104 A 
ATOM      4  N   UNL     1       2.339  -3.806   0.000  0.00  0.00    -0.240 N 
ATOM      5  N   UNL     1       3.164  -3.806   0.000  0.00  0.00    -0.167 NA
ATOM      6  C   UNL     1       3.419  -3.022   0.000  0.00  0.00    +0.128 A 
BRANCH   2   8
ATOM      7  O   UNL     1       3.466  -1.299   0.000  0.00  0.00    -0.240 OA
ATOM      8  C   UNL     1       2.751  -1.712   0.000  0.00  0.00    +0.391 C 
ATOM      9  O   UNL     1       2.037  -1.299   0.000  0.00  0.00    -0.240 OA
ENDBRANCH   2   8
ENDBRANCH   1   4
BRANCH   1  10
ATOM     10  C   UNL     1       1.033  -4.387   0.000  0.00  0.00    +0.266 C 
ATOM     11  N   UNL     1       0.548  -5.055   0.000  0.00  0.00    -0.206 NA
ATOM     12  O   UNL     1       0.698  -3.634   0.000  0.00  0.00    -0.271 OA
BRANCH  11  13
ATOM     13  C   UNL     1      -0.272  -4.969   0.000  0.00  0.00    +0.095 C 
ATOM     14  C   UNL     1      -0.608  -4.215   0.000  0.00  0.00    +0.022 C 
ATOM     15  C   UNL     1      -1.428  -4.129   0.000  0.00  0.00    +0.002 C 
ATOM     16  C   UNL     1      -1.913  -4.796   0.000  0.00  0.00    +0.000 C 
ATOM     17  C   UNL     1      -1.577  -5.550   0.000  0.00  0.00    +0.002 C 
ATOM     18  C   UNL     1      -0.757  -5.636   0.000  0.00  0.00    +0.022 C 
ENDBRANCH  11  13
ENDBRANCH   1  10
TORSDOF 4
