REMARK  Name = 
REMARK  5 active torsions:
REMARK  status: ('A' for Active; 'I' for Inactive)
REMARK    1  A    between atoms: C_4  and  C_5
REMARK    2  A    between atoms: C_5  and  C_6
REMARK    3  A    between atoms: C_11  and  N_12
REMARK    4  A    between atoms: N_15  and  C_16
REMARK    5  A    between atoms: C_16  and  C_17
REMARK                            x       y       z     vdW  Elec       q    Type
REMARK                         _______ _______ _______ _____ _____    ______ ____
ROOT
ATOM      1  C   UNL     1      -0.253  -3.138   0.000  0.00  0.00    +0.155 C 
ATOM      2  N   UNL     1      -0.081  -2.331   0.000  0.00  0.00    -0.234 N 
ATOM      3  C   UNL     1       0.672  -1.996   0.000  0.00  0.00    +0.154 A 
ATOM      4  C   UNL     1       0.586  -1.175   0.000  0.00  0.00    +0.052 A 
ATOM      5  C   UNL     1      -0.221  -1.004   0.000  0.00  0.00    +0.081 A 
ATOM      6  N   UNL     1      -0.633  -1.718   0.000  0.00  0.00    -0.172 NA
ENDROOT
BRANCH   3   7
ATOM      7  N   UNL     1       1.387  -2.408   0.000  0.00  0.00    -0.142 NA
ATOM      8  C   UNL     1       2.102  -1.996   0.000  0.00  0.00    +0.345 C 
ATOM      9  N   UNL     1       2.816  -2.408   0.000  0.00  0.00    -0.184 NA
ATOM     10  O   UNL     1       2.102  -1.171   0.000  0.00  0.00    -0.249 OA
BRANCH   9  11
ATOM     11  C   UNL     1       3.530  -1.996   0.000  0.00  0.00    +0.146 C 
BRANCH  11  12
ATOM     12  C   UNL     1       4.245  -2.408   0.000  0.00  0.00    +0.137 C 
ATOM     13  O   UNL     1       4.331  -3.229   0.000  0.00  0.00    -0.354 OA
ATOM     14  C   UNL     1       5.138  -3.400   0.000  0.00  0.00    +0.142 C 
ATOM     15  C   UNL     1       5.551  -2.686   0.000  0.00  0.00    +0.035 C 
ATOM     16  C   UNL     1       4.999  -2.073   0.000  0.00  0.00    +0.034 C 
ENDBRANCH  11  12
ENDBRANCH   9  11
ENDBRANCH   3   7
BRANCH   5  17
ATOM     17  C   UNL     1      -0.556  -0.250   0.000  0.00  0.00    +0.048 C 
BRANCH  17  18
ATOM     18  C   UNL     1      -1.377  -0.164   0.000  0.00  0.00    +0.006 C 
ATOM     19  C   UNL     1      -1.290   0.657   0.000  0.00  0.00    +0.000 C 
ATOM     20  C   UNL     1      -1.463  -0.984   0.000  0.00  0.00    +0.000 C 
ATOM     21  C   UNL     1      -2.197  -0.078   0.000  0.00  0.00    +0.000 C 
ENDBRANCH  17  18
ENDBRANCH   5  17
TORSDOF 5
