REMARK  Name = 
REMARK  7 active torsions:
REMARK  status: ('A' for Active; 'I' for Inactive)
REMARK    1  A    between atoms: C_2  and  C_3
REMARK    2  A    between atoms: C_3  and  N_4
REMARK    3  A    between atoms: N_12  and  C_13
REMARK    4  A    between atoms: C_13  and  C_14
REMARK    5  A    between atoms: C_14  and  C_15
REMARK    6  A    between atoms: C_15  and  O_16
REMARK    7  A    between atoms: O_16  and  C_17
REMARK                            x       y       z     vdW  Elec       q    Type
REMARK                         _______ _______ _______ _____ _____    ______ ____
ROOT
ATOM      1  O   UNL     1       3.572  -6.188   0.000  0.00  0.00    -0.271 OA
ATOM      2  C   UNL     1       3.572  -5.362   0.000  0.00  0.00    +0.265 C 
ATOM      3  N   UNL     1       4.287  -4.950   0.000  0.00  0.00    -0.204 NA
ENDROOT
BRANCH   3   4
ATOM      4  C   UNL     1       5.001  -5.362   0.000  0.00  0.00    +0.118 C 
BRANCH   4   5
ATOM      5  C   UNL     1       5.716  -4.950   0.000  0.00  0.00    +0.055 C 
BRANCH   5   6
ATOM      6  C   UNL     1       6.430  -5.362   0.000  0.00  0.00    +0.144 C 
BRANCH   6   7
ATOM      7  O   UNL     1       7.145  -4.950   0.000  0.00  0.00    -0.356 OA
BRANCH   7   8
ATOM      8  C   UNL     1       7.859  -5.362   0.000  0.00  0.00    +0.115 C 
ATOM      9  C   UNL     1       7.859  -6.188   0.000  0.00  0.00    +0.030 C 
ATOM     10  C   UNL     1       8.574  -6.600   0.000  0.00  0.00    +0.002 C 
ATOM     11  C   UNL     1       9.288  -6.188   0.000  0.00  0.00    +0.000 C 
ATOM     12  C   UNL     1       9.288  -5.362   0.000  0.00  0.00    +0.002 C 
ATOM     13  C   UNL     1       8.574  -4.950   0.000  0.00  0.00    +0.030 C 
ENDBRANCH   7   8
ENDBRANCH   6   7
ENDBRANCH   5   6
ENDBRANCH   4   5
ENDBRANCH   3   4
BRANCH   2  14
ATOM     14  C   UNL     1       2.858  -4.950   0.000  0.00  0.00    +0.197 C 
BRANCH  14  15
ATOM     15  N   UNL     1       2.143  -5.362   0.000  0.00  0.00    -0.269 N 
ATOM     16  C   UNL     1       1.429  -4.950   0.000  0.00  0.00    +0.353 A 
ATOM     17  O   UNL     1       1.429  -4.125   0.000  0.00  0.00    -0.244 OA
ATOM     18  N   UNL     1       0.715  -5.362   0.000  0.00  0.00    -0.153 NA
ATOM     19  C   UNL     1       0.715  -6.188   0.000  0.00  0.00    +0.285 A 
ATOM     20  O   UNL     1       0.000  -6.600   0.000  0.00  0.00    -0.265 OA
ATOM     21  C   UNL     1       1.429  -6.600   0.000  0.00  0.00    +0.081 A 
ATOM     22  C   UNL     1       2.143  -6.188   0.000  0.00  0.00    +0.085 A 
ENDBRANCH  14  15
ENDBRANCH   2  14
TORSDOF 7
