REMARK  Name = 
REMARK  4 active torsions:
REMARK  status: ('A' for Active; 'I' for Inactive)
REMARK    1  A    between atoms: C_2  and  C_3
REMARK    2  A    between atoms: C_3  and  N_4
REMARK    3  A    between atoms: C_6  and  N_7
REMARK    4  A    between atoms: N_10  and  C_11
REMARK                            x       y       z     vdW  Elec       q    Type
REMARK                         _______ _______ _______ _____ _____    ______ ____
ROOT
ATOM      1  N   UNL     1       4.492  -3.548   0.000  0.00  0.00    -0.158 NA
ATOM      2  C   UNL     1       4.157  -4.302   0.000  0.00  0.00    +0.344 C 
ATOM      3  N   UNL     1       4.642  -4.970   0.000  0.00  0.00    -0.186 NA
ATOM      4  O   UNL     1       3.336  -4.388   0.000  0.00  0.00    -0.249 OA
ENDROOT
BRANCH   3   5
ATOM      5  C   UNL     1       4.306  -5.723   0.000  0.00  0.00    +0.124 C 
ATOM      6  C   UNL     1       3.499  -5.895   0.000  0.00  0.00    +0.111 C 
ATOM      7  C   UNL     1       3.236  -5.113   0.000  0.00  0.00    +0.031 C 
ATOM      8  C   UNL     1       2.694  -5.715   0.000  0.00  0.00    +0.031 C 
ATOM      9  O   UNL     1       3.413  -6.715   0.000  0.00  0.00    -0.362 OA
ATOM     10  C   UNL     1       4.167  -7.051   0.000  0.00  0.00    +0.095 C 
ATOM     11  C   UNL     1       3.754  -7.765   0.000  0.00  0.00    +0.030 C 
ATOM     12  C   UNL     1       4.834  -7.536   0.000  0.00  0.00    +0.030 C 
ATOM     13  C   UNL     1       4.719  -6.438   0.000  0.00  0.00    +0.051 C 
ENDBRANCH   3   5
BRANCH   1  17
ATOM     14  N   UNL     1       3.595  -1.611   0.000  0.00  0.00    -0.248 N 
ATOM     15  N   UNL     1       2.928  -2.096   0.000  0.00  0.00    -0.166 NA
ATOM     16  C   UNL     1       3.182  -2.881   0.000  0.00  0.00    +0.138 A 
ATOM     17  C   UNL     1       4.007  -2.881   0.000  0.00  0.00    +0.114 A 
ATOM     18  C   UNL     1       4.262  -2.096   0.000  0.00  0.00    +0.113 A 
BRANCH  14  19
ATOM     19  C   UNL     1       3.595  -0.786   0.000  0.00  0.00    +0.128 C 
BRANCH  19  21
ATOM     20  C   UNL     1       2.880   0.451   0.000  0.00  0.00    +0.002 C 
ATOM     21  C   UNL     1       2.880  -0.374   0.000  0.00  0.00    +0.026 C 
ENDBRANCH  19  21
ENDBRANCH  14  19
ENDBRANCH   1  17
TORSDOF 4
