REMARK  Name = 
REMARK  2 active torsions:
REMARK  status: ('A' for Active; 'I' for Inactive)
REMARK    1  A    between atoms: C_1  and  C_4
REMARK    2  A    between atoms: C_7  and  C_16
REMARK                            x       y       z     vdW  Elec       q    Type
REMARK                         _______ _______ _______ _____ _____    ______ ____
ROOT
ATOM      1  C   UNK A   1       4.042   0.154   0.000  0.00  0.00    +0.267 C 
ATOM      2  O   UNK A   1       3.329   0.567   0.000  0.00  0.00    -0.268 OA
ATOM      3  N   PRO A   2       4.042  -0.671   0.000  0.00  0.00    -0.274 N 
ATOM      4  CD  PRO A   2       4.708  -1.154   0.000  0.00  0.00    +0.094 C 
ATOM      5  CG  PRO A   2       4.454  -1.938   0.000  0.00  0.00    +0.023 C 
ATOM      6  CB  PRO A   2       3.629  -1.938   0.000  0.00  0.00    +0.024 C 
ATOM      7  CA  PRO A   2       3.375  -1.154   0.000  0.00  0.00    +0.109 C 
ENDROOT
BRANCH   1   8
ATOM      8  C   UNK A   1       4.758   0.567   0.000  0.00  0.00    +0.136 A 
ATOM      9  C   UNK A   1       5.471   0.154   0.000  0.00  0.00    +0.024 A 
ATOM     10  C   UNK A   1       6.188   0.567   0.000  0.00  0.00    +0.005 A 
ATOM     11  C   UNK A   1       6.188   1.392   0.000  0.00  0.00    +0.038 A 
ATOM     12  C   UNK A   1       5.471   1.804   0.000  0.00  0.00    +0.170 A 
ATOM     13  N   UNK A   1       5.471   2.629   0.000  0.00  0.00    -0.107 NA
ATOM     14  N   UNK A   1       4.758   1.392   0.000  0.00  0.00    -0.223 NA
ENDBRANCH   1   8
BRANCH   7  15
ATOM     15  C   PRO A   2       2.592  -0.900   0.000  0.00  0.00    +0.202 C 
ATOM     16  O   PRO A   2       1.979  -1.450   0.000  0.00  0.00    -0.219 OA
ENDBRANCH   7  15
TORSDOF 2
REMARK  Name = 
REMARK  2 active torsions:
REMARK  status: ('A' for Active; 'I' for Inactive)
REMARK    1  A    between atoms: C_1  and  C_4
REMARK    2  A    between atoms: C_7  and  C_16
REMARK                            x       y       z     vdW  Elec       q    Type
REMARK                         _______ _______ _______ _____ _____    ______ ____
ROOT
ATOM      1 CL   UNL     1       0.000   0.000   0.000  0.00  0.00    +0.000 Cl
ENDROOT
TORSDOF 0
