REMARK  Name = 
REMARK  4 active torsions:
REMARK  status: ('A' for Active; 'I' for Inactive)
REMARK    1  A    between atoms: C_3  and  C_5
REMARK    2  A    between atoms: C_5  and  N_6
REMARK    3  A    between atoms: C_8  and  S_13
REMARK    4  A    between atoms: S_13  and  N_16
REMARK                            x       y       z     vdW  Elec       q    Type
REMARK                         _______ _______ _______ _____ _____    ______ ____
ROOT
ATOM      1  N   UNL     1      -1.322   5.590   0.000  0.00  0.00    -0.284 N 
ATOM      2  C   UNL     1      -2.037   6.003   0.000  0.00  0.00    +0.261 A 
ATOM      3  O   UNL     1      -2.037   6.828   0.000  0.00  0.00    -0.267 OA
ATOM      4  C   UNL     1      -2.751   5.590   0.000  0.00  0.00    +0.062 A 
ATOM      5  C   UNL     1      -2.751   4.765   0.000  0.00  0.00    +0.026 A 
ATOM      6  C   UNL     1      -2.037   4.353   0.000  0.00  0.00    +0.140 A 
ATOM      7  C   UNL     1      -1.322   4.765   0.000  0.00  0.00    +0.099 A 
ENDROOT
BRANCH   6   8
ATOM      8  S   UNL     1      -2.037   3.528   0.000  0.00  0.00    +0.065 S 
ATOM      9  O   UNL     1      -1.212   3.528   0.000  0.00  0.00    -0.153 OA
ATOM     10  O   UNL     1      -2.862   3.528   0.000  0.00  0.00    -0.153 OA
BRANCH   8  11
ATOM     11  N   UNL     1      -2.037   2.703   0.000  0.00  0.00    -0.155 NA
ATOM     12  C   UNL     1      -2.704   2.218   0.000  0.00  0.00    +0.096 C 
ATOM     13  C   UNL     1      -2.449   1.433   0.000  0.00  0.00    +0.021 C 
ATOM     14  C   UNL     1      -1.624   1.433   0.000  0.00  0.00    +0.021 C 
ATOM     15  C   UNL     1      -1.369   2.218   0.000  0.00  0.00    +0.096 C 
ENDBRANCH   8  11
ENDBRANCH   6   8
BRANCH   1  16
ATOM     16  C   UNL     1      -0.608   6.003   0.000  0.00  0.00    +0.196 C 
BRANCH  16  19
ATOM     17  C   UNL     1       0.107   8.065   0.000  0.00  0.00    +0.139 C 
ATOM     18  N   UNL     1       0.107   7.240   0.000  0.00  0.00    -0.202 NA
ATOM     19  C   UNL     1      -0.608   6.828   0.000  0.00  0.00    +0.265 C 
ATOM     20  O   UNL     1      -1.322   7.240   0.000  0.00  0.00    -0.271 OA
ENDBRANCH  16  19
ENDBRANCH   1  16
TORSDOF 4
