REMARK  Name = 
REMARK  6 active torsions:
REMARK  status: ('A' for Active; 'I' for Inactive)
REMARK    1  A    between atoms: N_2  and  C_14
REMARK    2  A    between atoms: C_3  and  N_8
REMARK    3  A    between atoms: C_6  and  N_8
REMARK    4  A    between atoms: C_11  and  O_21
REMARK    5  A    between atoms: C_14  and  C_15
REMARK    6  A    between atoms: C_15  and  C_17
REMARK                            x       y       z     vdW  Elec       q    Type
REMARK                         _______ _______ _______ _____ _____    ______ ____
ROOT
ATOM      1  C   UNL     1      -1.221   0.708   0.000  0.00  0.00    +0.149 A 
ATOM      2  N   UNL     1      -0.608   1.258   0.000  0.00  0.00    -0.219 NA
ATOM      3  C   UNL     1      -0.946   2.013   0.000  0.00  0.00    +0.180 A 
ATOM      4  N   UNL     1      -1.767   1.925   0.000  0.00  0.00    -0.292 N 
ATOM      5  C   UNL     1      -1.938   1.121   0.000  0.00  0.00    +0.167 A 
ATOM      6  N   UNL     1      -2.650   0.708   0.000  0.00  0.00    -0.205 NA
ATOM      7  C   UNL     1      -2.650  -0.117   0.000  0.00  0.00    +0.201 A 
ATOM      8  N   UNL     1      -1.938  -0.529   0.000  0.00  0.00    -0.207 NA
ATOM      9  C   UNL     1      -1.221  -0.117   0.000  0.00  0.00    +0.154 A 
ENDROOT
BRANCH   9  10
ATOM     10  N   UNL     1      -0.508  -0.529   0.000  0.00  0.00    -0.292 N 
ATOM     11  C   UNL     1       0.208  -0.117   0.000  0.00  0.00    +0.114 C 
BRANCH  10  12
ATOM     12  C   UNL     1      -0.508  -1.354   0.000  0.00  0.00    +0.079 C 
ATOM     13  C   UNL     1      -1.092  -1.942   0.000  0.00  0.00    +0.049 C 
ATOM     14  C   UNL     1      -0.508  -2.525   0.000  0.00  0.00    +0.118 C 
ATOM     15  C   UNL     1       0.075  -1.942   0.000  0.00  0.00    +0.042 C 
ATOM     16  C   UNL     1       0.658  -2.525   0.000  0.00  0.00    +0.004 C 
ATOM     17  C   UNL     1       1.242  -1.942   0.000  0.00  0.00    +0.000 C 
ATOM     18  C   UNL     1       0.658  -1.354   0.000  0.00  0.00    +0.004 C 
BRANCH  14  19
ATOM     19  O   UNL     1      -0.508  -3.350   0.000  0.00  0.00    -0.353 OA
ATOM     20  C   UNL     1       0.208  -3.763   0.000  0.00  0.00    +0.174 C 
ENDBRANCH  14  19
ENDBRANCH  10  12
ENDBRANCH   9  10
BRANCH   4  21
ATOM     21  C   UNL     1      -2.317   2.538   0.000  0.00  0.00    +0.144 C 
BRANCH  21  22
ATOM     22  C   UNL     1      -3.125   2.367   0.000  0.00  0.00    +0.201 C 
ATOM     23  O   UNL     1      -3.379   1.583   0.000  0.00  0.00    -0.218 OA
BRANCH  22  24
ATOM     24  C   UNL     1      -3.675   2.979   0.000  0.00  0.00    +0.147 C 
ATOM     25  C   UNL     1      -4.496   2.896   0.000  0.00  0.00    +0.035 C 
ATOM     26  C   UNL     1      -4.833   3.646   0.000  0.00  0.00    +0.035 C 
ATOM     27  C   UNL     1      -4.217   4.196   0.000  0.00  0.00    +0.142 C 
ATOM     28  O   UNL     1      -3.504   3.788   0.000  0.00  0.00    -0.354 OA
ENDBRANCH  22  24
ENDBRANCH  21  22
ENDBRANCH   4  21
TORSDOF 6
