REMARK  Name = 
REMARK  6 active torsions:
REMARK  status: ('A' for Active; 'I' for Inactive)
REMARK    1  A    between atoms: C_2  and  C_3
REMARK    2  A    between atoms: C_3  and  C_4
REMARK    3  A    between atoms: C_3  and  N_16
REMARK    4  A    between atoms: C_4  and  N_5
REMARK    5  A    between atoms: C_6  and  C_8
REMARK    6  A    between atoms: C_8  and  C_9
REMARK                            x       y       z     vdW  Elec       q    Type
REMARK                         _______ _______ _______ _____ _____    ______ ____
ROOT
ATOM      1  N   UNL     1       2.469  -1.040   0.000  0.00  0.00    -0.204 NA
ATOM      2  C   UNL     1       3.183  -0.627   0.000  0.00  0.00    +0.246 C 
ATOM      3  O   UNL     1       3.183   0.198   0.000  0.00  0.00    -0.273 OA
ENDROOT
BRANCH   2   4
ATOM      4  C   UNL     1       3.897  -1.040   0.000  0.00  0.00    +0.117 C 
BRANCH   4   5
ATOM      5  C   UNL     1       4.612  -0.627   0.000  0.00  0.00    +0.037 A 
ATOM      6  C   UNL     1       5.366  -0.963   0.000  0.00  0.00    +0.151 A 
ATOM      7  C   UNL     1       5.537  -1.770   0.000  0.00  0.00    +0.075 C 
ATOM      8  O   UNL     1       5.918  -0.349   0.000  0.00  0.00    -0.358 OA
ATOM      9  N   UNL     1       5.505   0.365   0.000  0.00  0.00    -0.082 NA
ATOM     10  C   UNL     1       4.698   0.193   0.000  0.00  0.00    +0.097 A 
ATOM     11  C   UNL     1       4.085   0.746   0.000  0.00  0.00    +0.055 C 
ENDBRANCH   4   5
ENDBRANCH   2   4
BRANCH   1  12
ATOM     12  C   UNL     1       1.754  -0.627   0.000  0.00  0.00    +0.131 C 
BRANCH  12  13
ATOM     13  C   UNL     1       1.040  -1.040   0.000  0.00  0.00    +0.079 C 
BRANCH  13  14
ATOM     14  N   UNL     1       0.325  -0.627   0.000  0.00  0.00    -0.272 NA
ATOM     15  C   UNL     1       0.239   0.193   0.000  0.00  0.00    +0.072 C 
ATOM     16  C   UNL     1      -0.568   0.365   0.000  0.00  0.00    +0.019 C 
ATOM     17  C   UNL     1      -0.981  -0.349   0.000  0.00  0.00    +0.019 C 
ATOM     18  C   UNL     1      -0.429  -0.963   0.000  0.00  0.00    +0.072 C 
ENDBRANCH  13  14
BRANCH  13  20
ATOM     19  C   UNL     1       0.325  -2.277   0.000  0.00  0.00    +0.001 C 
ATOM     20  C   UNL     1       1.040  -1.865   0.000  0.00  0.00    +0.018 C 
ENDBRANCH  13  20
ENDBRANCH  12  13
ENDBRANCH   1  12
TORSDOF 6
