REMARK  Name = 
REMARK  5 active torsions:
REMARK  status: ('A' for Active; 'I' for Inactive)
REMARK    1  A    between atoms: C_2  and  N_5
REMARK    2  A    between atoms: C_6  and  C_8
REMARK    3  A    between atoms: C_8  and  N_9
REMARK    4  A    between atoms: C_11  and  C_12
REMARK    5  A    between atoms: C_12  and  C_13
REMARK                            x       y       z     vdW  Elec       q    Type
REMARK                         _______ _______ _______ _____ _____    ______ ____
ROOT
ATOM      1  C   UNL     1       0.568   1.939   0.000  0.00  0.00    +0.214 C 
ENDROOT
BRANCH   1   2
ATOM      2  N   UNL     1       0.568   1.114   0.000  0.00  0.00    -0.240 N 
ATOM      3  N   UNL     1      -0.100   0.629   0.000  0.00  0.00    -0.168 NA
ATOM      4  C   UNL     1       0.155  -0.155   0.000  0.00  0.00    +0.117 A 
ATOM      5  C   UNL     1       0.980  -0.155   0.000  0.00  0.00    +0.020 A 
ATOM      6  C   UNL     1       1.235   0.629   0.000  0.00  0.00    +0.093 A 
BRANCH   5   7
ATOM      7  C   UNL     1       1.465  -0.823   0.000  0.00  0.00    +0.065 C 
BRANCH   7   8
ATOM      8  C   UNL     1       1.130  -1.576   0.000  0.00  0.00    +0.187 C 
ATOM      9  O   UNL     1       1.615  -2.244   0.000  0.00  0.00    -0.220 OA
ENDBRANCH   7   8
ENDBRANCH   5   7
ENDBRANCH   1   2
BRANCH   1  11
ATOM     10  N   UNL     1      -0.147   3.177   0.000  0.00  0.00    -0.207 NA
ATOM     11  C   UNL     1      -0.147   2.352   0.000  0.00  0.00    +0.266 C 
ATOM     12  O   UNL     1      -0.861   1.939   0.000  0.00  0.00    -0.271 OA
BRANCH  10  14
ATOM     13  C   UNL     1      -1.576   4.002   0.000  0.00  0.00    +0.022 C 
ATOM     14  C   UNL     1      -0.861   3.589   0.000  0.00  0.00    +0.079 C 
ATOM     15  C   UNL     1      -0.449   4.304   0.000  0.00  0.00    +0.022 C 
ATOM     16  C   UNL     1      -1.274   2.875   0.000  0.00  0.00    +0.022 C 
ENDBRANCH  10  14
ENDBRANCH   1  11
TORSDOF 5
