REMARK  Name = 
REMARK  4 active torsions:
REMARK  status: ('A' for Active; 'I' for Inactive)
REMARK    1  A    between atoms: C_2  and  C_3
REMARK    2  A    between atoms: C_3  and  N_4
REMARK    3  A    between atoms: N_12  and  C_13
REMARK    4  A    between atoms: C_13  and  C_14
REMARK                            x       y       z     vdW  Elec       q    Type
REMARK                         _______ _______ _______ _____ _____    ______ ____
ROOT
ATOM      1  O   UNL     1       1.429  -0.825   0.000  0.00  0.00    -0.271 OA
ATOM      2  C   UNL     1       1.429  -1.650   0.000  0.00  0.00    +0.265 C 
ATOM      3  N   UNL     1       2.143  -2.062   0.000  0.00  0.00    -0.204 NA
ENDROOT
BRANCH   3   4
ATOM      4  C   UNL     1       2.858  -1.650   0.000  0.00  0.00    +0.118 C 
BRANCH   4   5
ATOM      5  C   UNL     1       3.572  -2.062   0.000  0.00  0.00    +0.054 C 
ATOM      6  C   UNL     1       3.659  -2.883   0.000  0.00  0.00    +0.144 C 
ATOM      7  O   UNL     1       4.466  -3.054   0.000  0.00  0.00    -0.354 OA
ATOM      8  C   UNL     1       4.878  -2.340   0.000  0.00  0.00    +0.142 C 
ATOM      9  C   UNL     1       4.326  -1.727   0.000  0.00  0.00    +0.036 C 
ENDBRANCH   4   5
ENDBRANCH   3   4
BRANCH   2  10
ATOM     10  C   UNL     1       0.715  -2.062   0.000  0.00  0.00    +0.197 C 
BRANCH  10  11
ATOM     11  N   UNL     1       0.000  -1.650   0.000  0.00  0.00    -0.269 N 
ATOM     12  C   UNL     1       0.000  -0.825   0.000  0.00  0.00    +0.353 A 
ATOM     13  O   UNL     1       0.715  -0.412   0.000  0.00  0.00    -0.244 OA
ATOM     14  N   UNL     1      -0.715  -0.412   0.000  0.00  0.00    -0.153 NA
ATOM     15  C   UNL     1      -1.429  -0.825   0.000  0.00  0.00    +0.285 A 
ATOM     16  O   UNL     1      -2.143  -0.412   0.000  0.00  0.00    -0.265 OA
ATOM     17  C   UNL     1      -1.429  -1.650   0.000  0.00  0.00    +0.081 A 
ATOM     18  C   UNL     1      -0.715  -2.062   0.000  0.00  0.00    +0.085 A 
ENDBRANCH  10  11
ENDBRANCH   2  10
TORSDOF 4
