REMARK  Name = 
REMARK  4 active torsions:
REMARK  status: ('A' for Active; 'I' for Inactive)
REMARK    1  A    between atoms: C_7  and  N_8
REMARK    2  A    between atoms: N_11  and  CA_12
REMARK    3  A    between atoms: CA_12  and  C_13
REMARK    4  A    between atoms: CA_12  and  C_15
REMARK                            x       y       z     vdW  Elec       q    Type
REMARK                         _______ _______ _______ _____ _____    ______ ____
ROOT
ATOM      1  C   UNL     1       2.968  -1.841   0.000  0.00  0.00    +0.054 C 
ATOM      2  C   UNL     1       2.143  -1.841   0.000  0.00  0.00    +0.076 A 
ATOM      3  C   UNL     1       1.731  -1.127   0.000  0.00  0.00    +0.089 A 
ATOM      4  C   UNL     1       0.906  -1.127   0.000  0.00  0.00    +0.021 A 
ATOM      5  C   UNL     1       0.493  -1.841   0.000  0.00  0.00    +0.036 A 
ATOM      6  C   UNL     1       0.906  -2.556   0.000  0.00  0.00    +0.131 A 
ATOM      7  N   UNL     1       0.493  -3.270   0.000  0.00  0.00    -0.293 N 
ATOM      8  C   UNL     1      -0.327  -3.357   0.000  0.00  0.00    +0.092 C 
ATOM      9  C   UNL     1      -0.499  -4.164   0.000  0.00  0.00    +0.023 C 
ATOM     10  C   UNL     1       0.216  -4.576   0.000  0.00  0.00    +0.023 C 
ATOM     11  C   UNL     1       0.829  -4.024   0.000  0.00  0.00    +0.092 C 
ATOM     12  N   UNL     1       1.731  -2.556   0.000  0.00  0.00    -0.234 NA
ENDROOT
BRANCH   3  13
ATOM     13  N   UNL     1       2.143  -0.412   0.000  0.00  0.00    -0.160 NA
ATOM     14  C   UNL     1       2.968  -0.412   0.000  0.00  0.00    +0.344 C 
ATOM     15  N   UNL     1       3.381   0.302   0.000  0.00  0.00    -0.186 NA
ATOM     16  O   UNL     1       3.381  -1.127   0.000  0.00  0.00    -0.249 OA
BRANCH  15  17
ATOM     17  CA  UNL     1       4.206   0.302   0.000  0.00  0.00    +0.130 C 
BRANCH  17  18
ATOM     18  C   UNL     1       4.618  -0.412   0.000  0.00  0.00    +0.021 C 
ATOM     19  C   UNL     1       5.031  -1.127   0.000  0.00  0.00    +0.002 C 
ATOM     20  C   UNL     1       5.333   0.000   0.000  0.00  0.00    +0.002 C 
ATOM     21  C   UNL     1       3.904  -0.825   0.000  0.00  0.00    +0.002 C 
ENDBRANCH  17  18
BRANCH  17  22
ATOM     22  C   UNL     1       4.618   1.016   0.000  0.00  0.00    +0.204 C 
ATOM     23  O   UNL     1       5.443   1.016   0.000  0.00  0.00    -0.219 OA
ENDBRANCH  17  22
ENDBRANCH  15  17
ENDBRANCH   3  13
TORSDOF 4
