REMARK  Name = 
REMARK  6 active torsions:
REMARK  status: ('A' for Active; 'I' for Inactive)
REMARK    1  A    between atoms: C_2  and  C_3
REMARK    2  A    between atoms: C_2  and  N_9
REMARK    3  A    between atoms: C_3  and  N_4
REMARK    4  A    between atoms: N_9  and  C_10
REMARK    5  A    between atoms: C_10  and  C_11
REMARK    6  A    between atoms: N_13  and  C_14
REMARK                            x       y       z     vdW  Elec       q    Type
REMARK                         _______ _______ _______ _____ _____    ______ ____
ROOT
ATOM      1  C   UNL     1       1.847  -0.386   0.000  0.00  0.00    +0.021 C 
ATOM      2  C   UNL     1       1.847  -1.211   0.000  0.00  0.00    +0.098 C 
ENDROOT
BRANCH   2   3
ATOM      3  N   UNL     1       2.561  -1.624   0.000  0.00  0.00    -0.208 NA
BRANCH   3   4
ATOM      4  C   UNL     1       3.276  -1.211   0.000  0.00  0.00    +0.175 C 
BRANCH   4   5
ATOM      5  C   UNL     1       3.990  -1.624   0.000  0.00  0.00    +0.259 C 
ATOM      6  N   UNL     1       4.704  -1.211   0.000  0.00  0.00    -0.206 NA
ATOM      7  O   UNL     1       3.990  -2.449   0.000  0.00  0.00    -0.272 OA
BRANCH   6   8
ATOM      8  C   UNL     1       5.419  -1.624   0.000  0.00  0.00    +0.095 C 
ATOM      9  C   UNL     1       5.831  -2.338   0.000  0.00  0.00    +0.023 C 
ATOM     10  C   UNL     1       6.244  -1.624   0.000  0.00  0.00    +0.023 C 
ENDBRANCH   6   8
ENDBRANCH   4   5
ENDBRANCH   3   4
ENDBRANCH   2   3
BRANCH   2  11
ATOM     11  C   UNL     1       1.132  -1.624   0.000  0.00  0.00    +0.145 C 
BRANCH  11  12
ATOM     12  N   UNL     1       0.418  -1.211   0.000  0.00  0.00    -0.248 N 
ATOM     13  N   UNL     1       0.331  -0.391   0.000  0.00  0.00    -0.168 NA
ATOM     14  C   UNL     1      -0.476  -0.219   0.000  0.00  0.00    +0.122 A 
ATOM     15  C   UNL     1      -0.888  -0.934   0.000  0.00  0.00    +0.043 A 
ATOM     16  C   UNL     1      -0.336  -1.547   0.000  0.00  0.00    +0.097 A 
ENDBRANCH  11  12
ENDBRANCH   2  11
TORSDOF 6
