REMARK  Name = 
REMARK  1 active torsions:
REMARK  status: ('A' for Active; 'I' for Inactive)
REMARK    1  A    between atoms: N_9  and  C_10
REMARK                            x       y       z     vdW  Elec       q    Type
REMARK                         _______ _______ _______ _____ _____    ______ ____
ROOT
ATOM      1  C   UNL     1      -0.949   3.335   0.000  0.00  0.00    +0.033 C 
ATOM      2  C   UNL     1      -0.138   3.182   0.000  0.00  0.00    -0.003 A 
ATOM      3  C   UNL     1       0.135   2.404   0.000  0.00  0.00    +0.096 A 
ATOM      4  N   UNL     1       0.945   2.251   0.000  0.00  0.00    -0.228 NA
ATOM      5  C   UNL     1       1.483   2.876   0.000  0.00  0.00    +0.156 A 
ATOM      6  N   UNL     1       2.294   2.723   0.000  0.00  0.00    -0.142 NA
ATOM      7  C   UNL     1       2.567   1.944   0.000  0.00  0.00    +0.345 C 
ATOM      8  N   UNL     1       3.377   1.792   0.000  0.00  0.00    -0.189 NA
ATOM      9  O   UNL     1       2.029   1.319   0.000  0.00  0.00    -0.249 OA
ATOM     10  C   UNL     1       1.210   3.655   0.000  0.00  0.00    +0.036 A 
ATOM     11  C   UNL     1       0.400   3.808   0.000  0.00  0.00    +0.000 A 
ENDROOT
BRANCH   8  12
ATOM     12  C   UNL     1       3.650   1.013   0.000  0.00  0.00    +0.101 C 
ATOM     13  C   UNL     1       3.292   0.269   0.000  0.00  0.00    +0.044 C 
ATOM     14  C   UNL     1       2.614   0.739   0.000  0.00  0.00    +0.004 C 
ATOM     15  C   UNL     1       1.958   0.239   0.000  0.00  0.00    +0.000 C 
ATOM     16  C   UNL     1       2.231  -0.540   0.000  0.00  0.00    +0.000 C 
ATOM     17  C   UNL     1       3.055  -0.521   0.000  0.00  0.00    +0.004 C 
ATOM     18  C   UNL     1       4.036  -0.088   0.000  0.00  0.00    +0.118 C 
ATOM     19  O   UNL     1       4.632  -0.658   0.000  0.00  0.00    -0.356 OA
ATOM     20  C   UNL     1       5.359  -0.267   0.000  0.00  0.00    +0.142 C 
ATOM     21  C   UNL     1       5.211   0.545   0.000  0.00  0.00    +0.036 C 
ATOM     22  C   UNL     1       4.394   0.655   0.000  0.00  0.00    +0.050 C 
ENDBRANCH   8  12
TORSDOF 1
