REMARK  Name = 
REMARK  2 active torsions:
REMARK  status: ('A' for Active; 'I' for Inactive)
REMARK    1  A    between atoms: C_2  and  N_3
REMARK    2  A    between atoms: C_2  and  C_13
REMARK                            x       y       z     vdW  Elec       q    Type
REMARK                         _______ _______ _______ _____ _____    ______ ____
ROOT
ATOM      1  N   UNL     1       2.143  -1.238   0.000  0.00  0.00    -0.179 NA
ATOM      2  C   UNL     1       1.429  -1.650   0.000  0.00  0.00    +0.345 C 
ATOM      3  N   UNL     1       0.715  -1.238   0.000  0.00  0.00    -0.142 NA
ATOM      4  C   UNL     1       0.000  -1.650   0.000  0.00  0.00    +0.156 A 
ATOM      5  N   UNL     1      -0.715  -1.238   0.000  0.00  0.00    -0.227 NA
ATOM      6  C   UNL     1      -1.429  -1.650   0.000  0.00  0.00    +0.100 A 
ATOM      7  C   UNL     1      -1.429  -2.475   0.000  0.00  0.00    +0.021 A 
ATOM      8  C   UNL     1      -0.715  -2.888   0.000  0.00  0.00    +0.005 A 
ATOM      9  C   UNL     1       0.000  -2.475   0.000  0.00  0.00    +0.036 A 
ATOM     10  O   UNL     1       1.429  -2.475   0.000  0.00  0.00    -0.249 OA
ENDROOT
BRANCH   1  12
ATOM     11  C   UNL     1       2.858  -2.475   0.000  0.00  0.00    +0.033 C 
ATOM     12  C   UNL     1       2.858  -1.650   0.000  0.00  0.00    +0.173 C 
BRANCH  12  13
ATOM     13  C   UNL     1       3.572  -1.238   0.000  0.00  0.00    +0.246 C 
ATOM     14  N   UNL     1       4.287  -1.650   0.000  0.00  0.00    -0.278 N 
ATOM     15  C   UNL     1       4.373  -2.470   0.000  0.00  0.00    +0.094 C 
ATOM     16  C   UNL     1       5.180  -2.642   0.000  0.00  0.00    +0.023 C 
ATOM     17  C   UNL     1       5.593  -1.927   0.000  0.00  0.00    +0.023 C 
ATOM     18  C   UNL     1       5.040  -1.314   0.000  0.00  0.00    +0.094 C 
ATOM     19  O   UNL     1       3.572  -0.412   0.000  0.00  0.00    -0.273 OA
ENDBRANCH  12  13
ENDBRANCH   1  12
TORSDOF 2
