REMARK  Name = 
REMARK  3 active torsions:
REMARK  status: ('A' for Active; 'I' for Inactive)
REMARK    1  A    between atoms: C_2  and  N_3
REMARK    2  A    between atoms: N_4  and  C_13
REMARK    3  A    between atoms: C_13  and  C_15
REMARK                            x       y       z     vdW  Elec       q    Type
REMARK                         _______ _______ _______ _____ _____    ______ ____
ROOT
ATOM      1  C   UNL     1       2.562   0.825   0.000  0.00  0.00    +0.149 A 
ATOM      2  N   UNL     1       1.779   1.083   0.000  0.00  0.00    -0.219 NA
ATOM      3  C   UNL     1       1.292   0.412   0.000  0.00  0.00    +0.180 A 
ATOM      4  N   UNL     1       1.779  -0.254   0.000  0.00  0.00    -0.292 N 
ATOM      5  C   UNL     1       2.562   0.000   0.000  0.00  0.00    +0.167 A 
ATOM      6  N   UNL     1       3.275  -0.412   0.000  0.00  0.00    -0.205 NA
ATOM      7  C   UNL     1       3.992   0.000   0.000  0.00  0.00    +0.201 A 
ATOM      8  N   UNL     1       3.992   0.825   0.000  0.00  0.00    -0.207 NA
ATOM      9  C   UNL     1       3.275   1.238   0.000  0.00  0.00    +0.154 A 
ENDROOT
BRANCH   9  10
ATOM     10  N   UNL     1       3.275   2.062   0.000  0.00  0.00    -0.295 N 
ATOM     11  C   UNL     1       3.946   2.550   0.000  0.00  0.00    +0.074 C 
ATOM     12  C   UNL     1       4.750   2.379   0.000  0.00  0.00    +0.020 C 
ATOM     13  C   UNL     1       5.304   2.992   0.000  0.00  0.00    +0.002 C 
ATOM     14  C   UNL     1       5.050   3.775   0.000  0.00  0.00    +0.000 C 
ATOM     15  C   UNL     1       4.242   3.946   0.000  0.00  0.00    +0.002 C 
ATOM     16  C   UNL     1       3.688   3.333   0.000  0.00  0.00    +0.020 C 
ATOM     17  C   UNL     1       2.862   3.333   0.000  0.00  0.00    +0.021 C 
ATOM     18  C   UNL     1       2.608   2.550   0.000  0.00  0.00    +0.074 C 
ATOM     19  C   UNL     1       1.825   2.296   0.000  0.00  0.00    +0.021 C 
ENDBRANCH   9  10
BRANCH   4  20
ATOM     20  C   UNL     1       1.521  -1.038   0.000  0.00  0.00    +0.142 C 
BRANCH  20  21
ATOM     21  C   UNL     1       2.075  -1.650   0.000  0.00  0.00    +0.177 C 
ATOM     22  C   UNL     1       2.487  -2.367   0.000  0.00  0.00    +0.174 C 
ATOM     23  O   UNL     1       3.296  -2.192   0.000  0.00  0.00    -0.351 OA
ATOM     24  C   UNL     1       3.379  -1.375   0.000  0.00  0.00    +0.145 C 
ATOM     25  O   UNL     1       1.408  -2.138   0.000  0.00  0.00    -0.221 OA
ATOM     26  C   UNL     1       2.625  -1.038   0.000  0.00  0.00    +0.067 C 
ENDBRANCH  20  21
ENDBRANCH   4  20
TORSDOF 3
