REMARK  Name = 
REMARK  7 active torsions:
REMARK  status: ('A' for Active; 'I' for Inactive)
REMARK    1  A    between atoms: C_2  and  C_3
REMARK    2  A    between atoms: C_3  and  C_4
REMARK    3  A    between atoms: C_4  and  N_5
REMARK    4  A    between atoms: N_5  and  S_7
REMARK    5  A    between atoms: S_7  and  N_10
REMARK    6  A    between atoms: N_10  and  C_11
REMARK    7  A    between atoms: C_11  and  C_12
REMARK                            x       y       z     vdW  Elec       q    Type
REMARK                         _______ _______ _______ _____ _____    ______ ____
ROOT
ATOM      1  C   UNL     1       0.715  -1.238   0.000  0.00  0.00    +0.001 A 
ATOM      2  C   UNL     1       0.000  -1.650   0.000  0.00  0.00    +0.032 A 
ATOM      3  C   UNL     1       0.000  -2.475   0.000  0.00  0.00    +0.132 A 
ATOM      4  N   UNL     1      -0.715  -2.888   0.000  0.00  0.00    -0.288 N 
ATOM      5  C   UNL     1      -1.429  -2.475   0.000  0.00  0.00    +0.124 C 
ATOM      6  C   UNL     1      -2.143  -2.888   0.000  0.00  0.00    +0.164 C 
ATOM      7  O   UNL     1      -2.143  -3.712   0.000  0.00  0.00    -0.350 OA
ATOM      8  C   UNL     1      -1.429  -4.125   0.000  0.00  0.00    +0.164 C 
ATOM      9  C   UNL     1      -0.715  -3.712   0.000  0.00  0.00    +0.124 C 
ATOM     10  N   UNL     1       0.715  -2.888   0.000  0.00  0.00    -0.229 NA
ATOM     11  C   UNL     1       1.429  -2.475   0.000  0.00  0.00    +0.100 A 
ATOM     12  C   UNL     1       1.429  -1.650   0.000  0.00  0.00    +0.018 A 
ENDROOT
BRANCH   1  13
ATOM     13  C   UNL     1       0.715  -0.412   0.000  0.00  0.00    +0.143 C 
BRANCH  13  14
ATOM     14  N   UNL     1       1.429   0.000   0.000  0.00  0.00    -0.062 NA
BRANCH  14  15
ATOM     15  S   UNL     1       1.429   0.825   0.000  0.00  0.00    +0.116 S 
ATOM     16  O   UNL     1       2.254   0.825   0.000  0.00  0.00    -0.140 OA
ATOM     17  O   UNL     1       0.604   0.825   0.000  0.00  0.00    -0.140 OA
BRANCH  15  18
ATOM     18  N   UNL     1       1.429   1.650   0.000  0.00  0.00    -0.143 NA
ATOM     19  C   UNL     1       0.715   2.062   0.000  0.00  0.00    +0.116 C 
BRANCH  18  20
ATOM     20  C   UNL     1       2.143   2.062   0.000  0.00  0.00    +0.097 C 
BRANCH  20  21
ATOM     21  C   UNL     1       2.143   2.888   0.000  0.00  0.00    +0.019 C 
BRANCH  21  23
ATOM     22  C   UNL     1       2.858   4.125   0.000  0.00  0.00    +0.000 C 
ATOM     23  C   UNL     1       2.858   3.300   0.000  0.00  0.00    +0.001 C 
ENDBRANCH  21  23
ENDBRANCH  20  21
ENDBRANCH  18  20
ENDBRANCH  15  18
ENDBRANCH  14  15
ENDBRANCH  13  14
ENDBRANCH   1  13
TORSDOF 7
