REMARK  Name = 
REMARK  5 active torsions:
REMARK  status: ('A' for Active; 'I' for Inactive)
REMARK    1  A    between atoms: O_2  and  C_3
REMARK    2  A    between atoms: C_3  and  C_4
REMARK    3  A    between atoms: C_4  and  N_5
REMARK    4  A    between atoms: C_7  and  N_8
REMARK    5  A    between atoms: N_11  and  C_12
REMARK                            x       y       z     vdW  Elec       q    Type
REMARK                         _______ _______ _______ _____ _____    ______ ____
ROOT
ATOM      1  N   UNL     1      -3.572   7.965   0.000  0.00  0.00    -0.290 N 
ATOM      2  C   UNL     1      -4.287   7.553   0.000  0.00  0.00    +0.261 A 
ATOM      3  O   UNL     1      -5.001   7.965   0.000  0.00  0.00    -0.267 OA
ATOM      4  C   UNL     1      -4.287   6.728   0.000  0.00  0.00    +0.062 A 
ATOM      5  C   UNL     1      -3.572   6.315   0.000  0.00  0.00    +0.023 A 
ATOM      6  C   UNL     1      -2.858   6.728   0.000  0.00  0.00    +0.092 A 
ATOM      7  C   UNL     1      -2.858   7.553   0.000  0.00  0.00    +0.095 A 
ENDROOT
BRANCH   6   8
ATOM      8  N   UNL     1      -2.143   6.315   0.000  0.00  0.00    -0.159 NA
ATOM      9  C   UNL     1      -2.143   5.490   0.000  0.00  0.00    +0.343 C 
ATOM     10  N   UNL     1      -1.429   5.078   0.000  0.00  0.00    -0.189 NA
ATOM     11  O   UNL     1      -2.858   5.078   0.000  0.00  0.00    -0.249 OA
BRANCH  10  12
ATOM     12  C   UNL     1      -1.429   4.253   0.000  0.00  0.00    +0.097 C 
ATOM     13  C   UNL     1      -1.841   3.538   0.000  0.00  0.00    +0.023 C 
ATOM     14  C   UNL     1      -1.016   3.538   0.000  0.00  0.00    +0.023 C 
ENDBRANCH  10  12
ENDBRANCH   6   8
BRANCH   1  15
ATOM     15  C   UNL     1      -3.572   8.790   0.000  0.00  0.00    +0.141 C 
BRANCH  15  16
ATOM     16  C   UNL     1      -4.287   9.203   0.000  0.00  0.00    +0.167 C 
BRANCH  16  18
ATOM     17  C   UNL     1      -5.001  10.440   0.000  0.00  0.00    +0.174 C 
ATOM     18  O   UNL     1      -4.287  10.028   0.000  0.00  0.00    -0.349 OA
ENDBRANCH  16  18
ENDBRANCH  15  16
ENDBRANCH   1  15
TORSDOF 5
