REMARK  Name = 
REMARK  4 active torsions:
REMARK  status: ('A' for Active; 'I' for Inactive)
REMARK    1  A    between atoms: C_2  and  C_3
REMARK    2  A    between atoms: C_2  and  N_9
REMARK    3  A    between atoms: C_3  and  N_4
REMARK    4  A    between atoms: C_10  and  C_12
REMARK                            x       y       z     vdW  Elec       q    Type
REMARK                         _______ _______ _______ _____ _____    ______ ____
ROOT
ATOM      1  C   UNL     1       1.847  -0.386   0.000  0.00  0.00    +0.026 C 
ATOM      2  C   UNL     1       1.847  -1.211   0.000  0.00  0.00    +0.120 C 
ENDROOT
BRANCH   2   3
ATOM      3  N   UNL     1       2.561  -1.624   0.000  0.00  0.00    -0.205 NA
ATOM      4  C   UNL     1       3.276  -1.211   0.000  0.00  0.00    +0.241 C 
ATOM      5  O   UNL     1       3.276  -0.386   0.000  0.00  0.00    -0.273 OA
BRANCH   4   6
ATOM      6  C   UNL     1       3.990  -1.624   0.000  0.00  0.00    +0.078 C 
ATOM      7  C   UNL     1       4.204  -2.421   0.000  0.00  0.00    +0.009 C 
ATOM      8  C   UNL     1       5.000  -2.207   0.000  0.00  0.00    +0.001 C 
ATOM      9  C   UNL     1       4.787  -1.410   0.000  0.00  0.00    +0.009 C 
ENDBRANCH   4   6
ENDBRANCH   2   3
BRANCH   2  10
ATOM     10  C   UNL     1       1.132  -1.624   0.000  0.00  0.00    +0.149 C 
BRANCH  10  11
ATOM     11  N   UNL     1       0.418  -1.211   0.000  0.00  0.00    -0.248 N 
ATOM     12  N   UNL     1       0.331  -0.391   0.000  0.00  0.00    -0.168 NA
ATOM     13  C   UNL     1      -0.476  -0.219   0.000  0.00  0.00    +0.122 A 
ATOM     14  C   UNL     1      -0.888  -0.934   0.000  0.00  0.00    +0.043 A 
ATOM     15  C   UNL     1      -0.336  -1.547   0.000  0.00  0.00    +0.097 A 
ENDBRANCH  10  11
ENDBRANCH   2  10
TORSDOF 4
