REMARK  Name = 
REMARK  6 active torsions:
REMARK  status: ('A' for Active; 'I' for Inactive)
REMARK    1  A    between atoms: C_2  and  C_3
REMARK    2  A    between atoms: C_2  and  N_10
REMARK    3  A    between atoms: C_3  and  N_4
REMARK    4  A    between atoms: N_10  and  C_11
REMARK    5  A    between atoms: C_11  and  C_12
REMARK    6  A    between atoms: C_12  and  N_13
REMARK                            x       y       z     vdW  Elec       q    Type
REMARK                         _______ _______ _______ _____ _____    ______ ____
ROOT
ATOM      1  C   UNL     1       3.878  -4.189   0.000  0.00  0.00    +0.021 C 
ATOM      2  C   UNL     1       3.878  -3.364   0.000  0.00  0.00    +0.097 C 
ENDROOT
BRANCH   2   3
ATOM      3  N   UNL     1       4.592  -2.952   0.000  0.00  0.00    -0.216 NA
BRANCH   3   4
ATOM      4  C   UNL     1       5.307  -3.364   0.000  0.00  0.00    +0.110 C 
BRANCH   4   5
ATOM      5  C   UNL     1       6.021  -2.952   0.000  0.00  0.00    +0.112 C 
BRANCH   5   6
ATOM      6  N   UNL     1       6.736  -3.364   0.000  0.00  0.00    -0.278 N 
ATOM      7  C   UNL     1       6.822  -4.185   0.000  0.00  0.00    +0.226 C 
ATOM      8  O   UNL     1       6.209  -4.737   0.000  0.00  0.00    -0.275 OA
ATOM      9  C   UNL     1       7.629  -4.356   0.000  0.00  0.00    +0.087 C 
ATOM     10  C   UNL     1       8.041  -3.642   0.000  0.00  0.00    +0.031 C 
ATOM     11  C   UNL     1       7.489  -3.029   0.000  0.00  0.00    +0.094 C 
ENDBRANCH   5   6
ENDBRANCH   4   5
ENDBRANCH   3   4
ENDBRANCH   2   3
BRANCH   2  12
ATOM     12  C   UNL     1       3.163  -2.952   0.000  0.00  0.00    +0.145 C 
BRANCH  12  13
ATOM     13  N   UNL     1       2.449  -3.364   0.000  0.00  0.00    -0.248 N 
ATOM     14  N   UNL     1       1.695  -3.029   0.000  0.00  0.00    -0.168 NA
ATOM     15  C   UNL     1       1.143  -3.642   0.000  0.00  0.00    +0.117 A 
ATOM     16  C   UNL     1       1.556  -4.356   0.000  0.00  0.00    +0.018 A 
ATOM     17  C   UNL     1       1.220  -5.110   0.000  0.00  0.00    +0.034 C 
ATOM     18  C   UNL     1       2.363  -4.185   0.000  0.00  0.00    +0.092 A 
ENDBRANCH  12  13
ENDBRANCH   2  12
TORSDOF 6
