REMARK  Name = 
REMARK  1 active torsions:
REMARK  status: ('A' for Active; 'I' for Inactive)
REMARK    1  A    between atoms: C_6  and  C_8
REMARK                            x       y       z     vdW  Elec       q    Type
REMARK                         _______ _______ _______ _____ _____    ______ ____
ROOT
ATOM      1  N   UNL     1       0.715  -0.412   0.000  0.00  0.00    -0.086 NA
ATOM      2  C   UNL     1       0.715  -1.238   0.000  0.00  0.00    +0.256 A 
ATOM      3  N   UNL     1       0.000  -1.650   0.000  0.00  0.00    -0.215 NA
ATOM      4  C   UNL     1       0.000  -2.475   0.000  0.00  0.00    +0.065 A 
ATOM      5  C   UNL     1       0.715  -2.888   0.000  0.00  0.00    +0.036 A 
ATOM      6  C   UNL     1       1.429  -2.475   0.000  0.00  0.00    +0.103 A 
ATOM      7  N   UNL     1       1.429  -1.650   0.000  0.00  0.00    -0.210 NA
ENDROOT
BRANCH   4   8
ATOM      8  C   UNL     1      -0.715  -2.888   0.000  0.00  0.00    +0.058 C 
ATOM      9  C   UNL     1      -1.429  -2.475   0.000  0.00  0.00    +0.095 C 
ATOM     10  N   UNL     1      -2.143  -2.888   0.000  0.00  0.00    -0.218 NA
ATOM     11  C   UNL     1      -2.143  -3.712   0.000  0.00  0.00    +0.089 C 
ATOM     12  C   UNL     1      -1.429  -4.125   0.000  0.00  0.00    +0.019 C 
ATOM     13  C   UNL     1      -0.715  -3.712   0.000  0.00  0.00    +0.009 C 
ENDBRANCH   4   8
TORSDOF 1
