REMARK  Name = 
REMARK  4 active torsions:
REMARK  status: ('A' for Active; 'I' for Inactive)
REMARK    1  A    between atoms: C_2  and  N_4
REMARK    2  A    between atoms: C_5  and  C_7
REMARK    3  A    between atoms: C_11  and  N_13
REMARK    4  A    between atoms: N_16  and  C_17
REMARK                            x       y       z     vdW  Elec       q    Type
REMARK                         _______ _______ _______ _____ _____    ______ ____
ROOT
ATOM      1  C   UNL     1      -2.143  -1.238   0.000  0.00  0.00    +0.080 C 
ATOM      2  C   UNL     1      -2.858  -1.650   0.000  0.00  0.00    +0.031 C 
ATOM      3  C   UNL     1      -2.858  -2.475   0.000  0.00  0.00    +0.097 C 
ATOM      4  C   UNL     1      -2.143  -2.888   0.000  0.00  0.00    +0.022 C 
ATOM      5  C   UNL     1      -1.429  -2.475   0.000  0.00  0.00    +0.002 C 
ATOM      6  C   UNL     1      -1.429  -1.650   0.000  0.00  0.00    +0.009 C 
ENDROOT
BRANCH   3   7
ATOM      7  N   UNL     1      -3.572  -2.888   0.000  0.00  0.00    -0.189 NA
ATOM      8  C   UNL     1      -4.287  -2.475   0.000  0.00  0.00    +0.343 C 
ATOM      9  N   UNL     1      -5.001  -2.888   0.000  0.00  0.00    -0.159 NA
ATOM     10  O   UNL     1      -4.287  -1.650   0.000  0.00  0.00    -0.249 OA
BRANCH   9  11
ATOM     11  C   UNL     1      -5.001  -3.712   0.000  0.00  0.00    +0.094 A 
ATOM     12  C   UNL     1      -5.716  -4.125   0.000  0.00  0.00    +0.115 A 
ATOM     13  N   UNL     1      -5.716  -4.950   0.000  0.00  0.00    -0.241 NA
ATOM     14  C   UNL     1      -5.001  -5.362   0.000  0.00  0.00    +0.099 A 
ATOM     15  C   UNL     1      -4.287  -4.950   0.000  0.00  0.00    +0.022 A 
ATOM     16  C   UNL     1      -4.287  -4.125   0.000  0.00  0.00    +0.020 A 
ENDBRANCH   9  11
ENDBRANCH   3   7
BRANCH   1  18
ATOM     17  N   UNL     1      -1.429   0.000   0.000  0.00  0.00    -0.207 NA
ATOM     18  C   UNL     1      -2.143  -0.412   0.000  0.00  0.00    +0.241 C 
ATOM     19  O   UNL     1      -2.858   0.000   0.000  0.00  0.00    -0.273 OA
BRANCH  17  21
ATOM     20  C   UNL     1      -0.715   1.238   0.000  0.00  0.00    +0.023 C 
ATOM     21  C   UNL     1      -1.429   0.825   0.000  0.00  0.00    +0.095 C 
ATOM     22  C   UNL     1      -2.143   1.238   0.000  0.00  0.00    +0.023 C 
ENDBRANCH  17  21
ENDBRANCH   1  18
TORSDOF 4
