REMARK  Name = 
REMARK  5 active torsions:
REMARK  status: ('A' for Active; 'I' for Inactive)
REMARK    1  A    between atoms: C_2  and  C_5
REMARK    2  A    between atoms: C_10  and  N_11
REMARK    3  A    between atoms: C_12  and  C_14
REMARK    4  A    between atoms: C_14  and  O_15
REMARK    5  A    between atoms: O_15  and  C_16
REMARK                            x       y       z     vdW  Elec       q    Type
REMARK                         _______ _______ _______ _____ _____    ______ ____
ROOT
ATOM      1  C   UNL     1      -0.715   2.062   0.000  0.00  0.00    +0.092 A 
ATOM      2  C   UNL     1       0.000   1.650   0.000  0.00  0.00    +0.027 A 
ATOM      3  C   UNL     1       0.715   2.062   0.000  0.00  0.00    +0.131 A 
ATOM      4  C   UNL     1       0.715   2.888   0.000  0.00  0.00    +0.295 A 
ATOM      5  O   UNL     1       1.429   3.300   0.000  0.00  0.00    -0.264 OA
ATOM      6  N   UNL     1       0.000   3.300   0.000  0.00  0.00    -0.205 NA
ATOM      7  C   UNL     1      -0.715   2.888   0.000  0.00  0.00    +0.106 A 
ENDROOT
BRANCH   1   9
ATOM      8  F   UNL     1      -2.143   1.238   0.000  0.00  0.00    -0.166 F 
ATOM      9  C   UNL     1      -1.429   1.650   0.000  0.00  0.00    +0.420 C 
ATOM     10  F   UNL     1      -1.841   2.365   0.000  0.00  0.00    -0.166 F 
ATOM     11  F   UNL     1      -1.016   0.935   0.000  0.00  0.00    -0.166 F 
ENDBRANCH   1   9
BRANCH   3  12
ATOM     12  N   UNL     1       1.429   1.650   0.000  0.00  0.00    -0.172 NA
ATOM     13  C   UNL     1       2.143   2.062   0.000  0.00  0.00    +0.276 C 
ATOM     14  O   UNL     1       2.143   2.888   0.000  0.00  0.00    -0.270 OA
BRANCH  13  15
ATOM     15  C   UNL     1       2.858   1.650   0.000  0.00  0.00    +0.229 C 
BRANCH  15  16
ATOM     16  O   UNL     1       3.572   2.062   0.000  0.00  0.00    -0.347 OA
BRANCH  16  17
ATOM     17  C   UNL     1       4.287   1.650   0.000  0.00  0.00    +0.116 C 
ATOM     18  C   UNL     1       4.373   0.830   0.000  0.00  0.00    +0.030 C 
ATOM     19  C   UNL     1       5.180   0.658   0.000  0.00  0.00    +0.003 C 
ATOM     20  C   UNL     1       5.593   1.373   0.000  0.00  0.00    +0.003 C 
ATOM     21  C   UNL     1       5.040   1.986   0.000  0.00  0.00    +0.030 C 
ENDBRANCH  16  17
ENDBRANCH  15  16
ENDBRANCH  13  15
ENDBRANCH   3  12
TORSDOF 5
