REMARK  Name = 
REMARK  3 active torsions:
REMARK  status: ('A' for Active; 'I' for Inactive)
REMARK    1  A    between atoms: C_2  and  N_3
REMARK    2  A    between atoms: C_4  and  C_6
REMARK    3  A    between atoms: C_16  and  O_18
REMARK                            x       y       z     vdW  Elec       q    Type
REMARK                         _______ _______ _______ _____ _____    ______ ____
ROOT
ATOM      1  C   UNL     1       0.715  -1.238   0.000  0.00  0.00    +0.158 A 
ATOM      2  N   UNL     1       0.000  -1.650   0.000  0.00  0.00    -0.142 NA
ATOM      3  N   UNL     1       0.000  -2.475   0.000  0.00  0.00    -0.133 NA
ATOM      4  C   UNL     1       0.715  -2.888   0.000  0.00  0.00    +0.154 A 
ATOM      5  N   UNL     1       0.715  -3.712   0.000  0.00  0.00    -0.289 N 
ATOM      6  C   UNL     1       0.000  -4.125   0.000  0.00  0.00    +0.122 C 
ATOM      7  C   UNL     1       0.000  -4.950   0.000  0.00  0.00    +0.135 C 
ATOM      8  C   UNL     1       0.715  -5.362   0.000  0.00  0.00    +0.033 C 
ATOM      9  C   UNL     1       1.429  -4.950   0.000  0.00  0.00    +0.024 C 
ATOM     10  C   UNL     1       1.429  -4.125   0.000  0.00  0.00    +0.092 C 
ATOM     11  C   UNL     1       1.429  -2.475   0.000  0.00  0.00    +0.038 A 
ATOM     12  C   UNL     1       1.429  -1.650   0.000  0.00  0.00    +0.029 A 
ENDROOT
BRANCH   1  14
ATOM     13  N   UNL     1       0.000   0.000   0.000  0.00  0.00    -0.200 NA
ATOM     14  C   UNL     1       0.715  -0.412   0.000  0.00  0.00    +0.284 C 
ATOM     15  O   UNL     1       1.429   0.000   0.000  0.00  0.00    -0.267 OA
BRANCH  13  17
ATOM     16  C   UNL     1      -0.715   1.238   0.000  0.00  0.00    +0.025 C 
ATOM     17  C   UNL     1       0.000   0.825   0.000  0.00  0.00    +0.116 C 
ENDBRANCH  13  17
ENDBRANCH   1  14
BRANCH   7  18
ATOM     18  O   UNL     1      -0.715  -5.362   0.000  0.00  0.00    -0.352 OA
ATOM     19  C   UNL     1      -0.715  -6.188   0.000  0.00  0.00    +0.174 C 
ENDBRANCH   7  18
TORSDOF 3
