REMARK  Name = 
REMARK  4 active torsions:
REMARK  status: ('A' for Active; 'I' for Inactive)
REMARK    1  A    between atoms: C_2  and  C_5
REMARK    2  A    between atoms: C_9  and  N_11
REMARK    3  A    between atoms: C_12  and  C_14
REMARK    4  A    between atoms: C_14  and  N_15
REMARK                            x       y       z     vdW  Elec       q    Type
REMARK                         _______ _______ _______ _____ _____    ______ ____
ROOT
ATOM      1  C   UNL     1       2.037   3.651   0.000  0.00  0.00    +0.097 C 
ATOM      2  C   UNL     1       2.751   3.238   0.000  0.00  0.00    +0.030 C 
ATOM      3  C   UNL     1       3.466   3.651   0.000  0.00  0.00    +0.096 C 
ATOM      4  C   UNL     1       3.466   4.476   0.000  0.00  0.00    +0.022 C 
ATOM      5  C   UNL     1       2.751   4.888   0.000  0.00  0.00    +0.002 C 
ATOM      6  C   UNL     1       2.037   4.476   0.000  0.00  0.00    +0.009 C 
ENDROOT
BRANCH   1   8
ATOM      7  F   UNL     1       0.608   2.826   0.000  0.00  0.00    -0.170 F 
ATOM      8  C   UNL     1       1.322   3.238   0.000  0.00  0.00    +0.398 C 
ATOM      9  F   UNL     1       0.910   3.953   0.000  0.00  0.00    -0.170 F 
ATOM     10  F   UNL     1       1.735   2.524   0.000  0.00  0.00    -0.170 F 
ENDBRANCH   1   8
BRANCH   3  11
ATOM     11  N   UNL     1       4.180   3.238   0.000  0.00  0.00    -0.205 NA
ATOM     12  C   UNL     1       4.180   2.413   0.000  0.00  0.00    +0.266 C 
ATOM     13  O   UNL     1       3.466   2.001   0.000  0.00  0.00    -0.271 OA
BRANCH  12  14
ATOM     14  C   UNL     1       4.895   2.001   0.000  0.00  0.00    +0.217 C 
BRANCH  14  15
ATOM     15  N   UNL     1       4.895   1.176   0.000  0.00  0.00    -0.201 N 
ATOM     16  N   UNL     1       4.227   0.691   0.000  0.00  0.00    -0.042 NA
ATOM     17  N   UNL     1       4.482  -0.094   0.000  0.00  0.00    -0.023 NA
ATOM     18  N   UNL     1       5.307  -0.094   0.000  0.00  0.00    -0.105 NA
ATOM     19  C   UNL     1       5.562   0.691   0.000  0.00  0.00    +0.222 A 
ENDBRANCH  14  15
ENDBRANCH  12  14
ENDBRANCH   3  11
TORSDOF 4
