REMARK  Name = 
REMARK  6 active torsions:
REMARK  status: ('A' for Active; 'I' for Inactive)
REMARK    1  A    between atoms: C_2  and  C_3
REMARK    2  A    between atoms: C_3  and  C_4
REMARK    3  A    between atoms: C_4  and  C_5
REMARK    4  A    between atoms: N_10  and  C_11
REMARK    5  A    between atoms: C_11  and  C_12
REMARK    6  A    between atoms: C_12  and  N_13
REMARK                            x       y       z     vdW  Elec       q    Type
REMARK                         _______ _______ _______ _____ _____    ______ ____
ROOT
ATOM      1  O   UNL     1       3.878  -4.189   0.000  0.00  0.00    -0.273 OA
ATOM      2  C   UNL     1       3.878  -3.364   0.000  0.00  0.00    +0.241 C 
ATOM      3  N   UNL     1       4.592  -2.952   0.000  0.00  0.00    -0.203 NA
ENDROOT
BRANCH   3   4
ATOM      4  C   UNL     1       5.307  -3.364   0.000  0.00  0.00    +0.140 C 
BRANCH   4   5
ATOM      5  C   UNL     1       6.021  -2.952   0.000  0.00  0.00    +0.131 C 
BRANCH   5   6
ATOM      6  N   UNL     1       6.736  -3.364   0.000  0.00  0.00    -0.306 N 
ATOM      7  C   UNL     1       6.822  -4.185   0.000  0.00  0.00    +0.179 A 
ATOM      8  N   UNL     1       7.629  -4.356   0.000  0.00  0.00    -0.222 NA
ATOM      9  C   UNL     1       8.041  -3.642   0.000  0.00  0.00    +0.119 A 
ATOM     10  C   UNL     1       7.489  -3.029   0.000  0.00  0.00    +0.098 A 
ENDBRANCH   5   6
ENDBRANCH   4   5
ENDBRANCH   3   4
BRANCH   2  11
ATOM     11  C   UNL     1       3.163  -2.952   0.000  0.00  0.00    +0.087 C 
BRANCH  11  12
ATOM     12  C   UNL     1       2.449  -3.364   0.000  0.00  0.00    +0.010 C 
BRANCH  12  13
ATOM     13  C   UNL     1       1.734  -2.952   0.000  0.00  0.00    +0.000 C 
ATOM     14  C   UNL     1       1.648  -2.131   0.000  0.00  0.00    +0.000 C 
ATOM     15  C   UNL     1       0.841  -1.960   0.000  0.00  0.00    +0.000 C 
ATOM     16  C   UNL     1       0.429  -2.674   0.000  0.00  0.00    +0.000 C 
ATOM     17  C   UNL     1       0.981  -3.287   0.000  0.00  0.00    +0.000 C 
ENDBRANCH  12  13
ENDBRANCH  11  12
ENDBRANCH   2  11
TORSDOF 6
