REMARK  Name = 
REMARK  7 active torsions:
REMARK  status: ('A' for Active; 'I' for Inactive)
REMARK    1  A    between atoms: C_2  and  C_3
REMARK    2  A    between atoms: C_3  and  C_4
REMARK    3  A    between atoms: C_4  and  N_5
REMARK    4  A    between atoms: N_5  and  C_6
REMARK    5  A    between atoms: C_6  and  C_7
REMARK    6  A    between atoms: C_7  and  N_8
REMARK    7  A    between atoms: N_13  and  C_14
REMARK                            x       y       z     vdW  Elec       q    Type
REMARK                         _______ _______ _______ _____ _____    ______ ____
ROOT
ATOM      1  C   UNL     1       7.083  -3.908   0.000  0.00  0.00    +0.106 C 
ENDROOT
BRANCH   1   3
ATOM      2  O   UNL     1       7.798  -5.146   0.000  0.00  0.00    -0.273 OA
ATOM      3  C   UNL     1       7.798  -4.321   0.000  0.00  0.00    +0.243 C 
ATOM      4  N   UNL     1       8.512  -3.908   0.000  0.00  0.00    -0.207 NA
BRANCH   4   5
ATOM      5  C   UNL     1       9.227  -4.321   0.000  0.00  0.00    +0.095 C 
ATOM      6  C   UNL     1       9.313  -5.141   0.000  0.00  0.00    +0.022 C 
ATOM      7  C   UNL     1      10.120  -5.312   0.000  0.00  0.00    +0.002 C 
ATOM      8  C   UNL     1      10.532  -4.598   0.000  0.00  0.00    +0.002 C 
ATOM      9  C   UNL     1       9.980  -3.985   0.000  0.00  0.00    +0.022 C 
ENDBRANCH   4   5
ENDBRANCH   1   3
BRANCH   1  10
ATOM     10  C   UNL     1       6.369  -4.321   0.000  0.00  0.00    +0.098 C 
BRANCH  10  11
ATOM     11  N   UNL     1       5.654  -3.908   0.000  0.00  0.00    -0.215 NA
BRANCH  11  12
ATOM     12  C   UNL     1       4.940  -4.321   0.000  0.00  0.00    +0.115 C 
BRANCH  12  13
ATOM     13  C   UNL     1       4.225  -3.908   0.000  0.00  0.00    +0.146 C 
BRANCH  13  14
ATOM     14  N   UNL     1       3.511  -4.321   0.000  0.00  0.00    -0.248 N 
ATOM     15  N   UNL     1       2.757  -3.985   0.000  0.00  0.00    -0.168 NA
ATOM     16  C   UNL     1       2.205  -4.598   0.000  0.00  0.00    +0.122 A 
ATOM     17  C   UNL     1       2.618  -5.312   0.000  0.00  0.00    +0.043 A 
ATOM     18  C   UNL     1       3.425  -5.141   0.000  0.00  0.00    +0.097 A 
ENDBRANCH  13  14
ENDBRANCH  12  13
ENDBRANCH  11  12
ENDBRANCH  10  11
ENDBRANCH   1  10
TORSDOF 7
