REMARK  Name = 
REMARK  6 active torsions:
REMARK  status: ('A' for Active; 'I' for Inactive)
REMARK    1  A    between atoms: C_4  and  C_22
REMARK    2  A    between atoms: C_7  and  O_8
REMARK    3  A    between atoms: O_8  and  C_9
REMARK    4  A    between atoms: C_9  and  C_10
REMARK    5  A    between atoms: C_10  and  C_12
REMARK    6  A    between atoms: C_12  and  N_13
REMARK                            x       y       z     vdW  Elec       q    Type
REMARK                         _______ _______ _______ _____ _____    ______ ____
ROOT
ATOM      1  C   UNL     1       0.000  -2.475   0.000  0.00  0.00    +0.240 C 
ENDROOT
BRANCH   1   2
ATOM      2  C   UNL     1       0.715  -2.062   0.000  0.00  0.00    +0.218 C 
ATOM      3  O   UNL     1       0.715  -1.238   0.000  0.00  0.00    -0.217 OA
BRANCH   2   4
ATOM      4  C   UNL     1       1.429  -2.475   0.000  0.00  0.00    +0.150 C 
BRANCH   4   5
ATOM      5  N   UNL     1       2.143  -2.062   0.000  0.00  0.00    -0.246 N 
ATOM      6  C   UNL     1       2.858  -2.475   0.000  0.00  0.00    +0.334 A 
ATOM      7  O   UNL     1       2.858  -3.300   0.000  0.00  0.00    -0.246 OA
ATOM      8  N   UNL     1       3.572  -2.062   0.000  0.00  0.00    -0.278 N 
ATOM      9  C   UNL     1       4.287  -2.475   0.000  0.00  0.00    +0.135 C 
ATOM     10  C   UNL     1       3.572  -1.238   0.000  0.00  0.00    +0.085 A 
ATOM     11  C   UNL     1       2.858  -0.825   0.000  0.00  0.00    +0.080 A 
ATOM     12  C   UNL     1       2.143  -1.238   0.000  0.00  0.00    +0.266 A 
ATOM     13  O   UNL     1       1.429  -0.825   0.000  0.00  0.00    -0.267 OA
ENDBRANCH   4   5
ENDBRANCH   2   4
ENDBRANCH   1   2
BRANCH   1  14
ATOM     14  O   UNL     1      -0.715  -2.062   0.000  0.00  0.00    -0.473 OA
BRANCH  14  17
ATOM     15  C   UNL     1      -0.715  -3.712   0.000  0.00  0.00    +0.034 C 
ATOM     16  C   UNL     1      -1.429  -3.300   0.000  0.00  0.00    +0.012 A 
ATOM     17  C   UNL     1      -1.429  -2.475   0.000  0.00  0.00    +0.135 A 
ATOM     18  C   UNL     1      -2.143  -2.062   0.000  0.00  0.00    +0.036 A 
ATOM     19  C   UNL     1      -2.858  -2.475   0.000  0.00  0.00    -0.001 A 
ATOM     20  C   UNL     1      -2.858  -3.300   0.000  0.00  0.00    -0.023 A 
ATOM     21  C   UNL     1      -2.143  -3.712   0.000  0.00  0.00    -0.006 A 
BRANCH  20  22
ATOM     22  C   UNL     1      -3.572  -3.712   0.000  0.00  0.00    +0.019 C 
ATOM     23  C   UNL     1      -3.160  -4.427   0.000  0.00  0.00    +0.004 C 
ATOM     24  C   UNL     1      -3.985  -2.998   0.000  0.00  0.00    +0.004 C 
ATOM     25  C   UNL     1      -4.287  -4.125   0.000  0.00  0.00    +0.004 C 
ENDBRANCH  20  22
ENDBRANCH  14  17
ENDBRANCH   1  14
TORSDOF 6
