REMARK  Name = 
REMARK  2 active torsions:
REMARK  status: ('A' for Active; 'I' for Inactive)
REMARK    1  A    between atoms: C_2  and  N_3
REMARK    2  A    between atoms: C_2  and  C_13
REMARK                            x       y       z     vdW  Elec       q    Type
REMARK                         _______ _______ _______ _____ _____    ______ ____
ROOT
ATOM      1  N   UNL     1       1.429  -2.475   0.000  0.00  0.00    -0.186 NA
ATOM      2  C   UNL     1       2.143  -2.888   0.000  0.00  0.00    +0.345 C 
ATOM      3  N   UNL     1       2.858  -2.475   0.000  0.00  0.00    -0.142 NA
ATOM      4  C   UNL     1       3.572  -2.888   0.000  0.00  0.00    +0.156 A 
ATOM      5  N   UNL     1       3.572  -3.712   0.000  0.00  0.00    -0.227 NA
ATOM      6  C   UNL     1       4.287  -4.125   0.000  0.00  0.00    +0.100 A 
ATOM      7  C   UNL     1       5.001  -3.712   0.000  0.00  0.00    +0.021 A 
ATOM      8  C   UNL     1       5.001  -2.888   0.000  0.00  0.00    +0.005 A 
ATOM      9  C   UNL     1       4.287  -2.475   0.000  0.00  0.00    +0.036 A 
ATOM     10  O   UNL     1       2.143  -3.712   0.000  0.00  0.00    -0.249 OA
ENDROOT
BRANCH   1  12
ATOM     11  C   UNL     1       0.715  -3.712   0.000  0.00  0.00    +0.026 C 
ATOM     12  C   UNL     1       0.715  -2.888   0.000  0.00  0.00    +0.124 C 
BRANCH  12  13
ATOM     13  C   UNL     1       0.000  -2.475   0.000  0.00  0.00    +0.135 C 
ATOM     14  O   UNL     1      -0.086  -1.655   0.000  0.00  0.00    -0.354 OA
ATOM     15  C   UNL     1      -0.893  -1.483   0.000  0.00  0.00    +0.142 C 
ATOM     16  C   UNL     1      -1.306  -2.197   0.000  0.00  0.00    +0.035 C 
ATOM     17  C   UNL     1      -0.754  -2.811   0.000  0.00  0.00    +0.034 C 
ENDBRANCH  12  13
ENDBRANCH   1  12
TORSDOF 2
