REMARK  Name = 
REMARK  4 active torsions:
REMARK  status: ('A' for Active; 'I' for Inactive)
REMARK    1  A    between atoms: C_2  and  C_4
REMARK    2  A    between atoms: C_4  and  N_6
REMARK    3  A    between atoms: C_7  and  C_9
REMARK    4  A    between atoms: C_9  and  C_10
REMARK                            x       y       z     vdW  Elec       q    Type
REMARK                         _______ _______ _______ _____ _____    ______ ____
ROOT
ATOM      1  C   UNL     1       7.226  -4.803   0.000  0.00  0.00    +0.077 A 
ATOM      2  N   UNL     1       7.980  -5.138   0.000  0.00  0.00    -0.228 NA
ATOM      3  C   UNL     1       8.532  -4.525   0.000  0.00  0.00    +0.170 A 
ATOM      4  N   UNL     1       9.353  -4.611   0.000  0.00  0.00    -0.220 N 
ATOM      5  C   UNL     1       9.765  -5.326   0.000  0.00  0.00    +0.329 C 
ATOM      6  O   UNL     1       9.430  -6.080   0.000  0.00  0.00    -0.250 OA
ATOM      7  N   UNL     1      10.572  -5.154   0.000  0.00  0.00    -0.186 NA
ATOM      8  C   UNL     1      10.658  -4.334   0.000  0.00  0.00    +0.139 C 
ATOM      9  C   UNL     1       9.905  -3.998   0.000  0.00  0.00    +0.125 C 
ATOM     10  S   UNL     1       8.120  -3.811   0.000  0.00  0.00    -0.051 S 
ATOM     11  C   UNL     1       7.313  -3.982   0.000  0.00  0.00    +0.053 A 
ENDROOT
BRANCH   1  12
ATOM     12  C   UNL     1       6.512  -5.215   0.000  0.00  0.00    +0.133 C 
BRANCH  12  14
ATOM     13  N   UNL     1       5.083  -5.215   0.000  0.00  0.00    -0.207 NA
ATOM     14  C   UNL     1       5.797  -4.803   0.000  0.00  0.00    +0.247 C 
ATOM     15  O   UNL     1       5.797  -3.978   0.000  0.00  0.00    -0.273 OA
BRANCH  13  16
ATOM     16  C   UNL     1       4.369  -4.803   0.000  0.00  0.00    +0.095 C 
ATOM     17  C   UNL     1       4.369  -3.978   0.000  0.00  0.00    +0.023 C 
BRANCH  16  19
ATOM     18  C   UNL     1       2.940  -4.803   0.000  0.00  0.00    +0.002 C 
ATOM     19  C   UNL     1       3.654  -5.215   0.000  0.00  0.00    +0.020 C 
ATOM     20  C   UNL     1       3.654  -6.040   0.000  0.00  0.00    +0.002 C 
ENDBRANCH  16  19
ENDBRANCH  13  16
ENDBRANCH  12  14
ENDBRANCH   1  12
TORSDOF 4
