REMARK  Name = 
REMARK  4 active torsions:
REMARK  status: ('A' for Active; 'I' for Inactive)
REMARK    1  A    between atoms: S_2  and  C_4
REMARK    2  A    between atoms: N_8  and  C_9
REMARK    3  A    between atoms: C_9  and  C_10
REMARK    4  A    between atoms: N_12  and  C_13
REMARK                            x       y       z     vdW  Elec       q    Type
REMARK                         _______ _______ _______ _____ _____    ______ ____
ROOT
ATOM      1  C   UNL     1       3.449  -4.054   0.000  0.00  0.00    +0.265 C 
ATOM      2  N   UNL     1       4.233  -3.799   0.000  0.00  0.00    -0.206 NA
ATOM      3  O   UNL     1       3.277  -4.861   0.000  0.00  0.00    -0.271 OA
ENDROOT
BRANCH   2   4
ATOM      4  C   UNL     1       4.846  -4.351   0.000  0.00  0.00    +0.095 C 
ATOM      5  C   UNL     1       4.571  -5.129   0.000  0.00  0.00    +0.022 C 
ATOM      6  C   UNL     1       4.926  -5.873   0.000  0.00  0.00    +0.002 C 
ATOM      7  C   UNL     1       5.704  -6.149   0.000  0.00  0.00    +0.000 C 
ATOM      8  C   UNL     1       6.449  -5.793   0.000  0.00  0.00    +0.000 C 
ATOM      9  C   UNL     1       6.724  -5.016   0.000  0.00  0.00    +0.000 C 
ATOM     10  C   UNL     1       6.369  -4.271   0.000  0.00  0.00    +0.002 C 
ATOM     11  C   UNL     1       5.591  -3.996   0.000  0.00  0.00    +0.022 C 
ENDBRANCH   2   4
BRANCH   1  12
ATOM     12  C   UNL     1       2.836  -3.502   0.000  0.00  0.00    +0.196 C 
BRANCH  12  14
ATOM     13  C   UNL     1       1.384  -3.272   0.000  0.00  0.00    +0.224 A 
ATOM     14  N   UNL     1       2.051  -3.757   0.000  0.00  0.00    -0.277 N 
ATOM     15  C   UNL     1       1.796  -4.541   0.000  0.00  0.00    +0.204 A 
ATOM     16  N   UNL     1       0.971  -4.541   0.000  0.00  0.00    -0.125 NA
ATOM     17  N   UNL     1       0.716  -3.757   0.000  0.00  0.00    -0.120 NA
BRANCH  13  19
ATOM     18  C   UNL     1       0.669  -2.034   0.000  0.00  0.00    +0.114 C 
ATOM     19  S   UNL     1       1.384  -2.447   0.000  0.00  0.00    +0.102 S 
ATOM     20  O   UNL     1       2.098  -2.034   0.000  0.00  0.00    -0.248 OA
ENDBRANCH  13  19
ENDBRANCH  12  14
ENDBRANCH   1  12
TORSDOF 4
