REMARK  Name = 
REMARK  6 active torsions:
REMARK  status: ('A' for Active; 'I' for Inactive)
REMARK    1  A    between atoms: N_1  and  C_3
REMARK    2  A    between atoms: N_4  and  C_13
REMARK    3  A    between atoms: C_9  and  C_18
REMARK    4  A    between atoms: C_13  and  C_14
REMARK    5  A    between atoms: C_14  and  C_17
REMARK    6  A    between atoms: C_14  and  C_21
REMARK                            x       y       z     vdW  Elec       q    Type
REMARK                         _______ _______ _______ _____ _____    ______ ____
ROOT
ATOM      1  C   UNL     1       3.275   1.238   0.000  0.00  0.00    +0.154 A 
ATOM      2  N   UNL     1       3.992   0.825   0.000  0.00  0.00    -0.207 NA
ATOM      3  C   UNL     1       3.992   0.000   0.000  0.00  0.00    +0.201 A 
ATOM      4  N   UNL     1       3.275  -0.412   0.000  0.00  0.00    -0.205 NA
ATOM      5  C   UNL     1       2.562   0.000   0.000  0.00  0.00    +0.167 A 
ATOM      6  N   UNL     1       1.779  -0.254   0.000  0.00  0.00    -0.294 N 
ATOM      7  C   UNL     1       1.292   0.412   0.000  0.00  0.00    +0.180 A 
ATOM      8  N   UNL     1       1.779   1.083   0.000  0.00  0.00    -0.219 NA
ATOM      9  C   UNL     1       2.562   0.825   0.000  0.00  0.00    +0.149 A 
ENDROOT
BRANCH   1  10
ATOM     10  N   UNL     1       3.275   2.062   0.000  0.00  0.00    -0.293 N 
ATOM     11  C   UNL     1       3.858   2.650   0.000  0.00  0.00    +0.076 C 
ATOM     12  C   UNL     1       3.275   3.233   0.000  0.00  0.00    +0.035 C 
ATOM     13  C   UNL     1       2.562   3.646   0.000  0.00  0.00    +0.003 C 
ATOM     14  C   UNL     1       2.562   4.467   0.000  0.00  0.00    +0.000 C 
ATOM     15  C   UNL     1       3.275   4.879   0.000  0.00  0.00    +0.000 C 
ATOM     16  C   UNL     1       3.992   4.467   0.000  0.00  0.00    +0.000 C 
ATOM     17  C   UNL     1       3.992   3.646   0.000  0.00  0.00    +0.003 C 
ATOM     18  C   UNL     1       2.692   2.650   0.000  0.00  0.00    +0.094 C 
BRANCH  11  19
ATOM     19  C   UNL     1       4.683   2.650   0.000  0.00  0.00    +0.018 C 
ATOM     20  C   UNL     1       5.096   1.933   0.000  0.00  0.00    +0.002 C 
ATOM     21  C   UNL     1       5.096   3.362   0.000  0.00  0.00    +0.002 C 
ENDBRANCH  11  19
ENDBRANCH   1  10
BRANCH   6  22
ATOM     22  C   UNL     1       1.521  -1.038   0.000  0.00  0.00    +0.112 C 
BRANCH  22  23
ATOM     23  C   UNL     1       2.075  -1.650   0.000  0.00  0.00    +0.058 C 
BRANCH  23  24
ATOM     24  C   UNL     1       1.821  -2.433   0.000  0.00  0.00    +0.037 C 
ATOM     25  C   UNL     1       2.304  -3.104   0.000  0.00  0.00    +0.035 C 
ATOM     26  C   UNL     1       1.821  -3.771   0.000  0.00  0.00    +0.142 C 
ATOM     27  O   UNL     1       1.033  -3.517   0.000  0.00  0.00    -0.354 OA
ATOM     28  C   UNL     1       1.033  -2.692   0.000  0.00  0.00    +0.142 C 
ENDBRANCH  23  24
BRANCH  23  29
ATOM     29  C   UNL     1       2.883  -1.479   0.000  0.00  0.00    +0.184 C 
ATOM     30  O   UNL     1       3.433  -2.092   0.000  0.00  0.00    -0.220 OA
ENDBRANCH  23  29
ENDBRANCH  22  23
ENDBRANCH   6  22
TORSDOF 6
