REMARK  Name = 
REMARK  4 active torsions:
REMARK  status: ('A' for Active; 'I' for Inactive)
REMARK    1  A    between atoms: C_2  and  C_4
REMARK    2  A    between atoms: N_8  and  C_9
REMARK    3  A    between atoms: C_9  and  C_10
REMARK    4  A    between atoms: N_15  and  C_16
REMARK                            x       y       z     vdW  Elec       q    Type
REMARK                         _______ _______ _______ _____ _____    ______ ____
ROOT
ATOM      1  C   UNL     1       2.095   0.412   0.000  0.00  0.00    +0.195 C 
ENDROOT
BRANCH   1   2
ATOM      2  C   UNL     1       2.809   0.000   0.000  0.00  0.00    +0.272 C 
ATOM      3  N   UNL     1       3.523   0.412   0.000  0.00  0.00    -0.125 NA
ATOM      4  C   UNL     1       4.238   0.000   0.000  0.00  0.00    +0.346 C 
ATOM      5  N   UNL     1       4.952   0.412   0.000  0.00  0.00    -0.189 NA
ATOM      6  O   UNL     1       4.238  -0.825   0.000  0.00  0.00    -0.249 OA
ATOM      7  O   UNL     1       2.809  -0.825   0.000  0.00  0.00    -0.271 OA
BRANCH   5   8
ATOM      8  C   UNL     1       4.952   1.238   0.000  0.00  0.00    +0.097 C 
ATOM      9  C   UNL     1       5.365   1.952   0.000  0.00  0.00    +0.023 C 
ATOM     10  C   UNL     1       4.540   1.952   0.000  0.00  0.00    +0.023 C 
ENDBRANCH   5   8
ENDBRANCH   1   2
BRANCH   1  12
ATOM     11  C   UNL     1       1.427   1.722   0.000  0.00  0.00    +0.120 A 
ATOM     12  N   UNL     1       2.095   1.238   0.000  0.00  0.00    -0.305 N 
ATOM     13  C   UNL     1       2.762   1.722   0.000  0.00  0.00    +0.098 A 
ATOM     14  C   UNL     1       2.507   2.507   0.000  0.00  0.00    +0.119 A 
ATOM     15  N   UNL     1       1.682   2.507   0.000  0.00  0.00    -0.229 NA
BRANCH  11  17
ATOM     16  C   UNL     1       0.029   2.019   0.000  0.00  0.00    +0.008 C 
ATOM     17  C   UNL     1       0.642   1.468   0.000  0.00  0.00    +0.057 C 
ATOM     18  C   UNL     1       0.471   0.660   0.000  0.00  0.00    +0.008 C 
ENDBRANCH  11  17
ENDBRANCH   1  12
TORSDOF 4
