REMARK  Name = 
REMARK  5 active torsions:
REMARK  status: ('A' for Active; 'I' for Inactive)
REMARK    1  A    between atoms: N_1  and  C_7
REMARK    2  A    between atoms: N_2  and  C_10
REMARK    3  A    between atoms: C_7  and  C_8
REMARK    4  A    between atoms: C_18  and  C_21
REMARK    5  A    between atoms: C_18  and  C_22
REMARK                            x       y       z     vdW  Elec       q    Type
REMARK                         _______ _______ _______ _____ _____    ______ ____
ROOT
ATOM      1  C   UNL     1       4.283  -2.475   0.000  0.00  0.00    +0.199 C 
ENDROOT
BRANCH   1   2
ATOM      2  N   UNL     1       5.000  -2.888   0.000  0.00  0.00    -0.238 N 
ATOM      3  C   UNL     1       5.713  -2.475   0.000  0.00  0.00    +0.294 A 
ATOM      4  O   UNL     1       5.713  -1.650   0.000  0.00  0.00    -0.264 OA
ATOM      5  C   UNL     1       6.429  -2.888   0.000  0.00  0.00    +0.213 A 
ATOM      6  F   UNL     1       7.142  -2.475   0.000  0.00  0.00    -0.198 F 
ATOM      7  C   UNL     1       6.429  -3.712   0.000  0.00  0.00    +0.116 A 
ATOM      8  N   UNL     1       5.713  -4.125   0.000  0.00  0.00    -0.255 N 
ATOM      9  C   UNL     1       5.000  -3.712   0.000  0.00  0.00    +0.336 A 
ATOM     10  O   UNL     1       4.283  -4.125   0.000  0.00  0.00    -0.246 OA
BRANCH   8  11
ATOM     11  C   UNL     1       5.713  -4.950   0.000  0.00  0.00    +0.208 C 
ATOM     12  C   UNL     1       6.379  -5.433   0.000  0.00  0.00    +0.057 C 
ATOM     13  C   UNL     1       6.125  -6.217   0.000  0.00  0.00    +0.037 C 
ATOM     14  C   UNL     1       5.300  -6.217   0.000  0.00  0.00    +0.144 C 
ATOM     15  O   UNL     1       5.046  -5.433   0.000  0.00  0.00    -0.335 OA
ENDBRANCH   8  11
ENDBRANCH   1   2
BRANCH   1  16
ATOM     16  C   UNL     1       3.571  -2.888   0.000  0.00  0.00    +0.249 C 
ATOM     17  O   UNL     1       3.571  -3.712   0.000  0.00  0.00    -0.273 OA
ATOM     18  N   UNL     1       2.854  -2.475   0.000  0.00  0.00    -0.278 N 
ATOM     19  C   UNL     1       2.854  -1.650   0.000  0.00  0.00    +0.093 C 
ATOM     20  C   UNL     1       2.142  -1.238   0.000  0.00  0.00    +0.022 C 
ATOM     21  C   UNL     1       1.425  -1.650   0.000  0.00  0.00    +0.008 C 
ATOM     22  C   UNL     1       1.425  -2.475   0.000  0.00  0.00    +0.022 C 
ATOM     23  C   UNL     1       2.142  -2.888   0.000  0.00  0.00    +0.093 C 
BRANCH  21  24
ATOM     24  C   UNL     1       0.713  -1.238   0.000  0.00  0.00    +0.026 C 
BRANCH  24  25
ATOM     25  C   UNL     1       0.713  -0.412   0.000  0.00  0.00    -0.022 A 
ATOM     26  C   UNL     1       1.425   0.000   0.000  0.00  0.00    -0.004 A 
ATOM     27  C   UNL     1       1.425   0.825   0.000  0.00  0.00    -0.000 A 
ATOM     28  C   UNL     1       0.713   1.238   0.000  0.00  0.00    -0.000 A 
ATOM     29  C   UNL     1       0.000   0.825   0.000  0.00  0.00    -0.000 A 
ATOM     30  C   UNL     1       0.000   0.000   0.000  0.00  0.00    -0.004 A 
ENDBRANCH  24  25
ENDBRANCH  21  24
ENDBRANCH   1  16
TORSDOF 5
