REMARK  Name = 
REMARK  2 active torsions:
REMARK  status: ('A' for Active; 'I' for Inactive)
REMARK    1  A    between atoms: S_2  and  C_3
REMARK    2  A    between atoms: C_6  and  N_8
REMARK                            x       y       z     vdW  Elec       q    Type
REMARK                         _______ _______ _______ _____ _____    ______ ____
ROOT
ATOM      1  N   UNL     1       2.697  -3.548   0.000  0.00  0.00    -0.189 NA
ATOM      2  C   UNL     1       1.877  -3.462   0.000  0.00  0.00    +0.347 C 
ATOM      3  N   UNL     1       1.392  -4.130   0.000  0.00  0.00    -0.107 NA
ATOM      4  C   UNL     1       0.572  -4.043   0.000  0.00  0.00    +0.342 A 
ATOM      5  O   UNL     1       0.159  -3.329   0.000  0.00  0.00    -0.315 OA
ATOM      6  N   UNL     1      -0.648  -3.500   0.000  0.00  0.00    -0.058 NA
ATOM      7  C   UNL     1      -0.734  -4.321   0.000  0.00  0.00    +0.183 A 
ATOM      8  C   UNL     1      -1.449  -4.733   0.000  0.00  0.00    +0.077 C 
ATOM      9  N   UNL     1       0.020  -4.656   0.000  0.00  0.00    -0.176 NA
ATOM     10  O   UNL     1       1.541  -2.708   0.000  0.00  0.00    -0.249 OA
ENDROOT
BRANCH   1  13
ATOM     11  C   UNL     1       3.595  -1.611   0.000  0.00  0.00    +0.049 C 
ATOM     12  C   UNL     1       2.928  -2.096   0.000  0.00  0.00    +0.032 C 
ATOM     13  C   UNL     1       3.182  -2.881   0.000  0.00  0.00    +0.098 C 
ATOM     14  C   UNL     1       4.007  -2.881   0.000  0.00  0.00    +0.023 C 
ATOM     15  C   UNL     1       4.262  -2.096   0.000  0.00  0.00    +0.013 C 
BRANCH  11  17
ATOM     16  C   UNL     1       4.309  -0.374   0.000  0.00  0.00    +0.069 C 
ATOM     17  S   UNL     1       3.595  -0.786   0.000  0.00  0.00    -0.140 S 
ENDBRANCH  11  17
ENDBRANCH   1  13
TORSDOF 2
