REMARK  Name = 
REMARK  5 active torsions:
REMARK  status: ('A' for Active; 'I' for Inactive)
REMARK    1  A    between atoms: O_2  and  C_3
REMARK    2  A    between atoms: C_3  and  C_6
REMARK    3  A    between atoms: C_8  and  C_9
REMARK    4  A    between atoms: C_9  and  C_10
REMARK    5  A    between atoms: N_12  and  C_13
REMARK                            x       y       z     vdW  Elec       q    Type
REMARK                         _______ _______ _______ _____ _____    ______ ____
ROOT
ATOM      1  C   UNL     1       2.751  -2.537   0.000  0.00  0.00    +0.261 A 
ATOM      2  O   UNL     1       2.084  -3.022   0.000  0.00  0.00    -0.335 OA
ATOM      3  N   UNL     1       2.339  -3.806   0.000  0.00  0.00    -0.060 NA
ATOM      4  C   UNL     1       3.164  -3.806   0.000  0.00  0.00    +0.190 A 
ATOM      5  N   UNL     1       3.419  -3.022   0.000  0.00  0.00    -0.192 NA
ENDROOT
BRANCH   1   6
ATOM      6  C   UNL     1       2.751  -1.712   0.000  0.00  0.00    +0.163 C 
ATOM      7  C   UNL     1       3.576  -1.712   0.000  0.00  0.00    +0.039 C 
ATOM      8  C   UNL     1       1.926  -1.712   0.000  0.00  0.00    +0.039 C 
BRANCH   6  10
ATOM      9  C   UNL     1       2.037  -0.474   0.000  0.00  0.00    +0.175 C 
ATOM     10  O   UNL     1       2.751  -0.887   0.000  0.00  0.00    -0.347 OA
ENDBRANCH   6  10
ENDBRANCH   1   6
BRANCH   4  11
ATOM     11  C   UNL     1       3.649  -4.474   0.000  0.00  0.00    +0.156 C 
BRANCH  11  12
ATOM     12  C   UNL     1       3.313  -5.227   0.000  0.00  0.00    +0.249 C 
ATOM     13  N   UNL     1       3.798  -5.895   0.000  0.00  0.00    -0.207 NA
ATOM     14  O   UNL     1       2.493  -5.314   0.000  0.00  0.00    -0.273 OA
BRANCH  13  15
ATOM     15  C   UNL     1       3.462  -6.648   0.000  0.00  0.00    +0.095 C 
ATOM     16  C   UNL     1       2.642  -6.735   0.000  0.00  0.00    +0.022 C 
ATOM     17  C   UNL     1       2.306  -7.488   0.000  0.00  0.00    +0.002 C 
ATOM     18  C   UNL     1       2.791  -8.156   0.000  0.00  0.00    +0.000 C 
ATOM     19  C   UNL     1       3.612  -8.069   0.000  0.00  0.00    +0.002 C 
ATOM     20  C   UNL     1       3.947  -7.316   0.000  0.00  0.00    +0.022 C 
ENDBRANCH  13  15
ENDBRANCH  11  12
ENDBRANCH   4  11
TORSDOF 5
