REMARK  Name = 
REMARK  7 active torsions:
REMARK  status: ('A' for Active; 'I' for Inactive)
REMARK    1  A    between atoms: N_2  and  C_12
REMARK    2  A    between atoms: C_5  and  N_7
REMARK    3  A    between atoms: N_7  and  C_16
REMARK    4  A    between atoms: C_10  and  C_12
REMARK    5  A    between atoms: C_10  and  C_23
REMARK    6  A    between atoms: C_11  and  C_16
REMARK    7  A    between atoms: C_13  and  N_14
REMARK                            x       y       z     vdW  Elec       q    Type
REMARK                         _______ _______ _______ _____ _____    ______ ____
ROOT
ATOM      1  C   UNL     1       2.562   0.825   0.000  0.00  0.00    +0.149 A 
ATOM      2  C   UNL     1       3.275   1.238   0.000  0.00  0.00    +0.155 A 
ATOM      3  N   UNL     1       3.992   0.825   0.000  0.00  0.00    -0.207 NA
ATOM      4  C   UNL     1       3.992   0.000   0.000  0.00  0.00    +0.201 A 
ATOM      5  N   UNL     1       3.275  -0.412   0.000  0.00  0.00    -0.205 NA
ATOM      6  N   UNL     1       1.779   1.083   0.000  0.00  0.00    -0.219 NA
ATOM      7  C   UNL     1       1.292   0.412   0.000  0.00  0.00    +0.180 A 
ATOM      8  N   UNL     1       1.779  -0.254   0.000  0.00  0.00    -0.294 N 
ATOM      9  C   UNL     1       2.562   0.000   0.000  0.00  0.00    +0.167 A 
ENDROOT
BRANCH   2  10
ATOM     10  N   UNL     1       3.275   2.062   0.000  0.00  0.00    -0.282 N 
ATOM     11  C   UNL     1       2.562   2.475   0.000  0.00  0.00    +0.114 C 
BRANCH  10  12
ATOM     12  C   UNL     1       3.992   2.475   0.000  0.00  0.00    +0.180 C 
BRANCH  12  13
ATOM     13  C   UNL     1       3.992   3.300   0.000  0.00  0.00    +0.262 C 
ATOM     14  O   UNL     1       3.275   3.712   0.000  0.00  0.00    -0.271 OA
ATOM     15  N   UNL     1       4.704   3.712   0.000  0.00  0.00    -0.206 NA
BRANCH  15  16
ATOM     16  C   UNL     1       4.704   4.533   0.000  0.00  0.00    +0.095 C 
ATOM     17  C   UNL     1       4.292   5.250   0.000  0.00  0.00    +0.023 C 
ATOM     18  C   UNL     1       5.117   5.250   0.000  0.00  0.00    +0.023 C 
ENDBRANCH  15  16
ENDBRANCH  12  13
ENDBRANCH  10  12
ENDBRANCH   2  10
BRANCH   8  19
ATOM     19  C   UNL     1       1.521  -1.038   0.000  0.00  0.00    +0.116 C 
BRANCH  19  20
ATOM     20  C   UNL     1       2.075  -1.650   0.000  0.00  0.00    +0.106 C 
ATOM     21  C   UNL     1       2.688  -1.100   0.000  0.00  0.00    +0.149 C 
ATOM     22  O   UNL     1       3.242  -1.712   0.000  0.00  0.00    -0.353 OA
ATOM     23  C   UNL     1       2.625  -2.263   0.000  0.00  0.00    +0.149 C 
BRANCH  20  24
ATOM     24  C   UNL     1       1.462  -2.204   0.000  0.00  0.00    +0.189 C 
ATOM     25  O   UNL     1       1.633  -3.008   0.000  0.00  0.00    -0.220 OA
ENDBRANCH  20  24
ENDBRANCH  19  20
ENDBRANCH   8  19
TORSDOF 7
