REMARK  Name = 
REMARK  5 active torsions:
REMARK  status: ('A' for Active; 'I' for Inactive)
REMARK    1  A    between atoms: N_6  and  C_7
REMARK    2  A    between atoms: C_7  and  C_8
REMARK    3  A    between atoms: N_10  and  C_11
REMARK    4  A    between atoms: C_11  and  C_12
REMARK    5  A    between atoms: C_12  and  N_15
REMARK                            x       y       z     vdW  Elec       q    Type
REMARK                         _______ _______ _______ _____ _____    ______ ____
ROOT
ATOM      1  C   UNL     1       1.581  -7.228   0.000  0.00  0.00    +0.266 C 
ATOM      2  N   UNL     1       1.097  -7.896   0.000  0.00  0.00    -0.202 NA
ATOM      3  O   UNL     1       2.402  -7.314   0.000  0.00  0.00    -0.271 OA
ENDROOT
BRANCH   1   4
ATOM      4  C   UNL     1       1.246  -6.474   0.000  0.00  0.00    +0.213 C 
BRANCH   4   8
ATOM      5  C   UNL     1       2.143  -3.712   0.000  0.00  0.00    +0.054 C 
ATOM      6  C   UNL     1       2.143  -4.537   0.000  0.00  0.00    +0.080 A 
ATOM      7  N   UNL     1       1.476  -5.022   0.000  0.00  0.00    -0.174 NA
ATOM      8  N   UNL     1       1.731  -5.807   0.000  0.00  0.00    -0.246 N 
ATOM      9  C   UNL     1       2.556  -5.807   0.000  0.00  0.00    +0.058 A 
ATOM     10  C   UNL     1       3.041  -6.474   0.000  0.00  0.00    +0.052 C 
ATOM     11  C   UNL     1       2.811  -5.022   0.000  0.00  0.00    +0.031 A 
ENDBRANCH   4   8
ENDBRANCH   1   4
BRANCH   2  12
ATOM     12  C   UNL     1       1.432  -8.649   0.000  0.00  0.00    +0.130 C 
BRANCH  12  13
ATOM     13  C   UNL     1       0.947  -9.317   0.000  0.00  0.00    +0.066 C 
ATOM     14  C   UNL     1       1.615  -9.802   0.000  0.00  0.00    +0.018 C 
ATOM     15  C   UNL     1       0.280  -8.832   0.000  0.00  0.00    +0.018 C 
BRANCH  13  16
ATOM     16  N   UNL     1       0.462  -9.984   0.000  0.00  0.00    -0.269 NA
ATOM     17  C   UNL     1      -0.358  -9.898   0.000  0.00  0.00    +0.105 C 
ATOM     18  C   UNL     1      -0.843 -10.565   0.000  0.00  0.00    +0.159 C 
ATOM     19  O   UNL     1      -0.507 -11.319   0.000  0.00  0.00    -0.351 OA
ATOM     20  C   UNL     1       0.313 -11.405   0.000  0.00  0.00    +0.159 C 
ATOM     21  C   UNL     1       0.798 -10.738   0.000  0.00  0.00    +0.105 C 
ENDBRANCH  13  16
ENDBRANCH  12  13
ENDBRANCH   2  12
TORSDOF 5
