REMARK  Name = 
REMARK  5 active torsions:
REMARK  status: ('A' for Active; 'I' for Inactive)
REMARK    1  A    between atoms: C_8  and  C_9
REMARK    2  A    between atoms: C_9  and  C_10
REMARK    3  A    between atoms: C_10  and  N_11
REMARK    4  A    between atoms: C_12  and  C_14
REMARK    5  A    between atoms: C_14  and  N_15
REMARK                            x       y       z     vdW  Elec       q    Type
REMARK                         _______ _______ _______ _____ _____    ______ ____
ROOT
ATOM      1  N   UNL     1       3.572  -3.712   0.000  0.00  0.00    -0.204 NA
ATOM      2  C   UNL     1       4.287  -4.125   0.000  0.00  0.00    +0.262 C 
ATOM      3  O   UNL     1       4.287  -4.950   0.000  0.00  0.00    -0.271 OA
ENDROOT
BRANCH   1   4
ATOM      4  C   UNL     1       2.858  -4.125   0.000  0.00  0.00    +0.120 C 
BRANCH   4   5
ATOM      5  C   UNL     1       2.143  -3.712   0.000  0.00  0.00    +0.052 C 
BRANCH   5   8
ATOM      6  C   UNL     1       1.956  -5.497   0.000  0.00  0.00    +0.054 C 
ATOM      7  C   UNL     1       1.343  -4.946   0.000  0.00  0.00    +0.076 A 
ATOM      8  C   UNL     1       1.429  -4.125   0.000  0.00  0.00    +0.008 A 
ATOM      9  C   UNL     1       0.675  -3.789   0.000  0.00  0.00    +0.053 A 
ATOM     10  C   UNL     1       0.504  -2.982   0.000  0.00  0.00    +0.051 C 
ATOM     11  N   UNL     1       0.123  -4.402   0.000  0.00  0.00    -0.253 N 
ATOM     12  C   UNL     1      -0.697  -4.316   0.000  0.00  0.00    +0.153 C 
ATOM     13  N   UNL     1       0.536  -5.117   0.000  0.00  0.00    -0.174 NA
ENDBRANCH   5   8
ENDBRANCH   4   5
ENDBRANCH   1   4
BRANCH   2  14
ATOM     14  C   UNL     1       5.001  -3.712   0.000  0.00  0.00    +0.181 C 
BRANCH  14  15
ATOM     15  N   UNL     1       5.716  -4.125   0.000  0.00  0.00    -0.271 N 
ATOM     16  C   UNL     1       5.716  -4.950   0.000  0.00  0.00    +0.226 C 
ATOM     17  O   UNL     1       5.001  -5.362   0.000  0.00  0.00    -0.275 OA
ATOM     18  C   UNL     1       6.430  -5.362   0.000  0.00  0.00    +0.085 C 
ATOM     19  C   UNL     1       7.145  -4.950   0.000  0.00  0.00    +0.011 C 
ATOM     20  C   UNL     1       7.145  -4.125   0.000  0.00  0.00    +0.022 C 
ATOM     21  C   UNL     1       6.430  -3.712   0.000  0.00  0.00    +0.094 C 
ENDBRANCH  14  15
ENDBRANCH   2  14
TORSDOF 5
