REMARK  Name = 
REMARK  5 active torsions:
REMARK  status: ('A' for Active; 'I' for Inactive)
REMARK    1  A    between atoms: C_2  and  C_3
REMARK    2  A    between atoms: C_2  and  C_11
REMARK    3  A    between atoms: C_3  and  O_4
REMARK    4  A    between atoms: O_4  and  C_5
REMARK    5  A    between atoms: C_11  and  N_12
REMARK                            x       y       z     vdW  Elec       q    Type
REMARK                         _______ _______ _______ _____ _____    ______ ____
ROOT
ATOM      1  C   UNL     1       5.637  -0.822   0.000  0.00  0.00    +0.165 C 
ENDROOT
BRANCH   1   2
ATOM      2  N   UNL     1       6.351  -0.410   0.000  0.00  0.00    -0.229 N 
ATOM      3  C   UNL     1       7.105  -0.745   0.000  0.00  0.00    +0.100 A 
ATOM      4  C   UNL     1       7.657  -0.132   0.000  0.00  0.00    +0.123 A 
ATOM      5  C   UNL     1       8.464  -0.304   0.000  0.00  0.00    +0.035 A 
ATOM      6  C   UNL     1       8.719  -1.088   0.000  0.00  0.00    +0.070 A 
ATOM      7  C   UNL     1       8.167  -1.701   0.000  0.00  0.00    +0.070 A 
ATOM      8 CL   UNL     1       8.422  -2.486   0.000  0.00  0.00    -0.081 Cl
ATOM      9 CL   UNL     1       9.526  -1.260   0.000  0.00  0.00    -0.081 Cl
ATOM     10  N   UNL     1       7.245   0.582   0.000  0.00  0.00    -0.129 NA
ATOM     11  C   UNL     1       7.360  -1.530   0.000  0.00  0.00    +0.033 A 
ATOM     12  N   UNL     1       6.438   0.411   0.000  0.00  0.00    -0.064 NA
ENDBRANCH   1   2
BRANCH   1  14
ATOM     13  O   UNL     1       4.923   0.415   0.000  0.00  0.00    -0.218 OA
ATOM     14  C   UNL     1       4.923  -0.410   0.000  0.00  0.00    +0.206 C 
BRANCH  14  15
ATOM     15  C   UNL     1       4.208  -0.822   0.000  0.00  0.00    +0.177 C 
BRANCH  15  16
ATOM     16  O   UNL     1       3.494  -0.410   0.000  0.00  0.00    -0.353 OA
BRANCH  16  17
ATOM     17  C   UNL     1       2.779  -0.822   0.000  0.00  0.00    +0.120 C 
ATOM     18  C   UNL     1       2.065  -0.410   0.000  0.00  0.00    +0.062 C 
ATOM     19  C   UNL     1       1.350  -0.822   0.000  0.00  0.00    +0.145 C 
ATOM     20  O   UNL     1       1.350  -1.647   0.000  0.00  0.00    -0.354 OA
ATOM     21  C   UNL     1       2.065  -2.060   0.000  0.00  0.00    +0.145 C 
ATOM     22  C   UNL     1       2.779  -1.647   0.000  0.00  0.00    +0.062 C 
ENDBRANCH  16  17
ENDBRANCH  15  16
ENDBRANCH  14  15
ENDBRANCH   1  14
TORSDOF 5
