REMARK  Name = 
REMARK  3 active torsions:
REMARK  status: ('A' for Active; 'I' for Inactive)
REMARK    1  A    between atoms: C_2  and  C_4
REMARK    2  A    between atoms: C_9  and  N_10
REMARK    3  A    between atoms: C_11  and  C_13
REMARK                            x       y       z     vdW  Elec       q    Type
REMARK                         _______ _______ _______ _____ _____    ______ ____
ROOT
ATOM      1  C   UNL     1       2.037   6.828   0.000  0.00  0.00    +0.140 A 
ATOM      2  N   UNL     1       2.037   6.003   0.000  0.00  0.00    -0.214 NA
ATOM      3  C   UNL     1       2.751   5.590   0.000  0.00  0.00    +0.157 A 
ATOM      4  C   UNL     1       3.466   6.003   0.000  0.00  0.00    +0.051 A 
ATOM      5  C   UNL     1       3.466   6.828   0.000  0.00  0.00    +0.064 A 
ATOM      6  C   UNL     1       4.180   7.240   0.000  0.00  0.00    +0.052 C 
ATOM      7  N   UNL     1       2.751   7.240   0.000  0.00  0.00    -0.235 NA
ENDROOT
BRANCH   1   9
ATOM      8  C   UNL     1       1.322   8.065   0.000  0.00  0.00    +0.008 C 
ATOM      9  C   UNL     1       1.322   7.240   0.000  0.00  0.00    +0.059 C 
ATOM     10  C   UNL     1       0.608   6.828   0.000  0.00  0.00    +0.008 C 
ENDBRANCH   1   9
BRANCH   3  11
ATOM     11  N   UNL     1       2.751   4.765   0.000  0.00  0.00    -0.158 NA
ATOM     12  C   UNL     1       3.466   4.353   0.000  0.00  0.00    +0.274 C 
ATOM     13  O   UNL     1       4.180   4.765   0.000  0.00  0.00    -0.270 OA
BRANCH  12  14
ATOM     14  C   UNL     1       3.466   3.528   0.000  0.00  0.00    +0.193 C 
ATOM     15  O   UNL     1       2.798   3.043   0.000  0.00  0.00    -0.347 OA
ATOM     16  C   UNL     1       3.053   2.258   0.000  0.00  0.00    +0.143 C 
ATOM     17  C   UNL     1       3.878   2.258   0.000  0.00  0.00    +0.035 C 
ATOM     18  C   UNL     1       4.133   3.043   0.000  0.00  0.00    +0.042 C 
ENDBRANCH  12  14
ENDBRANCH   3  11
TORSDOF 3
