REMARK  Name = 
REMARK  5 active torsions:
REMARK  status: ('A' for Active; 'I' for Inactive)
REMARK    1  A    between atoms: N_3  and  C_13
REMARK    2  A    between atoms: C_9  and  C_11
REMARK    3  A    between atoms: C_11  and  C_16
REMARK    4  A    between atoms: C_12  and  C_13
REMARK    5  A    between atoms: C_12  and  C_24
REMARK                            x       y       z     vdW  Elec       q    Type
REMARK                         _______ _______ _______ _____ _____    ______ ____
ROOT
ATOM      1  C   UNL     1       1.921  -0.283   0.000  0.00  0.00    +0.149 A 
ATOM      2  N   UNL     1       1.137  -0.029   0.000  0.00  0.00    -0.219 NA
ATOM      3  C   UNL     1       0.650  -0.696   0.000  0.00  0.00    +0.180 A 
ATOM      4  N   UNL     1       1.137  -1.363   0.000  0.00  0.00    -0.294 N 
ATOM      5  C   UNL     1       1.921  -1.108   0.000  0.00  0.00    +0.167 A 
ATOM      6  N   UNL     1       2.638  -1.521   0.000  0.00  0.00    -0.205 NA
ATOM      7  C   UNL     1       3.350  -1.108   0.000  0.00  0.00    +0.201 A 
ATOM      8  N   UNL     1       3.350  -0.283   0.000  0.00  0.00    -0.207 NA
ATOM      9  C   UNL     1       2.638   0.129   0.000  0.00  0.00    +0.154 A 
ATOM     10  N   UNL     1       2.638   0.954   0.000  0.00  0.00    -0.288 N 
ATOM     11  C   UNL     1       1.921   1.367   0.000  0.00  0.00    +0.124 C 
ATOM     12  C   UNL     1       1.921   2.192   0.000  0.00  0.00    +0.164 C 
ATOM     13  O   UNL     1       2.638   2.604   0.000  0.00  0.00    -0.350 OA
ATOM     14  C   UNL     1       3.350   2.192   0.000  0.00  0.00    +0.162 C 
ATOM     15  C   UNL     1       3.350   1.367   0.000  0.00  0.00    +0.109 C 
ENDROOT
BRANCH   4  16
ATOM     16  C   UNL     1       0.883  -2.150   0.000  0.00  0.00    +0.116 C 
BRANCH  16  17
ATOM     17  C   UNL     1       0.075  -2.321   0.000  0.00  0.00    +0.106 C 
ATOM     18  C   UNL     1      -0.096  -1.512   0.000  0.00  0.00    +0.149 C 
ATOM     19  O   UNL     1      -0.904  -1.683   0.000  0.00  0.00    -0.353 OA
ATOM     20  C   UNL     1      -0.733  -2.492   0.000  0.00  0.00    +0.149 C 
BRANCH  17  21
ATOM     21  C   UNL     1       0.246  -3.125   0.000  0.00  0.00    +0.189 C 
ATOM     22  O   UNL     1      -0.367  -3.679   0.000  0.00  0.00    -0.220 OA
ENDBRANCH  17  21
ENDBRANCH  16  17
ENDBRANCH   4  16
BRANCH  15  23
ATOM     23  C   UNL     1       4.067   0.954   0.000  0.00  0.00    +0.095 C 
BRANCH  23  24
ATOM     24  C   UNL     1       4.779   1.367   0.000  0.00  0.00    +0.320 C 
ATOM     25  F   UNL     1       4.779   2.192   0.000  0.00  0.00    -0.198 F 
ATOM     26  F   UNL     1       5.492   0.954   0.000  0.00  0.00    -0.198 F 
ENDBRANCH  23  24
ENDBRANCH  15  23
TORSDOF 5
