REMARK  Name = 
REMARK  4 active torsions:
REMARK  status: ('A' for Active; 'I' for Inactive)
REMARK    1  A    between atoms: N_2  and  C_14
REMARK    2  A    between atoms: C_5  and  N_8
REMARK    3  A    between atoms: C_6  and  N_7
REMARK    4  A    between atoms: C_14  and  C_18
REMARK                            x       y       z     vdW  Elec       q    Type
REMARK                         _______ _______ _______ _____ _____    ______ ____
ROOT
ATOM      1  C   UNL     1       2.563   0.825   0.000  0.00  0.00    +0.149 A 
ATOM      2  C   UNL     1       3.275   1.238   0.000  0.00  0.00    +0.154 A 
ATOM      3  N   UNL     1       3.992   0.825   0.000  0.00  0.00    -0.207 NA
ATOM      4  C   UNL     1       3.992   0.000   0.000  0.00  0.00    +0.201 A 
ATOM      5  N   UNL     1       3.275  -0.412   0.000  0.00  0.00    -0.205 NA
ATOM      6  N   UNL     1       1.779   1.083   0.000  0.00  0.00    -0.219 NA
ATOM      7  C   UNL     1       1.292   0.412   0.000  0.00  0.00    +0.180 A 
ATOM      8  N   UNL     1       1.779  -0.254   0.000  0.00  0.00    -0.292 N 
ATOM      9  C   UNL     1       2.563   0.000   0.000  0.00  0.00    +0.167 A 
ENDROOT
BRANCH   2  10
ATOM     10  N   UNL     1       3.275   2.063   0.000  0.00  0.00    -0.290 N 
ATOM     11  C   UNL     1       4.021   2.421   0.000  0.00  0.00    +0.109 C 
ATOM     12  C   UNL     1       4.205   3.225   0.000  0.00  0.00    +0.094 C 
ATOM     13  N   UNL     1       3.688   3.871   0.000  0.00  0.00    -0.272 NA
ATOM     14  C   UNL     1       2.863   3.871   0.000  0.00  0.00    +0.074 C 
ATOM     15  C   UNL     1       2.350   3.225   0.000  0.00  0.00    +0.036 C 
ATOM     16  C   UNL     1       1.546   3.409   0.000  0.00  0.00    +0.003 C 
ATOM     17  C   UNL     1       2.534   2.421   0.000  0.00  0.00    +0.094 C 
BRANCH  13  18
ATOM     18  C   UNL     1       4.046   4.613   0.000  0.00  0.00    +0.058 C 
ATOM     19  C   UNL     1       3.988   5.434   0.000  0.00  0.00    +0.016 C 
ATOM     20  C   UNL     1       3.521   6.117   0.000  0.00  0.00    +0.001 C 
ATOM     21  C   UNL     1       4.730   5.075   0.000  0.00  0.00    +0.017 C 
ENDBRANCH  13  18
ENDBRANCH   2  10
BRANCH   8  22
ATOM     22  C   UNL     1       1.521  -1.038   0.000  0.00  0.00    +0.139 C 
BRANCH  22  23
ATOM     23  C   UNL     1       2.075  -1.650   0.000  0.00  0.00    +0.152 C 
ATOM     24  O   UNL     1       1.375  -2.088   0.000  0.00  0.00    -0.223 OA
ATOM     25  C   UNL     1       2.583  -1.000   0.000  0.00  0.00    +0.064 C 
ATOM     26  C   UNL     1       3.400  -1.117   0.000  0.00  0.00    +0.145 C 
ATOM     27  O   UNL     1       3.709  -1.879   0.000  0.00  0.00    -0.354 OA
ATOM     28  C   UNL     1       3.200  -2.529   0.000  0.00  0.00    +0.145 C 
ATOM     29  C   UNL     1       2.384  -2.417   0.000  0.00  0.00    +0.064 C 
ENDBRANCH  22  23
ENDBRANCH   8  22
TORSDOF 4
