REMARK  Name = 
REMARK  6 active torsions:
REMARK  status: ('A' for Active; 'I' for Inactive)
REMARK    1  A    between atoms: C_2  and  C_4
REMARK    2  A    between atoms: C_4  and  N_5
REMARK    3  A    between atoms: C_7  and  C_11
REMARK    4  A    between atoms: N_13  and  C_14
REMARK    5  A    between atoms: C_14  and  C_15
REMARK    6  A    between atoms: C_15  and  C_16
REMARK                            x       y       z     vdW  Elec       q    Type
REMARK                         _______ _______ _______ _____ _____    ______ ____
ROOT
ATOM      1  C   UNL     1       1.387  -2.408   0.000  0.00  0.00    +0.243 C 
ATOM      2  N   UNL     1       2.102  -1.996   0.000  0.00  0.00    -0.205 NA
ATOM      3  O   UNL     1       1.387  -3.233   0.000  0.00  0.00    -0.273 OA
ENDROOT
BRANCH   1   8
ATOM      4  N   UNL     1      -0.221  -1.004   0.000  0.00  0.00    -0.279 N 
ATOM      5  C   UNL     1      -0.633  -1.718   0.000  0.00  0.00    +0.226 C 
ATOM      6  O   UNL     1      -1.454  -1.804   0.000  0.00  0.00    -0.275 OA
ATOM      7  C   UNL     1      -0.081  -2.331   0.000  0.00  0.00    +0.096 C 
ATOM      8  C   UNL     1       0.672  -1.996   0.000  0.00  0.00    +0.107 C 
ATOM      9  C   UNL     1       0.586  -1.175   0.000  0.00  0.00    +0.103 C 
BRANCH   4  10
ATOM     10  C   UNL     1      -0.556  -0.250   0.000  0.00  0.00    +0.093 C 
BRANCH  10  12
ATOM     11  C   UNL     1      -1.712   0.590   0.000  0.00  0.00    +0.002 C 
ATOM     12  C   UNL     1      -1.377  -0.164   0.000  0.00  0.00    +0.020 C 
ATOM     13  C   UNL     1      -1.862  -0.831   0.000  0.00  0.00    +0.002 C 
ENDBRANCH  10  12
ENDBRANCH   4  10
ENDBRANCH   1   8
BRANCH   2  14
ATOM     14  C   UNL     1       2.816  -2.408   0.000  0.00  0.00    +0.125 C 
BRANCH  14  15
ATOM     15  C   UNL     1       3.530  -1.996   0.000  0.00  0.00    +0.111 C 
BRANCH  15  16
ATOM     16  C   UNL     1       4.245  -2.408   0.000  0.00  0.00    +0.238 A 
ATOM     17  O   UNL     1       4.331  -3.229   0.000  0.00  0.00    -0.337 OA
ATOM     18  N   UNL     1       5.138  -3.400   0.000  0.00  0.00    -0.061 NA
ATOM     19  C   UNL     1       5.551  -2.686   0.000  0.00  0.00    +0.181 A 
ATOM     20  C   UNL     1       6.371  -2.599   0.000  0.00  0.00    +0.077 C 
ATOM     21  N   UNL     1       4.999  -2.073   0.000  0.00  0.00    -0.195 NA
ENDBRANCH  15  16
ENDBRANCH  14  15
ENDBRANCH   2  14
TORSDOF 6
