REMARK  Name = 
REMARK  5 active torsions:
REMARK  status: ('A' for Active; 'I' for Inactive)
REMARK    1  A    between atoms: C_3  and  C_4
REMARK    2  A    between atoms: C_5  and  C_6
REMARK    3  A    between atoms: N_8  and  C_9
REMARK    4  A    between atoms: C_9  and  C_10
REMARK    5  A    between atoms: C_10  and  C_11
REMARK                            x       y       z     vdW  Elec       q    Type
REMARK                         _______ _______ _______ _____ _____    ______ ____
ROOT
ATOM      1  C   UNL     1       1.387  -2.408   0.000  0.00  0.00    +0.241 C 
ATOM      2  N   UNL     1       2.102  -1.996   0.000  0.00  0.00    -0.205 NA
ATOM      3  O   UNL     1       1.387  -3.233   0.000  0.00  0.00    -0.273 OA
ENDROOT
BRANCH   1   8
ATOM      4  C   UNL     1       0.260  -1.281   0.000  0.00  0.00    +0.030 C 
ATOM      5  C   UNL     1      -0.152  -1.996   0.000  0.00  0.00    +0.013 C 
ATOM      6  C   UNL     1      -0.974  -1.924   0.000  0.00  0.00    +0.001 C 
ATOM      7  C   UNL     1      -0.501  -2.743   0.000  0.00  0.00    +0.001 C 
ATOM      8  C   UNL     1       0.672  -1.996   0.000  0.00  0.00    +0.082 C 
BRANCH   4  12
ATOM      9  C   UNL     1      -0.454   0.781   0.000  0.00  0.00    +0.026 C 
ATOM     10  C   UNL     1      -0.454  -0.044   0.000  0.00  0.00    -0.048 C 
ATOM     11  C   UNL     1      -1.169  -0.456   0.000  0.00  0.00    +0.026 C 
ATOM     12  C   UNL     1       0.260  -0.456   0.000  0.00  0.00    -0.034 C 
ENDBRANCH   4  12
ENDBRANCH   1   8
BRANCH   2  13
ATOM     13  C   UNL     1       2.816  -2.408   0.000  0.00  0.00    +0.125 C 
BRANCH  13  14
ATOM     14  C   UNL     1       3.530  -1.996   0.000  0.00  0.00    +0.111 C 
BRANCH  14  15
ATOM     15  C   UNL     1       4.245  -2.408   0.000  0.00  0.00    +0.238 A 
ATOM     16  O   UNL     1       4.331  -3.229   0.000  0.00  0.00    -0.337 OA
ATOM     17  N   UNL     1       5.138  -3.400   0.000  0.00  0.00    -0.061 NA
ATOM     18  C   UNL     1       5.551  -2.686   0.000  0.00  0.00    +0.181 A 
ATOM     19  C   UNL     1       6.371  -2.599   0.000  0.00  0.00    +0.077 C 
ATOM     20  N   UNL     1       4.999  -2.073   0.000  0.00  0.00    -0.195 NA
ENDBRANCH  14  15
ENDBRANCH  13  14
ENDBRANCH   2  13
TORSDOF 5
