REMARK  Name = 
REMARK  4 active torsions:
REMARK  status: ('A' for Active; 'I' for Inactive)
REMARK    1  A    between atoms: N_7  and  C_8
REMARK    2  A    between atoms: C_8  and  C_9
REMARK    3  A    between atoms: N_11  and  C_12
REMARK    4  A    between atoms: C_12  and  C_13
REMARK                            x       y       z     vdW  Elec       q    Type
REMARK                         _______ _______ _______ _____ _____    ______ ____
ROOT
ATOM      1  C   UNL     1      -1.429   1.650   0.000  0.00  0.00    +0.138 C 
ATOM      2  N   UNL     1      -0.715   2.062   0.000  0.00  0.00    -0.247 N 
ATOM      3  C   UNL     1       0.000   1.650   0.000  0.00  0.00    +0.334 A 
ATOM      4  O   UNL     1       0.000   0.825   0.000  0.00  0.00    -0.246 OA
ATOM      5  N   UNL     1       0.715   2.062   0.000  0.00  0.00    -0.271 N 
ATOM      6  C   UNL     1       0.715   2.888   0.000  0.00  0.00    +0.085 A 
ATOM      7  C   UNL     1       0.000   3.300   0.000  0.00  0.00    +0.080 A 
ATOM      8  C   UNL     1      -0.715   2.888   0.000  0.00  0.00    +0.266 A 
ATOM      9  O   UNL     1      -1.429   3.300   0.000  0.00  0.00    -0.267 OA
ENDROOT
BRANCH   5  10
ATOM     10  C   UNL     1       1.429   1.650   0.000  0.00  0.00    +0.197 C 
BRANCH  10  11
ATOM     11  C   UNL     1       2.143   2.062   0.000  0.00  0.00    +0.265 C 
ATOM     12  N   UNL     1       2.858   1.650   0.000  0.00  0.00    -0.204 NA
ATOM     13  O   UNL     1       2.143   2.888   0.000  0.00  0.00    -0.271 OA
BRANCH  12  14
ATOM     14  C   UNL     1       3.572   2.062   0.000  0.00  0.00    +0.115 C 
BRANCH  14  15
ATOM     15  C   UNL     1       4.287   1.650   0.000  0.00  0.00    +0.022 C 
ATOM     16  C   UNL     1       4.699   0.935   0.000  0.00  0.00    +0.002 C 
ATOM     17  C   UNL     1       5.112   1.650   0.000  0.00  0.00    +0.002 C 
ENDBRANCH  14  15
ENDBRANCH  12  14
ENDBRANCH  10  11
ENDBRANCH   5  10
TORSDOF 4
