REMARK  Name = 
REMARK  4 active torsions:
REMARK  status: ('A' for Active; 'I' for Inactive)
REMARK    1  A    between atoms: C_2  and  C_3
REMARK    2  A    between atoms: C_3  and  N_5
REMARK    3  A    between atoms: N_8  and  C_9
REMARK    4  A    between atoms: C_14  and  N_15
REMARK                            x       y       z     vdW  Elec       q    Type
REMARK                         _______ _______ _______ _____ _____    ______ ____
ROOT
ATOM      1  C   UNL     1       2.858  -3.300   0.000  0.00  0.00    +0.106 A 
ATOM      2  C   UNL     1       3.572  -3.712   0.000  0.00  0.00    +0.147 A 
ATOM      3  N   UNL     1       4.287  -3.300   0.000  0.00  0.00    -0.228 NA
ATOM      4  C   UNL     1       4.287  -2.475   0.000  0.00  0.00    +0.100 A 
ATOM      5  C   UNL     1       3.572  -2.062   0.000  0.00  0.00    +0.022 A 
ATOM      6  C   UNL     1       2.858  -2.475   0.000  0.00  0.00    +0.021 A 
ENDROOT
BRANCH   2   7
ATOM      7  N   UNL     1       3.572  -4.537   0.000  0.00  0.00    -0.292 N 
ATOM      8  C   UNL     1       2.905  -5.022   0.000  0.00  0.00    +0.092 C 
ATOM      9  C   UNL     1       3.160  -5.807   0.000  0.00  0.00    +0.023 C 
ATOM     10  C   UNL     1       3.985  -5.807   0.000  0.00  0.00    +0.023 C 
ATOM     11  C   UNL     1       4.240  -5.022   0.000  0.00  0.00    +0.092 C 
ENDBRANCH   2   7
BRANCH   1  14
ATOM     12  N   UNL     1       0.715  -3.712   0.000  0.00  0.00    -0.189 NA
ATOM     13  C   UNL     1       1.429  -3.300   0.000  0.00  0.00    +0.344 C 
ATOM     14  N   UNL     1       2.143  -3.712   0.000  0.00  0.00    -0.158 NA
ATOM     15  O   UNL     1       1.429  -2.475   0.000  0.00  0.00    -0.249 OA
BRANCH  12  16
ATOM     16  C   UNL     1       0.000  -3.300   0.000  0.00  0.00    +0.097 C 
ATOM     17  C   UNL     1       0.000  -2.475   0.000  0.00  0.00    +0.023 C 
BRANCH  16  19
ATOM     18  C   UNL     1      -1.429  -3.300   0.000  0.00  0.00    +0.002 C 
ATOM     19  C   UNL     1      -0.715  -3.712   0.000  0.00  0.00    +0.022 C 
ENDBRANCH  16  19
ENDBRANCH  12  16
ENDBRANCH   1  14
TORSDOF 4
