REMARK  Name = 
REMARK  3 active torsions:
REMARK  status: ('A' for Active; 'I' for Inactive)
REMARK    1  A    between atoms: O_2  and  C_3
REMARK    2  A    between atoms: C_6  and  N_7
REMARK    3  A    between atoms: N_10  and  C_11
REMARK                            x       y       z     vdW  Elec       q    Type
REMARK                         _______ _______ _______ _____ _____    ______ ____
ROOT
ATOM      1  N   UNL     1      -0.275   1.407   0.000  0.00  0.00    -0.159 NA
ATOM      2  C   UNL     1      -0.760   2.075   0.000  0.00  0.00    +0.344 C 
ATOM      3  N   UNL     1      -0.425   2.828   0.000  0.00  0.00    -0.187 NA
ATOM      4  O   UNL     1      -1.581   1.988   0.000  0.00  0.00    -0.249 OA
ENDROOT
BRANCH   3   5
ATOM      5  C   UNL     1      -0.910   3.496   0.000  0.00  0.00    +0.122 C 
ATOM      6  C   UNL     1      -0.655   4.280   0.000  0.00  0.00    +0.172 C 
ATOM      7  S   UNL     1      -1.322   4.765   0.000  0.00  0.00    -0.008 S 
ATOM      8  O   UNL     1      -0.770   5.378   0.000  0.00  0.00    -0.173 OA
ATOM      9  O   UNL     1      -1.874   5.378   0.000  0.00  0.00    -0.173 OA
ATOM     10  C   UNL     1      -1.990   4.280   0.000  0.00  0.00    +0.153 C 
ATOM     11  C   UNL     1      -1.735   3.496   0.000  0.00  0.00    +0.049 C 
ENDBRANCH   3   5
BRANCH   1  15
ATOM     12  C   UNL     1      -1.282  -0.854   0.000  0.00  0.00    +0.225 A 
ATOM     13  N   UNL     1      -0.462  -0.768   0.000  0.00  0.00    -0.209 NA
ATOM     14  C   UNL     1      -0.126  -0.014   0.000  0.00  0.00    +0.119 A 
ATOM     15  C   UNL     1      -0.611   0.653   0.000  0.00  0.00    +0.094 A 
ATOM     16  C   UNL     1      -1.431   0.567   0.000  0.00  0.00    +0.023 A 
ATOM     17  C   UNL     1      -1.767  -0.186   0.000  0.00  0.00    +0.059 A 
BRANCH  12  19
ATOM     18  C   UNL     1      -1.133  -2.275   0.000  0.00  0.00    +0.254 C 
ATOM     19  O   UNL     1      -1.618  -1.608   0.000  0.00  0.00    -0.456 OA
ENDBRANCH  12  19
ENDBRANCH   1  15
TORSDOF 3
