REMARK  Name = 
REMARK  4 active torsions:
REMARK  status: ('A' for Active; 'I' for Inactive)
REMARK    1  A    between atoms: C_7  and  C_8
REMARK    2  A    between atoms: C_8  and  C_9
REMARK    3  A    between atoms: N_11  and  C_12
REMARK    4  A    between atoms: C_12  and  C_13
REMARK                            x       y       z     vdW  Elec       q    Type
REMARK                         _______ _______ _______ _____ _____    ______ ____
ROOT
ATOM      1  C   UNL     1       2.102  -1.996   0.000  0.00  0.00    +0.246 C 
ATOM      2  N   UNL     1       2.816  -2.408   0.000  0.00  0.00    -0.205 NA
ATOM      3  O   UNL     1       2.102  -1.171   0.000  0.00  0.00    -0.273 OA
ENDROOT
BRANCH   1   4
ATOM      4  C   UNL     1       1.387  -2.408   0.000  0.00  0.00    +0.117 C 
BRANCH   4   7
ATOM      5  C   UNL     1      -0.253  -3.138   0.000  0.00  0.00    +0.055 C 
ATOM      6  C   UNL     1      -0.081  -2.331   0.000  0.00  0.00    +0.097 A 
ATOM      7  C   UNL     1       0.672  -1.996   0.000  0.00  0.00    +0.037 A 
ATOM      8  C   UNL     1       0.586  -1.175   0.000  0.00  0.00    +0.151 A 
ATOM      9  C   UNL     1       1.199  -0.623   0.000  0.00  0.00    +0.075 C 
ATOM     10  O   UNL     1      -0.221  -1.004   0.000  0.00  0.00    -0.358 OA
ATOM     11  N   UNL     1      -0.633  -1.718   0.000  0.00  0.00    -0.082 NA
ENDBRANCH   4   7
ENDBRANCH   1   4
BRANCH   2  12
ATOM     12  C   UNL     1       3.530  -1.996   0.000  0.00  0.00    +0.118 C 
BRANCH  12  13
ATOM     13  C   UNL     1       4.245  -2.408   0.000  0.00  0.00    +0.054 C 
ATOM     14  C   UNL     1       4.331  -3.229   0.000  0.00  0.00    +0.144 C 
ATOM     15  O   UNL     1       5.138  -3.400   0.000  0.00  0.00    -0.354 OA
ATOM     16  C   UNL     1       5.551  -2.686   0.000  0.00  0.00    +0.142 C 
ATOM     17  C   UNL     1       4.999  -2.073   0.000  0.00  0.00    +0.036 C 
ENDBRANCH  12  13
ENDBRANCH   2  12
TORSDOF 4
