REMARK  Name = 
REMARK  5 active torsions:
REMARK  status: ('A' for Active; 'I' for Inactive)
REMARK    1  A    between atoms: C_4  and  N_5
REMARK    2  A    between atoms: N_8  and  C_9
REMARK    3  A    between atoms: C_9  and  C_10
REMARK    4  A    between atoms: C_10  and  C_11
REMARK    5  A    between atoms: C_11  and  N_12
REMARK                            x       y       z     vdW  Elec       q    Type
REMARK                         _______ _______ _______ _____ _____    ______ ____
ROOT
ATOM      1  N   UNL     1       0.589  -4.462   0.000  0.00  0.00    -0.142 NA
ATOM      2  C   UNL     1       1.304  -4.050   0.000  0.00  0.00    +0.345 C 
ATOM      3  N   UNL     1       2.018  -4.462   0.000  0.00  0.00    -0.187 NA
ATOM      4  O   UNL     1       1.304  -3.225   0.000  0.00  0.00    -0.249 OA
ENDROOT
BRANCH   1  10
ATOM      5  C   UNL     1      -1.354  -2.304   0.000  0.00  0.00    +0.054 C 
ATOM      6  C   UNL     1      -1.018  -3.058   0.000  0.00  0.00    +0.082 A 
ATOM      7  N   UNL     1      -1.431  -3.772   0.000  0.00  0.00    -0.172 NA
ATOM      8  N   UNL     1      -0.879  -4.385   0.000  0.00  0.00    -0.234 N 
ATOM      9  C   UNL     1      -1.050  -5.192   0.000  0.00  0.00    +0.155 C 
ATOM     10  C   UNL     1      -0.125  -4.050   0.000  0.00  0.00    +0.154 A 
ATOM     11  C   UNL     1      -0.211  -3.229   0.000  0.00  0.00    +0.052 A 
ENDBRANCH   1  10
BRANCH   3  12
ATOM     12  C   UNL     1       2.733  -4.050   0.000  0.00  0.00    +0.118 C 
BRANCH  12  13
ATOM     13  C   UNL     1       3.447  -4.462   0.000  0.00  0.00    +0.041 C 
BRANCH  13  14
ATOM     14  C   UNL     1       4.162  -4.050   0.000  0.00  0.00    +0.074 C 
BRANCH  14  15
ATOM     15  N   UNL     1       4.876  -4.462   0.000  0.00  0.00    -0.273 NA
ATOM     16  C   UNL     1       4.814  -5.285   0.000  0.00  0.00    +0.072 C 
ATOM     17  C   UNL     1       5.419  -5.846   0.000  0.00  0.00    +0.017 C 
ATOM     18  C   UNL     1       6.235  -5.723   0.000  0.00  0.00    +0.001 C 
ATOM     19  C   UNL     1       6.648  -5.008   0.000  0.00  0.00    +0.001 C 
ATOM     20  C   UNL     1       6.346  -4.240   0.000  0.00  0.00    +0.017 C 
ATOM     21  C   UNL     1       5.558  -3.997   0.000  0.00  0.00    +0.072 C 
ENDBRANCH  14  15
ENDBRANCH  13  14
ENDBRANCH  12  13
ENDBRANCH   3  12
TORSDOF 5
