REMARK  Name = 
REMARK  8 active torsions:
REMARK  status: ('A' for Active; 'I' for Inactive)
REMARK    1  A    between atoms: N_2  and  C_12
REMARK    2  A    between atoms: C_5  and  N_8
REMARK    3  A    between atoms: N_8  and  C_13
REMARK    4  A    between atoms: C_9  and  C_13
REMARK    5  A    between atoms: C_12  and  C_15
REMARK    6  A    between atoms: C_15  and  C_20
REMARK    7  A    between atoms: C_15  and  C_24
REMARK    8  A    between atoms: C_18  and  O_22
REMARK                            x       y       z     vdW  Elec       q    Type
REMARK                         _______ _______ _______ _____ _____    ______ ____
ROOT
ATOM      1  C   UNL     1       2.562   0.825   0.000  0.00  0.00    +0.149 A 
ATOM      2  C   UNL     1       3.275   1.238   0.000  0.00  0.00    +0.154 A 
ATOM      3  N   UNL     1       3.992   0.825   0.000  0.00  0.00    -0.207 NA
ATOM      4  C   UNL     1       3.992   0.000   0.000  0.00  0.00    +0.201 A 
ATOM      5  N   UNL     1       3.275  -0.412   0.000  0.00  0.00    -0.205 NA
ATOM      6  N   UNL     1       1.779   1.083   0.000  0.00  0.00    -0.219 NA
ATOM      7  C   UNL     1       1.292   0.412   0.000  0.00  0.00    +0.180 A 
ATOM      8  N   UNL     1       1.779  -0.254   0.000  0.00  0.00    -0.294 N 
ATOM      9  C   UNL     1       2.562   0.000   0.000  0.00  0.00    +0.167 A 
ENDROOT
BRANCH   2  10
ATOM     10  N   UNL     1       3.275   2.062   0.000  0.00  0.00    -0.289 N 
ATOM     11  C   UNL     1       2.562   2.475   0.000  0.00  0.00    +0.114 C 
BRANCH  10  12
ATOM     12  C   UNL     1       3.992   2.475   0.000  0.00  0.00    +0.108 C 
BRANCH  12  13
ATOM     13  C   UNL     1       3.992   3.300   0.000  0.00  0.00    +0.080 C 
ATOM     14  C   UNL     1       4.658   3.788   0.000  0.00  0.00    +0.049 C 
ATOM     15  C   UNL     1       4.404   4.567   0.000  0.00  0.00    +0.133 C 
ATOM     16  C   UNL     1       3.579   4.567   0.000  0.00  0.00    +0.102 C 
ATOM     17  N   UNL     1       3.325   3.788   0.000  0.00  0.00    -0.269 NA
ATOM     18  C   UNL     1       2.538   3.533   0.000  0.00  0.00    +0.090 C 
BRANCH  15  19
ATOM     19  O   UNL     1       4.888   5.233   0.000  0.00  0.00    -0.352 OA
ATOM     20  C   UNL     1       4.554   5.987   0.000  0.00  0.00    +0.174 C 
ENDBRANCH  15  19
ENDBRANCH  12  13
ENDBRANCH  10  12
ENDBRANCH   2  10
BRANCH   8  21
ATOM     21  C   UNL     1       1.521  -1.038   0.000  0.00  0.00    +0.112 C 
BRANCH  21  22
ATOM     22  C   UNL     1       2.075  -1.650   0.000  0.00  0.00    +0.058 C 
BRANCH  22  23
ATOM     23  C   UNL     1       1.821  -2.433   0.000  0.00  0.00    +0.037 C 
ATOM     24  C   UNL     1       2.304  -3.104   0.000  0.00  0.00    +0.035 C 
ATOM     25  C   UNL     1       1.821  -3.771   0.000  0.00  0.00    +0.142 C 
ATOM     26  O   UNL     1       1.033  -3.517   0.000  0.00  0.00    -0.354 OA
ATOM     27  C   UNL     1       1.033  -2.692   0.000  0.00  0.00    +0.142 C 
ENDBRANCH  22  23
BRANCH  22  28
ATOM     28  C   UNL     1       2.883  -1.479   0.000  0.00  0.00    +0.184 C 
ATOM     29  O   UNL     1       3.433  -2.092   0.000  0.00  0.00    -0.220 OA
ENDBRANCH  22  28
ENDBRANCH  21  22
ENDBRANCH   8  21
TORSDOF 8
