REMARK  Name = 
REMARK  6 active torsions:
REMARK  status: ('A' for Active; 'I' for Inactive)
REMARK    1  A    between atoms: O_2  and  C_3
REMARK    2  A    between atoms: C_6  and  N_7
REMARK    3  A    between atoms: C_8  and  C_10
REMARK    4  A    between atoms: C_10  and  O_12
REMARK    5  A    between atoms: O_12  and  C_13
REMARK    6  A    between atoms: C_13  and  C_14
REMARK                            x       y       z     vdW  Elec       q    Type
REMARK                         _______ _______ _______ _____ _____    ______ ____
ROOT
ATOM      1  N   UNL     1       2.143  -3.712   0.000  0.00  0.00    -0.176 NA
ATOM      2  C   UNL     1       2.858  -4.125   0.000  0.00  0.00    +0.273 C 
ATOM      3  O   UNL     1       2.858  -4.950   0.000  0.00  0.00    -0.270 OA
ENDROOT
BRANCH   1   7
ATOM      4  C   UNL     1       0.000  -4.950   0.000  0.00  0.00    +0.225 A 
ATOM      5  N   UNL     1       0.715  -5.362   0.000  0.00  0.00    -0.209 NA
ATOM      6  C   UNL     1       1.429  -4.950   0.000  0.00  0.00    +0.119 A 
ATOM      7  C   UNL     1       1.429  -4.125   0.000  0.00  0.00    +0.093 A 
ATOM      8  C   UNL     1       0.715  -3.712   0.000  0.00  0.00    +0.023 A 
ATOM      9  C   UNL     1       0.000  -4.125   0.000  0.00  0.00    +0.059 A 
BRANCH   4  11
ATOM     10  C   UNL     1      -0.715  -6.188   0.000  0.00  0.00    +0.254 C 
ATOM     11  O   UNL     1      -0.715  -5.362   0.000  0.00  0.00    -0.456 OA
ENDBRANCH   4  11
ENDBRANCH   1   7
BRANCH   2  12
ATOM     12  C   UNL     1       3.572  -3.712   0.000  0.00  0.00    +0.193 C 
ATOM     13  C   UNL     1       3.572  -2.888   0.000  0.00  0.00    +0.042 C 
BRANCH  12  14
ATOM     14  O   UNL     1       4.287  -4.125   0.000  0.00  0.00    -0.344 OA
BRANCH  14  15
ATOM     15  C   UNL     1       5.001  -3.712   0.000  0.00  0.00    +0.172 C 
BRANCH  15  16
ATOM     16  C   UNL     1       5.716  -4.125   0.000  0.00  0.00    +0.145 C 
ATOM     17  O   UNL     1       5.716  -4.950   0.000  0.00  0.00    -0.354 OA
ATOM     18  C   UNL     1       6.430  -5.362   0.000  0.00  0.00    +0.142 C 
ATOM     19  C   UNL     1       7.145  -4.950   0.000  0.00  0.00    +0.032 C 
ATOM     20  C   UNL     1       7.145  -4.125   0.000  0.00  0.00    +0.005 C 
ATOM     21  C   UNL     1       6.430  -3.712   0.000  0.00  0.00    +0.032 C 
ENDBRANCH  15  16
ENDBRANCH  14  15
ENDBRANCH  12  14
ENDBRANCH   2  12
TORSDOF 6
