REMARK  Name = 
REMARK  0 active torsions:
REMARK  status: ('A' for Active; 'I' for Inactive)
REMARK                            x       y       z     vdW  Elec       q    Type
REMARK                         _______ _______ _______ _____ _____    ______ ____
ROOT
ATOM      1  O   UNL     1       0.715  -0.412   0.000  0.00  0.00    -0.241 OA
ATOM      2  C   UNL     1       0.715  -1.238   0.000  0.00  0.00    +0.389 A 
ATOM      3  N   UNL     1       0.000  -1.650   0.000  0.00  0.00    -0.148 NA
ATOM      4  C   UNL     1       0.000  -2.475   0.000  0.00  0.00    +0.317 A 
ATOM      5  O   UNL     1      -0.715  -2.888   0.000  0.00  0.00    -0.262 OA
ATOM      6  C   UNL     1       0.715  -2.888   0.000  0.00  0.00    +0.212 A 
ATOM      7  N   UNL     1       0.715  -3.712   0.000  0.00  0.00    -0.283 N 
ATOM      8  C   UNL     1       0.000  -4.125   0.000  0.00  0.00    +0.124 C 
ATOM      9  C   UNL     1       0.000  -4.950   0.000  0.00  0.00    +0.164 C 
ATOM     10  O   UNL     1       0.715  -5.362   0.000  0.00  0.00    -0.350 OA
ATOM     11  C   UNL     1       1.429  -4.950   0.000  0.00  0.00    +0.164 C 
ATOM     12  C   UNL     1       1.429  -4.125   0.000  0.00  0.00    +0.124 C 
ATOM     13  N   UNL     1       1.429  -2.475   0.000  0.00  0.00    -0.124 NA
ATOM     14  N   UNL     1       1.429  -1.650   0.000  0.00  0.00    -0.087 NA
ENDROOT
TORSDOF 0
