REMARK  Name = 
REMARK  7 active torsions:
REMARK  status: ('A' for Active; 'I' for Inactive)
REMARK    1  A    between atoms: C_2  and  C_3
REMARK    2  A    between atoms: N_11  and  C_12
REMARK    3  A    between atoms: C_12  and  C_13
REMARK    4  A    between atoms: C_13  and  C_15
REMARK    5  A    between atoms: C_15  and  O_16
REMARK    6  A    between atoms: O_16  and  C_17
REMARK    7  A    between atoms: C_17  and  C_18
REMARK                            x       y       z     vdW  Elec       q    Type
REMARK                         _______ _______ _______ _____ _____    ______ ____
ROOT
ATOM      1  C   UNL     1       2.849  -0.381   0.000  0.00  0.00    +0.143 C 
ENDROOT
BRANCH   1   3
ATOM      2  C   UNL     1       2.048  -1.613   0.000  0.00  0.00    +0.154 A 
ATOM      3  N   UNL     1       2.135  -0.793   0.000  0.00  0.00    -0.310 N 
ATOM      4  C   UNL     1       1.381  -0.457   0.000  0.00  0.00    +0.079 A 
ATOM      5  C   UNL     1       0.829  -1.071   0.000  0.00  0.00    +0.098 A 
ATOM      6  C   UNL     1       0.022  -0.899   0.000  0.00  0.00    +0.021 A 
ATOM      7  C   UNL     1      -0.233  -0.114   0.000  0.00  0.00    +0.002 A 
ATOM      8  C   UNL     1       0.319   0.499   0.000  0.00  0.00    +0.002 A 
ATOM      9  C   UNL     1       1.126   0.327   0.000  0.00  0.00    +0.019 A 
ATOM     10  N   UNL     1       1.241  -1.785   0.000  0.00  0.00    -0.228 NA
BRANCH   2  12
ATOM     11  O   UNL     1       2.490  -2.973   0.000  0.00  0.00    -0.212 OA
ATOM     12  C   UNL     1       2.661  -2.166   0.000  0.00  0.00    +0.245 C 
ENDBRANCH   2  12
ENDBRANCH   1   3
BRANCH   1  13
ATOM     13  C   UNL     1       3.563  -0.793   0.000  0.00  0.00    +0.204 C 
ATOM     14  O   UNL     1       3.563  -1.618   0.000  0.00  0.00    -0.218 OA
BRANCH  13  15
ATOM     15  C   UNL     1       4.278  -0.381   0.000  0.00  0.00    +0.177 C 
BRANCH  15  16
ATOM     16  O   UNL     1       4.992  -0.793   0.000  0.00  0.00    -0.346 OA
BRANCH  16  17
ATOM     17  C   UNL     1       5.707  -0.381   0.000  0.00  0.00    +0.171 C 
BRANCH  17  18
ATOM     18  C   UNL     1       5.707   0.445   0.000  0.00  0.00    +0.035 A 
ATOM     19  C   UNL     1       6.421   0.857   0.000  0.00  0.00    +0.138 A 
ATOM     20  F   UNL     1       7.136   0.445   0.000  0.00  0.00    -0.204 F 
ATOM     21  C   UNL     1       6.421   1.682   0.000  0.00  0.00    +0.029 A 
ATOM     22  C   UNL     1       5.707   2.095   0.000  0.00  0.00    +0.002 A 
ATOM     23  C   UNL     1       4.992   1.682   0.000  0.00  0.00    -0.000 A 
ATOM     24  C   UNL     1       4.992   0.857   0.000  0.00  0.00    +0.000 A 
ENDBRANCH  17  18
ENDBRANCH  16  17
ENDBRANCH  15  16
ENDBRANCH  13  15
ENDBRANCH   1  13
TORSDOF 7
