REMARK  Name = 
REMARK  6 active torsions:
REMARK  status: ('A' for Active; 'I' for Inactive)
REMARK    1  A    between atoms: N_2  and  C_11
REMARK    2  A    between atoms: N_6  and  C_12
REMARK    3  A    between atoms: N_6  and  C_18
REMARK    4  A    between atoms: C_10  and  C_11
REMARK    5  A    between atoms: C_10  and  C_21
REMARK    6  A    between atoms: C_12  and  C_14
REMARK                            x       y       z     vdW  Elec       q    Type
REMARK                         _______ _______ _______ _____ _____    ______ ____
ROOT
ATOM      1  C   UNL     1       1.921  -0.283   0.000  0.00  0.00    +0.149 A 
ATOM      2  N   UNL     1       1.137  -0.029   0.000  0.00  0.00    -0.219 NA
ATOM      3  C   UNL     1       0.650  -0.696   0.000  0.00  0.00    +0.180 A 
ATOM      4  N   UNL     1       1.137  -1.363   0.000  0.00  0.00    -0.294 N 
ATOM      5  C   UNL     1       1.921  -1.108   0.000  0.00  0.00    +0.167 A 
ATOM      6  N   UNL     1       2.638  -1.521   0.000  0.00  0.00    -0.205 NA
ATOM      7  C   UNL     1       3.350  -1.108   0.000  0.00  0.00    +0.201 A 
ATOM      8  N   UNL     1       3.350  -0.283   0.000  0.00  0.00    -0.207 NA
ATOM      9  C   UNL     1       2.638   0.129   0.000  0.00  0.00    +0.154 A 
ATOM     10  N   UNL     1       2.638   0.954   0.000  0.00  0.00    -0.294 N 
ENDROOT
BRANCH  10  11
ATOM     11  C   UNL     1       3.350   1.367   0.000  0.00  0.00    +0.074 C 
ATOM     12  C   UNL     1       3.350   2.192   0.000  0.00  0.00    +0.020 C 
ATOM     13  C   UNL     1       4.067   2.604   0.000  0.00  0.00    +0.002 C 
ATOM     14  C   UNL     1       4.779   2.192   0.000  0.00  0.00    +0.000 C 
ATOM     15  C   UNL     1       4.779   1.367   0.000  0.00  0.00    +0.002 C 
ATOM     16  C   UNL     1       4.067   0.954   0.000  0.00  0.00    +0.020 C 
ENDBRANCH  10  11
BRANCH   4  17
ATOM     17  C   UNL     1       0.883  -2.150   0.000  0.00  0.00    +0.116 C 
BRANCH  17  18
ATOM     18  C   UNL     1       0.075  -2.321   0.000  0.00  0.00    +0.106 C 
ATOM     19  C   UNL     1      -0.096  -1.512   0.000  0.00  0.00    +0.149 C 
ATOM     20  O   UNL     1      -0.904  -1.683   0.000  0.00  0.00    -0.353 OA
ATOM     21  C   UNL     1      -0.733  -2.492   0.000  0.00  0.00    +0.149 C 
BRANCH  18  22
ATOM     22  C   UNL     1       0.246  -3.125   0.000  0.00  0.00    +0.189 C 
ATOM     23  O   UNL     1       1.029  -3.383   0.000  0.00  0.00    -0.220 OA
ENDBRANCH  18  22
ENDBRANCH  17  18
ENDBRANCH   4  17
BRANCH  10  24
ATOM     24  C   UNL     1       1.921   1.367   0.000  0.00  0.00    +0.092 C 
BRANCH  24  25
ATOM     25  C   UNL     1       1.921   2.192   0.000  0.00  0.00    +0.020 C 
ATOM     26  C   UNL     1       2.333   2.904   0.000  0.00  0.00    +0.002 C 
ATOM     27  C   UNL     1       1.508   2.904   0.000  0.00  0.00    +0.002 C 
ENDBRANCH  24  25
ENDBRANCH  10  24
TORSDOF 6
