REMARK  Name = 
REMARK  7 active torsions:
REMARK  status: ('A' for Active; 'I' for Inactive)
REMARK    1  A    between atoms: C_2  and  C_4
REMARK    2  A    between atoms: C_4  and  N_5
REMARK    3  A    between atoms: C_6  and  C_8
REMARK    4  A    between atoms: C_8  and  N_9
REMARK    5  A    between atoms: N_9  and  C_10
REMARK    6  A    between atoms: C_10  and  C_11
REMARK    7  A    between atoms: C_11  and  N_12
REMARK                            x       y       z     vdW  Elec       q    Type
REMARK                         _______ _______ _______ _____ _____    ______ ____
ROOT
ATOM      1  C   UNL     1       6.369  -4.321   0.000  0.00  0.00    +0.175 C 
ENDROOT
BRANCH   1   3
ATOM      2  N   UNL     1       4.940  -4.321   0.000  0.00  0.00    -0.204 NA
ATOM      3  C   UNL     1       5.654  -3.908   0.000  0.00  0.00    +0.259 C 
ATOM      4  O   UNL     1       5.654  -3.083   0.000  0.00  0.00    -0.272 OA
BRANCH   2   5
ATOM      5  C   UNL     1       4.225  -3.908   0.000  0.00  0.00    +0.115 C 
BRANCH   5   7
ATOM      6  C   UNL     1       2.796  -3.908   0.000  0.00  0.00    +0.002 C 
ATOM      7  C   UNL     1       3.511  -4.321   0.000  0.00  0.00    +0.022 C 
ATOM      8  C   UNL     1       3.511  -5.146   0.000  0.00  0.00    +0.002 C 
ENDBRANCH   5   7
ENDBRANCH   2   5
ENDBRANCH   1   3
BRANCH   1   9
ATOM      9  N   UNL     1       7.083  -3.908   0.000  0.00  0.00    -0.206 NA
BRANCH   9  10
ATOM     10  C   UNL     1       7.798  -4.321   0.000  0.00  0.00    +0.116 C 
BRANCH  10  11
ATOM     11  C   UNL     1       8.512  -3.908   0.000  0.00  0.00    +0.146 C 
BRANCH  11  12
ATOM     12  N   UNL     1       9.227  -4.321   0.000  0.00  0.00    -0.248 N 
ATOM     13  N   UNL     1       9.313  -5.141   0.000  0.00  0.00    -0.168 NA
ATOM     14  C   UNL     1      10.120  -5.312   0.000  0.00  0.00    +0.122 A 
ATOM     15  C   UNL     1      10.532  -4.598   0.000  0.00  0.00    +0.043 A 
ATOM     16  C   UNL     1       9.980  -3.985   0.000  0.00  0.00    +0.097 A 
ENDBRANCH  11  12
ENDBRANCH  10  11
ENDBRANCH   9  10
ENDBRANCH   1   9
TORSDOF 7
