REMARK  Name = 
REMARK  4 active torsions:
REMARK  status: ('A' for Active; 'I' for Inactive)
REMARK    1  A    between atoms: C_2  and  C_3
REMARK    2  A    between atoms: C_2  and  N_9
REMARK    3  A    between atoms: C_3  and  N_4
REMARK    4  A    between atoms: C_10  and  C_12
REMARK                            x       y       z     vdW  Elec       q    Type
REMARK                         _______ _______ _______ _____ _____    ______ ____
ROOT
ATOM      1  N   UNL     1       1.457  -2.025   0.000  0.00  0.00    -0.204 NA
ATOM      2  C   UNL     1       2.171  -2.437   0.000  0.00  0.00    +0.261 C 
ATOM      3  O   UNL     1       2.171  -3.262   0.000  0.00  0.00    -0.271 OA
ENDROOT
BRANCH   2   4
ATOM      4  C   UNL     1       2.886  -2.025   0.000  0.00  0.00    +0.173 C 
ATOM      5  N   UNL     1       3.640  -2.360   0.000  0.00  0.00    -0.198 NA
ATOM      6  C   UNL     1       4.192  -1.747   0.000  0.00  0.00    +0.242 C 
ATOM      7  O   UNL     1       5.012  -1.833   0.000  0.00  0.00    -0.273 OA
ATOM      8  C   UNL     1       3.779  -1.033   0.000  0.00  0.00    +0.089 C 
ATOM      9  C   UNL     1       2.972  -1.204   0.000  0.00  0.00    +0.041 C 
ENDBRANCH   2   4
BRANCH   1  11
ATOM     10  C   UNL     1       0.743  -3.262   0.000  0.00  0.00    +0.026 C 
ATOM     11  C   UNL     1       0.743  -2.437   0.000  0.00  0.00    +0.120 C 
BRANCH  11  12
ATOM     12  C   UNL     1       0.028  -2.025   0.000  0.00  0.00    +0.149 C 
BRANCH  12  13
ATOM     13  N   UNL     1      -0.686  -2.437   0.000  0.00  0.00    -0.248 N 
ATOM     14  N   UNL     1      -1.440  -2.102   0.000  0.00  0.00    -0.168 NA
ATOM     15  C   UNL     1      -1.992  -2.715   0.000  0.00  0.00    +0.122 A 
ATOM     16  C   UNL     1      -1.580  -3.429   0.000  0.00  0.00    +0.043 A 
ATOM     17  C   UNL     1      -0.773  -3.258   0.000  0.00  0.00    +0.097 A 
ENDBRANCH  12  13
ENDBRANCH  11  12
ENDBRANCH   1  11
TORSDOF 4
