REMARK  Name = 
REMARK  4 active torsions:
REMARK  status: ('A' for Active; 'I' for Inactive)
REMARK    1  A    between atoms: N_6  and  C_7
REMARK    2  A    between atoms: C_7  and  C_8
REMARK    3  A    between atoms: N_10  and  C_11
REMARK    4  A    between atoms: C_11  and  C_12
REMARK                            x       y       z     vdW  Elec       q    Type
REMARK                         _______ _______ _______ _____ _____    ______ ____
ROOT
ATOM      1  C   UNL     1       0.743  -2.437   0.000  0.00  0.00    +0.266 C 
ATOM      2  N   UNL     1       1.457  -2.025   0.000  0.00  0.00    -0.204 NA
ATOM      3  O   UNL     1       0.743  -3.262   0.000  0.00  0.00    -0.271 OA
ENDROOT
BRANCH   1   4
ATOM      4  C   UNL     1       0.028  -2.025   0.000  0.00  0.00    +0.213 C 
BRANCH   4   8
ATOM      5  C   UNL     1      -1.915  -4.183   0.000  0.00  0.00    +0.054 C 
ATOM      6  C   UNL     1      -1.580  -3.429   0.000  0.00  0.00    +0.080 A 
ATOM      7  N   UNL     1      -0.773  -3.258   0.000  0.00  0.00    -0.174 NA
ATOM      8  N   UNL     1      -0.686  -2.437   0.000  0.00  0.00    -0.246 N 
ATOM      9  C   UNL     1      -1.440  -2.102   0.000  0.00  0.00    +0.058 A 
ATOM     10  C   UNL     1      -1.612  -1.295   0.000  0.00  0.00    +0.052 C 
ATOM     11  C   UNL     1      -1.992  -2.715   0.000  0.00  0.00    +0.031 A 
ENDBRANCH   4   8
ENDBRANCH   1   4
BRANCH   2  12
ATOM     12  C   UNL     1       2.171  -2.437   0.000  0.00  0.00    +0.117 C 
BRANCH  12  13
ATOM     13  C   UNL     1       2.886  -2.025   0.000  0.00  0.00    +0.047 C 
ATOM     14  C   UNL     1       3.640  -2.360   0.000  0.00  0.00    +0.153 C 
ATOM     15  S   UNL     1       4.192  -1.747   0.000  0.00  0.00    -0.010 S 
ATOM     16  O   UNL     1       4.744  -2.360   0.000  0.00  0.00    -0.173 OA
ATOM     17  O   UNL     1       4.859  -1.262   0.000  0.00  0.00    -0.173 OA
ATOM     18  C   UNL     1       3.779  -1.033   0.000  0.00  0.00    +0.151 C 
ATOM     19  C   UNL     1       2.972  -1.204   0.000  0.00  0.00    +0.029 C 
ENDBRANCH  12  13
ENDBRANCH   2  12
TORSDOF 4
