REMARK  Name = 
REMARK  5 active torsions:
REMARK  status: ('A' for Active; 'I' for Inactive)
REMARK    1  A    between atoms: C_2  and  C_5
REMARK    2  A    between atoms: N_8  and  C_9
REMARK    3  A    between atoms: C_9  and  C_10
REMARK    4  A    between atoms: N_12  and  C_13
REMARK    5  A    between atoms: C_13  and  C_14
REMARK                            x       y       z     vdW  Elec       q    Type
REMARK                         _______ _______ _______ _____ _____    ______ ____
ROOT
ATOM      1  C   UNL     1       1.387  -2.408   0.000  0.00  0.00    +0.214 C 
ENDROOT
BRANCH   1   4
ATOM      2  C   UNL     1      -0.633  -1.718   0.000  0.00  0.00    +0.174 A 
ATOM      3  N   UNL     1      -0.081  -2.331   0.000  0.00  0.00    -0.165 NA
ATOM      4  N   UNL     1       0.672  -1.996   0.000  0.00  0.00    -0.240 N 
ATOM      5  C   UNL     1       0.586  -1.175   0.000  0.00  0.00    +0.097 A 
ATOM      6  C   UNL     1      -0.221  -1.004   0.000  0.00  0.00    +0.045 A 
BRANCH   2   8
ATOM      7  F   UNL     1      -2.274  -1.891   0.000  0.00  0.00    -0.164 F 
ATOM      8  C   UNL     1      -1.454  -1.804   0.000  0.00  0.00    +0.437 C 
ATOM      9  F   UNL     1      -1.540  -0.984   0.000  0.00  0.00    -0.164 F 
ATOM     10  F   UNL     1      -1.367  -2.625   0.000  0.00  0.00    -0.164 F 
ENDBRANCH   2   8
ENDBRANCH   1   4
BRANCH   1  11
ATOM     11  C   UNL     1       2.102  -1.996   0.000  0.00  0.00    +0.266 C 
ATOM     12  N   UNL     1       2.816  -2.408   0.000  0.00  0.00    -0.201 NA
ATOM     13  O   UNL     1       2.102  -1.171   0.000  0.00  0.00    -0.271 OA
BRANCH  12  14
ATOM     14  C   UNL     1       3.530  -1.996   0.000  0.00  0.00    +0.145 C 
BRANCH  14  15
ATOM     15  C   UNL     1       4.245  -2.408   0.000  0.00  0.00    +0.137 C 
ATOM     16  O   UNL     1       4.331  -3.229   0.000  0.00  0.00    -0.354 OA
ATOM     17  C   UNL     1       5.138  -3.400   0.000  0.00  0.00    +0.142 C 
ATOM     18  C   UNL     1       5.551  -2.686   0.000  0.00  0.00    +0.035 C 
ATOM     19  C   UNL     1       4.999  -2.073   0.000  0.00  0.00    +0.034 C 
ENDBRANCH  14  15
ENDBRANCH  12  14
ENDBRANCH   1  11
TORSDOF 5
