REMARK  Name = 
REMARK  5 active torsions:
REMARK  status: ('A' for Active; 'I' for Inactive)
REMARK    1  A    between atoms: C_2  and  C_3
REMARK    2  A    between atoms: C_3  and  C_4
REMARK    3  A    between atoms: C_3  and  C_6
REMARK    4  A    between atoms: C_11  and  N_14
REMARK    5  A    between atoms: N_17  and  C_18
REMARK                            x       y       z     vdW  Elec       q    Type
REMARK                         _______ _______ _______ _____ _____    ______ ____
ROOT
ATOM      1  C   UNL     1      -2.143  -0.412   0.000  0.00  0.00    +0.225 C 
ATOM      2  N   UNL     1      -2.143  -1.238   0.000  0.00  0.00    -0.279 N 
ATOM      3  C   UNL     1      -2.858  -1.650   0.000  0.00  0.00    +0.095 C 
ATOM      4  C   UNL     1      -2.858  -2.475   0.000  0.00  0.00    +0.043 C 
ATOM      5  C   UNL     1      -2.143  -2.888   0.000  0.00  0.00    +0.100 C 
ATOM      6  C   UNL     1      -1.429  -2.475   0.000  0.00  0.00    +0.043 C 
ATOM      7  C   UNL     1      -1.429  -1.650   0.000  0.00  0.00    +0.095 C 
ATOM      8  O   UNL     1      -1.429   0.000   0.000  0.00  0.00    -0.275 OA
ENDROOT
BRANCH   5   9
ATOM      9  N   UNL     1      -2.143  -3.712   0.000  0.00  0.00    -0.189 NA
ATOM     10  C   UNL     1      -2.858  -4.125   0.000  0.00  0.00    +0.343 C 
ATOM     11  N   UNL     1      -2.858  -4.950   0.000  0.00  0.00    -0.159 NA
ATOM     12  O   UNL     1      -3.572  -3.712   0.000  0.00  0.00    -0.249 OA
BRANCH  11  13
ATOM     13  C   UNL     1      -2.143  -5.362   0.000  0.00  0.00    +0.094 A 
ATOM     14  C   UNL     1      -2.143  -6.188   0.000  0.00  0.00    +0.019 A 
ATOM     15  C   UNL     1      -1.429  -6.600   0.000  0.00  0.00    +0.037 A 
ATOM     16  C   UNL     1      -1.429  -7.425   0.000  0.00  0.00    +0.036 C 
ATOM     17  C   UNL     1      -0.715  -6.188   0.000  0.00  0.00    +0.275 A 
ATOM     18  O   UNL     1       0.000  -6.600   0.000  0.00  0.00    -0.266 OA
ATOM     19  N   UNL     1      -0.715  -5.362   0.000  0.00  0.00    -0.205 NA
ATOM     20  C   UNL     1      -1.429  -4.950   0.000  0.00  0.00    +0.119 A 
ENDBRANCH  11  13
ENDBRANCH   5   9
BRANCH   1  21
ATOM     21  C   UNL     1      -2.858   0.000   0.000  0.00  0.00    +0.077 C 
BRANCH  21  23
ATOM     22  C   UNL     1      -3.572   1.238   0.000  0.00  0.00    +0.001 C 
ATOM     23  C   UNL     1      -2.858   0.825   0.000  0.00  0.00    +0.009 C 
ENDBRANCH  21  23
BRANCH  21  24
ATOM     24  C   UNL     1      -3.572  -0.412   0.000  0.00  0.00    +0.009 C 
ATOM     25  C   UNL     1      -3.572  -1.238   0.000  0.00  0.00    +0.001 C 
ENDBRANCH  21  24
ENDBRANCH   1  21
TORSDOF 5
