REMARK  Name = 
REMARK  5 active torsions:
REMARK  status: ('A' for Active; 'I' for Inactive)
REMARK    1  A    between atoms: O_2  and  C_3
REMARK    2  A    between atoms: C_6  and  N_7
REMARK    3  A    between atoms: N_10  and  C_11
REMARK    4  A    between atoms: C_11  and  C_12
REMARK    5  A    between atoms: C_12  and  N_13
REMARK                            x       y       z     vdW  Elec       q    Type
REMARK                         _______ _______ _______ _____ _____    ______ ____
ROOT
ATOM      1  N   UNL     1       2.143  -3.712   0.000  0.00  0.00    -0.159 NA
ATOM      2  C   UNL     1       2.858  -4.125   0.000  0.00  0.00    +0.344 C 
ATOM      3  N   UNL     1       3.572  -3.712   0.000  0.00  0.00    -0.185 NA
ATOM      4  O   UNL     1       2.858  -4.950   0.000  0.00  0.00    -0.249 OA
ENDROOT
BRANCH   1   8
ATOM      5  C   UNL     1       0.000  -4.950   0.000  0.00  0.00    +0.225 A 
ATOM      6  N   UNL     1       0.715  -5.362   0.000  0.00  0.00    -0.209 NA
ATOM      7  C   UNL     1       1.429  -4.950   0.000  0.00  0.00    +0.119 A 
ATOM      8  C   UNL     1       1.429  -4.125   0.000  0.00  0.00    +0.094 A 
ATOM      9  C   UNL     1       0.715  -3.712   0.000  0.00  0.00    +0.023 A 
ATOM     10  C   UNL     1       0.000  -4.125   0.000  0.00  0.00    +0.059 A 
BRANCH   5  12
ATOM     11  C   UNL     1      -0.715  -6.188   0.000  0.00  0.00    +0.254 C 
ATOM     12  O   UNL     1      -0.715  -5.362   0.000  0.00  0.00    -0.456 OA
ENDBRANCH   5  12
ENDBRANCH   1   8
BRANCH   3  13
ATOM     13  C   UNL     1       4.287  -4.125   0.000  0.00  0.00    +0.134 C 
BRANCH  13  14
ATOM     14  C   UNL     1       5.001  -3.712   0.000  0.00  0.00    +0.096 C 
BRANCH  14  15
ATOM     15  N   UNL     1       5.716  -4.125   0.000  0.00  0.00    -0.267 NA
ATOM     16  C   UNL     1       5.716  -4.950   0.000  0.00  0.00    +0.102 C 
ATOM     17  C   UNL     1       6.430  -5.362   0.000  0.00  0.00    +0.131 C 
ATOM     18  C   UNL     1       6.430  -6.188   0.000  0.00  0.00    +0.034 C 
ATOM     19  O   UNL     1       7.145  -4.950   0.000  0.00  0.00    -0.356 OA
ATOM     20  C   UNL     1       7.145  -4.125   0.000  0.00  0.00    +0.131 C 
ATOM     21  C   UNL     1       7.859  -3.712   0.000  0.00  0.00    +0.034 C 
ATOM     22  C   UNL     1       6.430  -3.712   0.000  0.00  0.00    +0.102 C 
ENDBRANCH  14  15
ENDBRANCH  13  14
ENDBRANCH   3  13
TORSDOF 5
