REMARK  Name = 
REMARK  6 active torsions:
REMARK  status: ('A' for Active; 'I' for Inactive)
REMARK    1  A    between atoms: C_6  and  O_8
REMARK    2  A    between atoms: O_8  and  C_9
REMARK    3  A    between atoms: C_9  and  C_10
REMARK    4  A    between atoms: N_12  and  C_13
REMARK    5  A    between atoms: C_13  and  C_14
REMARK    6  A    between atoms: C_14  and  C_15
REMARK                            x       y       z     vdW  Elec       q    Type
REMARK                         _______ _______ _______ _____ _____    ______ ____
ROOT
ATOM      1  C   UNL     1       3.572   1.238   0.000  0.00  0.00    +0.272 C 
ATOM      2  N   UNL     1       4.287   0.825   0.000  0.00  0.00    -0.203 NA
ATOM      3  O   UNL     1       3.572   2.062   0.000  0.00  0.00    -0.271 OA
ENDROOT
BRANCH   1   4
ATOM      4  C   UNL     1       2.858   0.825   0.000  0.00  0.00    +0.229 C 
BRANCH   4   5
ATOM      5  O   UNL     1       2.143   1.238   0.000  0.00  0.00    -0.347 OA
BRANCH   5   9
ATOM      6  C   UNL     1       0.715  -1.238   0.000  0.00  0.00    +0.000 C 
ATOM      7  C   UNL     1       0.715  -0.412   0.000  0.00  0.00    +0.002 C 
ATOM      8  C   UNL     1       1.429   0.000   0.000  0.00  0.00    +0.030 C 
ATOM      9  C   UNL     1       1.429   0.825   0.000  0.00  0.00    +0.116 C 
ATOM     10  C   UNL     1       0.715   1.238   0.000  0.00  0.00    +0.030 C 
ATOM     11  C   UNL     1       0.000   0.825   0.000  0.00  0.00    +0.002 C 
ATOM     12  C   UNL     1       0.000   0.000   0.000  0.00  0.00    +0.000 C 
ENDBRANCH   5   9
ENDBRANCH   4   5
ENDBRANCH   1   4
BRANCH   2  13
ATOM     13  C   UNL     1       5.001   1.238   0.000  0.00  0.00    +0.120 C 
BRANCH  13  14
ATOM     14  C   UNL     1       5.716   0.825   0.000  0.00  0.00    +0.053 C 
BRANCH  14  15
ATOM     15  C   UNL     1       6.430   1.238   0.000  0.00  0.00    +0.019 A 
ATOM     16  C   UNL     1       7.184   0.902   0.000  0.00  0.00    +0.092 A 
ATOM     17  N   UNL     1       7.736   1.515   0.000  0.00  0.00    -0.248 N 
ATOM     18  C   UNL     1       8.556   1.429   0.000  0.00  0.00    +0.154 C 
ATOM     19  N   UNL     1       7.323   2.229   0.000  0.00  0.00    -0.168 NA
ATOM     20  C   UNL     1       6.516   2.058   0.000  0.00  0.00    +0.117 A 
ENDBRANCH  14  15
ENDBRANCH  13  14
ENDBRANCH   2  13
TORSDOF 6
