REMARK  Name = 
REMARK  4 active torsions:
REMARK  status: ('A' for Active; 'I' for Inactive)
REMARK    1  A    between atoms: C_6  and  N_7
REMARK    2  A    between atoms: N_10  and  C_11
REMARK    3  A    between atoms: C_11  and  C_12
REMARK    4  A    between atoms: C_12  and  C_13
REMARK                            x       y       z     vdW  Elec       q    Type
REMARK                         _______ _______ _______ _____ _____    ______ ____
ROOT
ATOM      1  N   UNL     1       2.143   1.238   0.000  0.00  0.00    -0.142 NA
ATOM      2  C   UNL     1       2.858   0.825   0.000  0.00  0.00    +0.345 C 
ATOM      3  N   UNL     1       3.572   1.238   0.000  0.00  0.00    -0.187 NA
ATOM      4  O   UNL     1       2.858   0.000   0.000  0.00  0.00    -0.249 OA
ENDROOT
BRANCH   1   8
ATOM      5  C   UNL     1       0.715  -1.238   0.000  0.00  0.00    +0.052 C 
ATOM      6  C   UNL     1       0.715  -0.412   0.000  0.00  0.00    +0.061 A 
ATOM      7  N   UNL     1       1.429   0.000   0.000  0.00  0.00    -0.233 NA
ATOM      8  C   UNL     1       1.429   0.825   0.000  0.00  0.00    +0.156 A 
ATOM      9  C   UNL     1       0.715   1.238   0.000  0.00  0.00    +0.036 A 
ATOM     10  C   UNL     1       0.000   0.825   0.000  0.00  0.00    +0.004 A 
ATOM     11  C   UNL     1       0.000   0.000   0.000  0.00  0.00    +0.015 A 
ENDBRANCH   1   8
BRANCH   3  12
ATOM     12  C   UNL     1       4.287   0.825   0.000  0.00  0.00    +0.117 C 
BRANCH  12  13
ATOM     13  C   UNL     1       5.001   1.238   0.000  0.00  0.00    +0.023 C 
BRANCH  13  14
ATOM     14  C   UNL     1       5.716   0.825   0.000  0.00  0.00    +0.002 C 
ATOM     15  C   UNL     1       6.128   0.111   0.000  0.00  0.00    +0.000 C 
ATOM     16  C   UNL     1       6.541   0.825   0.000  0.00  0.00    +0.000 C 
ENDBRANCH  13  14
ENDBRANCH  12  13
ENDBRANCH   3  12
TORSDOF 4
