REMARK  Name = 
REMARK  8 active torsions:
REMARK  status: ('A' for Active; 'I' for Inactive)
REMARK    1  A    between atoms: C_2  and  C_3
REMARK    2  A    between atoms: N_11  and  C_12
REMARK    3  A    between atoms: C_12  and  C_13
REMARK    4  A    between atoms: C_13  and  C_15
REMARK    5  A    between atoms: C_15  and  O_16
REMARK    6  A    between atoms: O_16  and  C_17
REMARK    7  A    between atoms: C_20  and  C_21
REMARK    8  A    between atoms: C_21  and  C_22
REMARK                            x       y       z     vdW  Elec       q    Type
REMARK                         _______ _______ _______ _____ _____    ______ ____
ROOT
ATOM      1  C   UNL     1       3.104   0.404   0.000  0.00  0.00    +0.218 C 
ATOM      2  O   UNL     1       3.104   1.229   0.000  0.00  0.00    -0.217 OA
ENDROOT
BRANCH   1   3
ATOM      3  C   UNL     1       2.389  -0.008   0.000  0.00  0.00    +0.144 C 
BRANCH   3   5
ATOM      4  C   UNL     1       0.921   0.069   0.000  0.00  0.00    +0.120 A 
ATOM      5  N   UNL     1       1.675   0.404   0.000  0.00  0.00    -0.312 N 
ATOM      6  C   UNL     1       1.589   1.225   0.000  0.00  0.00    +0.079 A 
ATOM      7  C   UNL     1       0.782   1.396   0.000  0.00  0.00    +0.098 A 
ATOM      8  C   UNL     1       0.527   2.181   0.000  0.00  0.00    +0.021 A 
ATOM      9  C   UNL     1       1.079   2.794   0.000  0.00  0.00    +0.002 A 
ATOM     10  C   UNL     1       1.886   2.622   0.000  0.00  0.00    +0.002 A 
ATOM     11  C   UNL     1       2.141   1.838   0.000  0.00  0.00    +0.019 A 
ATOM     12  N   UNL     1       0.369   0.682   0.000  0.00  0.00    -0.231 NA
BRANCH   4  14
ATOM     13  C   UNL     1       1.363  -1.290   0.000  0.00  0.00    +0.008 C 
ATOM     14  C   UNL     1       0.750  -0.738   0.000  0.00  0.00    +0.064 C 
ENDBRANCH   4  14
ENDBRANCH   3   5
ENDBRANCH   1   3
BRANCH   1  15
ATOM     15  C   UNL     1       3.818  -0.008   0.000  0.00  0.00    +0.240 C 
BRANCH  15  16
ATOM     16  O   UNL     1       4.533   0.404   0.000  0.00  0.00    -0.473 OA
BRANCH  16  17
ATOM     17  C   UNL     1       5.247  -0.008   0.000  0.00  0.00    +0.139 A 
ATOM     18  C   UNL     1       5.247  -0.833   0.000  0.00  0.00    +0.037 A 
ATOM     19  C   UNL     1       5.962  -1.246   0.000  0.00  0.00    -0.000 A 
ATOM     20  C   UNL     1       6.676  -0.833   0.000  0.00  0.00    -0.007 A 
ATOM     21  C   UNL     1       6.676  -0.008   0.000  0.00  0.00    -0.000 A 
ATOM     22  C   UNL     1       5.962   0.404   0.000  0.00  0.00    +0.037 A 
BRANCH  20  23
ATOM     23  C   UNL     1       7.391  -1.246   0.000  0.00  0.00    +0.132 C 
BRANCH  23  24
ATOM     24  C   UNL     1       8.105  -0.833   0.000  0.00  0.00    +0.078 C 
ATOM     25  N   UNL     1       8.820  -0.421   0.000  0.00  0.00    -0.196 NA
ENDBRANCH  23  24
ENDBRANCH  20  23
ENDBRANCH  16  17
ENDBRANCH  15  16
ENDBRANCH   1  15
TORSDOF 8
