REMARK  Name = 
REMARK  5 active torsions:
REMARK  status: ('A' for Active; 'I' for Inactive)
REMARK    1  A    between atoms: C_2  and  C_3
REMARK    2  A    between atoms: C_3  and  N_4
REMARK    3  A    between atoms: N_8  and  C_9
REMARK    4  A    between atoms: C_9  and  C_10
REMARK    5  A    between atoms: C_10  and  N_11
REMARK                            x       y       z     vdW  Elec       q    Type
REMARK                         _______ _______ _______ _____ _____    ______ ____
ROOT
ATOM      1  N   UNL     1      -0.861   4.414   0.000  0.00  0.00    -0.092 NA
ATOM      2  C   UNL     1      -0.861   3.589   0.000  0.00  0.00    +0.454 C 
ATOM      3  N   UNL     1      -0.147   3.177   0.000  0.00  0.00    -0.090 NA
ATOM      4  N   UNL     1      -1.576   3.177   0.000  0.00  0.00    -0.088 NA
ATOM      5  C   UNL     1      -2.290   3.589   0.000  0.00  0.00    +0.267 C 
ENDROOT
BRANCH   1   6
ATOM      6  C   UNL     1      -1.576   4.827   0.000  0.00  0.00    +0.220 C 
BRANCH   6   8
ATOM      7  C   UNL     1      -2.290   6.064   0.000  0.00  0.00    +0.004 C 
ATOM      8  C   UNL     1      -1.576   5.652   0.000  0.00  0.00    +0.047 C 
ENDBRANCH   6   8
ENDBRANCH   1   6
BRANCH   3   9
ATOM      9  C   UNL     1      -0.147   2.352   0.000  0.00  0.00    +0.246 C 
BRANCH   9  10
ATOM     10  C   UNL     1       0.568   1.939   0.000  0.00  0.00    +0.174 C 
BRANCH  10  11
ATOM     11  N   UNL     1       0.568   1.114   0.000  0.00  0.00    -0.246 N 
ATOM     12  N   UNL     1      -0.100   0.629   0.000  0.00  0.00    -0.168 NA
ATOM     13  C   UNL     1       0.155  -0.155   0.000  0.00  0.00    +0.122 A 
ATOM     14  C   UNL     1       0.980  -0.155   0.000  0.00  0.00    +0.043 A 
ATOM     15  C   UNL     1       1.235   0.629   0.000  0.00  0.00    +0.097 A 
ENDBRANCH  10  11
ENDBRANCH   9  10
ENDBRANCH   3   9
TORSDOF 5
