REMARK  Name = 
REMARK  6 active torsions:
REMARK  status: ('A' for Active; 'I' for Inactive)
REMARK    1  A    between atoms: C_2  and  C_4
REMARK    2  A    between atoms: C_4  and  N_5
REMARK    3  A    between atoms: C_9  and  C_10
REMARK    4  A    between atoms: C_10  and  N_11
REMARK    5  A    between atoms: N_11  and  C_12
REMARK    6  A    between atoms: C_19  and  C_20
REMARK                            x       y       z     vdW  Elec       q    Type
REMARK                         _______ _______ _______ _____ _____    ______ ____
ROOT
ATOM      1  C   UNL     1       0.000  -4.125   0.000  0.00  0.00    +0.145 C 
ENDROOT
BRANCH   1   4
ATOM      2  N   UNL     1       1.429  -2.475   0.000  0.00  0.00    -0.268 NA
ATOM      3  C   UNL     1       0.715  -2.888   0.000  0.00  0.00    +0.104 C 
ATOM      4  C   UNL     1       0.715  -3.712   0.000  0.00  0.00    +0.153 C 
ATOM      5  O   UNL     1       1.429  -4.125   0.000  0.00  0.00    -0.352 OA
ATOM      6  C   UNL     1       2.143  -3.712   0.000  0.00  0.00    +0.159 C 
ATOM      7  C   UNL     1       2.143  -2.888   0.000  0.00  0.00    +0.105 C 
BRANCH   2   8
ATOM      8  C   UNL     1       1.429  -1.650   0.000  0.00  0.00    +0.072 C 
BRANCH   8  10
ATOM      9  C   UNL     1       2.143  -0.412   0.000  0.00  0.00    +0.001 C 
ATOM     10  C   UNL     1       2.143  -1.238   0.000  0.00  0.00    +0.016 C 
ATOM     11  C   UNL     1       2.858  -1.650   0.000  0.00  0.00    +0.001 C 
ENDBRANCH   8  10
ENDBRANCH   2   8
ENDBRANCH   1   4
BRANCH   1  12
ATOM     12  N   UNL     1       0.000  -4.950   0.000  0.00  0.00    -0.216 NA
BRANCH  12  13
ATOM     13  C   UNL     1      -0.715  -5.362   0.000  0.00  0.00    +0.179 A 
ATOM     14  C   UNL     1      -1.429  -4.950   0.000  0.00  0.00    +0.100 A 
ATOM     15  C   UNL     1      -2.143  -5.362   0.000  0.00  0.00    +0.006 A 
ATOM     16  C   UNL     1      -2.858  -4.950   0.000  0.00  0.00    +0.033 C 
ATOM     17  C   UNL     1      -2.143  -6.188   0.000  0.00  0.00    +0.078 A 
ATOM     18  C   UNL     1      -2.858  -6.600   0.000  0.00  0.00    +0.054 C 
ATOM     19  N   UNL     1      -1.429  -6.600   0.000  0.00  0.00    -0.151 NA
ATOM     20  N   UNL     1      -0.715  -6.188   0.000  0.00  0.00    -0.131 NA
BRANCH  14  21
ATOM     21  C   UNL     1      -1.429  -4.125   0.000  0.00  0.00    +0.103 C 
ATOM     22  N   UNL     1      -1.429  -3.300   0.000  0.00  0.00    -0.191 NA
ENDBRANCH  14  21
ENDBRANCH  12  13
ENDBRANCH   1  12
TORSDOF 6
