REMARK  Name = 
REMARK  7 active torsions:
REMARK  status: ('A' for Active; 'I' for Inactive)
REMARK    1  A    between atoms: N_2  and  C_14
REMARK    2  A    between atoms: C_3  and  C_5
REMARK    3  A    between atoms: C_5  and  N_6
REMARK    4  A    between atoms: N_6  and  C_7
REMARK    5  A    between atoms: C_7  and  C_8
REMARK    6  A    between atoms: C_8  and  N_9
REMARK    7  A    between atoms: C_14  and  C_20
REMARK                            x       y       z     vdW  Elec       q    Type
REMARK                         _______ _______ _______ _____ _____    ______ ____
ROOT
ATOM      1  C   UNL     1       0.248  -0.582   0.000  0.00  0.00    +0.116 C 
ATOM      2  N   UNL     1       0.248  -1.407   0.000  0.00  0.00    -0.268 N 
ATOM      3  C   UNL     1       0.963  -1.820   0.000  0.00  0.00    +0.244 C 
ATOM      4  O   UNL     1       0.963  -2.645   0.000  0.00  0.00    -0.273 OA
ENDROOT
BRANCH   2   5
ATOM      5  C   UNL     1      -0.466  -1.820   0.000  0.00  0.00    +0.139 C 
ATOM      6  C   UNL     1      -0.749  -1.044   0.000  0.00  0.00    +0.033 C 
ATOM      7  C   UNL     1      -1.561  -0.901   0.000  0.00  0.00    +0.003 C 
ATOM      8  C   UNL     1      -2.091  -1.533   0.000  0.00  0.00    +0.000 C 
ATOM      9  C   UNL     1      -1.809  -2.308   0.000  0.00  0.00    +0.003 C 
ATOM     10  C   UNL     1      -0.997  -2.452   0.000  0.00  0.00    +0.033 C 
BRANCH   5  11
ATOM     11  C   UNL     1       0.064  -2.452   0.000  0.00  0.00    +0.090 C 
ATOM     12  N   UNL     1       0.594  -3.084   0.000  0.00  0.00    -0.194 NA
ENDBRANCH   5  11
ENDBRANCH   2   5
BRANCH   3  13
ATOM     13  C   UNL     1       1.677  -1.407   0.000  0.00  0.00    +0.174 C 
BRANCH  13  14
ATOM     14  N   UNL     1       2.392  -1.820   0.000  0.00  0.00    -0.206 NA
BRANCH  14  15
ATOM     15  C   UNL     1       3.106  -1.407   0.000  0.00  0.00    +0.116 C 
BRANCH  15  16
ATOM     16  C   UNL     1       3.821  -1.820   0.000  0.00  0.00    +0.146 C 
BRANCH  16  17
ATOM     17  N   UNL     1       4.535  -1.407   0.000  0.00  0.00    -0.248 N 
ATOM     18  N   UNL     1       5.289  -1.743   0.000  0.00  0.00    -0.168 NA
ATOM     19  C   UNL     1       5.841  -1.130   0.000  0.00  0.00    +0.122 A 
ATOM     20  C   UNL     1       5.428  -0.415   0.000  0.00  0.00    +0.043 A 
ATOM     21  C   UNL     1       4.621  -0.587   0.000  0.00  0.00    +0.097 A 
ENDBRANCH  16  17
ENDBRANCH  15  16
ENDBRANCH  14  15
ENDBRANCH  13  14
ENDBRANCH   3  13
TORSDOF 7
