REMARK  Name = 
REMARK  5 active torsions:
REMARK  status: ('A' for Active; 'I' for Inactive)
REMARK    1  A    between atoms: C_2  and  N_4
REMARK    2  A    between atoms: C_8  and  N_10
REMARK    3  A    between atoms: N_10  and  S_11
REMARK    4  A    between atoms: S_11  and  C_14
REMARK    5  A    between atoms: C_14  and  C_15
REMARK                            x       y       z     vdW  Elec       q    Type
REMARK                         _______ _______ _______ _____ _____    ______ ____
ROOT
ATOM      1  N   UNL     1       2.228  -4.070   0.000  0.00  0.00    -0.082 NA
ENDROOT
BRANCH   1   4
ATOM      2  N   UNL     1       3.125  -2.133   0.000  0.00  0.00    -0.273 NA
ATOM      3  C   UNL     1       2.458  -2.618   0.000  0.00  0.00    +0.092 C 
ATOM      4  C   UNL     1       2.713  -3.402   0.000  0.00  0.00    +0.115 C 
ATOM      5  C   UNL     1       3.538  -3.402   0.000  0.00  0.00    +0.035 C 
ATOM      6  C   UNL     1       4.023  -4.070   0.000  0.00  0.00    +0.003 C 
ATOM      7  C   UNL     1       3.793  -2.618   0.000  0.00  0.00    +0.074 C 
BRANCH   2   9
ATOM      8  C   UNL     1       3.840  -0.895   0.000  0.00  0.00    +0.017 C 
ATOM      9  C   UNL     1       3.125  -1.308   0.000  0.00  0.00    +0.058 C 
ATOM     10  C   UNL     1       2.411  -0.895   0.000  0.00  0.00    +0.017 C 
ENDBRANCH   2   9
ENDBRANCH   1   4
BRANCH   1  11
ATOM     11  S   UNL     1       2.563  -4.824   0.000  0.00  0.00    +0.063 S 
ATOM     12  O   UNL     1       3.317  -4.488   0.000  0.00  0.00    -0.156 OA
ATOM     13  O   UNL     1       1.810  -5.159   0.000  0.00  0.00    -0.156 OA
BRANCH  11  14
ATOM     14  C   UNL     1       2.899  -5.577   0.000  0.00  0.00    +0.219 C 
BRANCH  14  15
ATOM     15  C   UNL     1       2.414  -6.245   0.000  0.00  0.00    +0.126 A 
ATOM     16  N   UNL     1       1.589  -6.245   0.000  0.00  0.00    -0.079 NA
ATOM     17  O   UNL     1       1.334  -7.029   0.000  0.00  0.00    -0.350 OA
ATOM     18  C   UNL     1       2.002  -7.514   0.000  0.00  0.00    +0.214 A 
ATOM     19  C   UNL     1       2.669  -7.029   0.000  0.00  0.00    +0.063 A 
ENDBRANCH  14  15
ENDBRANCH  11  14
ENDBRANCH   1  11
TORSDOF 5
