REMARK  Name = 
REMARK  4 active torsions:
REMARK  status: ('A' for Active; 'I' for Inactive)
REMARK    1  A    between atoms: N_3  and  C_4
REMARK    2  A    between atoms: C_4  and  C_5
REMARK    3  A    between atoms: C_5  and  C_6
REMARK    4  A    between atoms: C_6  and  N_7
REMARK                            x       y       z     vdW  Elec       q    Type
REMARK                         _______ _______ _______ _____ _____    ______ ____
ROOT
ATOM      1  O   UNL     1       4.287  -4.950   0.000  0.00  0.00    -0.249 OA
ATOM      2  C   UNL     1       4.287  -4.125   0.000  0.00  0.00    +0.345 C 
ATOM      3  N   UNL     1       5.001  -3.712   0.000  0.00  0.00    -0.142 NA
ATOM      4  C   UNL     1       5.716  -4.125   0.000  0.00  0.00    +0.156 A 
ATOM      5  N   UNL     1       5.716  -4.950   0.000  0.00  0.00    -0.227 NA
ATOM      6  C   UNL     1       6.430  -5.362   0.000  0.00  0.00    +0.100 A 
ATOM      7  C   UNL     1       7.145  -4.950   0.000  0.00  0.00    +0.021 A 
ATOM      8  C   UNL     1       7.145  -4.125   0.000  0.00  0.00    +0.005 A 
ATOM      9  C   UNL     1       6.430  -3.712   0.000  0.00  0.00    +0.036 A 
ATOM     10  N   UNL     1       3.572  -3.712   0.000  0.00  0.00    -0.187 NA
ENDROOT
BRANCH  10  11
ATOM     11  C   UNL     1       2.858  -4.125   0.000  0.00  0.00    +0.118 C 
BRANCH  11  12
ATOM     12  C   UNL     1       2.143  -3.712   0.000  0.00  0.00    +0.041 C 
BRANCH  12  13
ATOM     13  C   UNL     1       1.429  -4.125   0.000  0.00  0.00    +0.074 C 
BRANCH  13  14
ATOM     14  N   UNL     1       0.715  -3.712   0.000  0.00  0.00    -0.263 NA
ATOM     15  C   UNL     1       0.715  -2.888   0.000  0.00  0.00    +0.160 C 
ATOM     16  C   UNL     1       0.000  -2.475   0.000  0.00  0.00    +0.258 C 
ATOM     17  O   UNL     1       0.000  -1.650   0.000  0.00  0.00    -0.272 OA
ATOM     18  N   UNL     1      -0.715  -2.888   0.000  0.00  0.00    -0.203 NA
ATOM     19  C   UNL     1      -0.715  -3.712   0.000  0.00  0.00    +0.132 C 
ATOM     20  C   UNL     1       0.000  -4.125   0.000  0.00  0.00    +0.096 C 
ENDBRANCH  13  14
ENDBRANCH  12  13
ENDBRANCH  11  12
ENDBRANCH  10  11
TORSDOF 4
