REMARK  Name = 
REMARK  5 active torsions:
REMARK  status: ('A' for Active; 'I' for Inactive)
REMARK    1  A    between atoms: N_1  and  C_8
REMARK    2  A    between atoms: N_2  and  C_7
REMARK    3  A    between atoms: C_8  and  C_9
REMARK    4  A    between atoms: C_10  and  C_15
REMARK    5  A    between atoms: N_11  and  C_15
REMARK                            x       y       z     vdW  Elec       q    Type
REMARK                         _______ _______ _______ _____ _____    ______ ____
ROOT
ATOM      1  N   UNL     1       3.571  -2.888   0.000  0.00  0.00    -0.238 N 
ATOM      2  C   UNL     1       4.283  -2.475   0.000  0.00  0.00    +0.294 A 
ATOM      3  O   UNL     1       4.283  -1.650   0.000  0.00  0.00    -0.264 OA
ATOM      4  C   UNL     1       5.000  -2.888   0.000  0.00  0.00    +0.213 A 
ATOM      5  C   UNL     1       5.000  -3.712   0.000  0.00  0.00    +0.116 A 
ATOM      6  N   UNL     1       4.283  -4.125   0.000  0.00  0.00    -0.255 N 
ATOM      7  F   UNL     1       5.713  -2.475   0.000  0.00  0.00    -0.198 F 
ATOM      8  C   UNL     1       3.571  -3.712   0.000  0.00  0.00    +0.336 A 
ATOM      9  O   UNL     1       2.854  -4.125   0.000  0.00  0.00    -0.246 OA
ENDROOT
BRANCH   6  10
ATOM     10  C   UNL     1       4.283  -4.950   0.000  0.00  0.00    +0.208 C 
ATOM     11  C   UNL     1       4.954  -5.433   0.000  0.00  0.00    +0.057 C 
ATOM     12  C   UNL     1       4.696  -6.217   0.000  0.00  0.00    +0.037 C 
ATOM     13  C   UNL     1       3.871  -6.217   0.000  0.00  0.00    +0.144 C 
ATOM     14  O   UNL     1       3.617  -5.433   0.000  0.00  0.00    -0.335 OA
ENDBRANCH   6  10
BRANCH   1  15
ATOM     15  C   UNL     1       2.854  -2.475   0.000  0.00  0.00    +0.200 C 
BRANCH  15  16
ATOM     16  C   UNL     1       2.142  -2.888   0.000  0.00  0.00    +0.265 C 
ATOM     17  O   UNL     1       2.142  -3.712   0.000  0.00  0.00    -0.271 OA
ATOM     18  N   UNL     1       1.425  -2.475   0.000  0.00  0.00    -0.198 NA
BRANCH  18  19
ATOM     19  C   UNL     1       0.713  -2.888   0.000  0.00  0.00    +0.152 C 
ATOM     20  C   UNL     1       0.713  -3.712   0.000  0.00  0.00    +0.032 C 
BRANCH  19  21
ATOM     21  C   UNL     1       0.000  -2.475   0.000  0.00  0.00    +0.143 A 
ATOM     22  C   UNL     1      -0.754  -2.808   0.000  0.00  0.00    +0.038 A 
ATOM     23  C   UNL     1      -1.308  -2.196   0.000  0.00  0.00    +0.043 A 
ATOM     24  C   UNL     1      -0.896  -1.479   0.000  0.00  0.00    +0.179 A 
ATOM     25  O   UNL     1      -0.087  -1.654   0.000  0.00  0.00    -0.453 OA
ENDBRANCH  19  21
ENDBRANCH  18  19
ENDBRANCH  15  16
ENDBRANCH   1  15
TORSDOF 5
