REMARK  Name = 
REMARK  5 active torsions:
REMARK  status: ('A' for Active; 'I' for Inactive)
REMARK    1  A    between atoms: C_2  and  C_3
REMARK    2  A    between atoms: C_3  and  N_4
REMARK    3  A    between atoms: N_11  and  C_12
REMARK    4  A    between atoms: N_15  and  C_16
REMARK    5  A    between atoms: C_16  and  C_17
REMARK                            x       y       z     vdW  Elec       q    Type
REMARK                         _______ _______ _______ _____ _____    ______ ____
ROOT
ATOM      1  C   UNL     1       7.859   1.238   0.000  0.00  0.00    +0.098 C 
ATOM      2  C   UNL     1       8.574   0.825   0.000  0.00  0.00    +0.039 C 
ATOM      3  C   UNL     1       9.288   1.238   0.000  0.00  0.00    +0.074 C 
ATOM      4  N   UNL     1       9.288   2.062   0.000  0.00  0.00    -0.273 NA
ATOM      5  C   UNL     1       8.574   2.475   0.000  0.00  0.00    +0.074 C 
ATOM      6  C   UNL     1       7.859   2.062   0.000  0.00  0.00    +0.039 C 
ENDROOT
BRANCH   1   9
ATOM      7  O   UNL     1       7.859  -0.412   0.000  0.00  0.00    -0.271 OA
ATOM      8  C   UNL     1       7.145   0.000   0.000  0.00  0.00    +0.265 C 
ATOM      9  N   UNL     1       7.145   0.825   0.000  0.00  0.00    -0.205 NA
BRANCH   8  10
ATOM     10  C   UNL     1       6.430  -0.412   0.000  0.00  0.00    +0.197 C 
BRANCH  10  11
ATOM     11  N   UNL     1       6.430  -1.238   0.000  0.00  0.00    -0.269 N 
ATOM     12  C   UNL     1       5.716  -1.650   0.000  0.00  0.00    +0.351 A 
ATOM     13  O   UNL     1       5.001  -1.238   0.000  0.00  0.00    -0.244 OA
ATOM     14  N   UNL     1       5.716  -2.475   0.000  0.00  0.00    -0.191 NA
ATOM     15  C   UNL     1       6.430  -2.888   0.000  0.00  0.00    +0.105 A 
ATOM     16  C   UNL     1       7.145  -2.475   0.000  0.00  0.00    +0.040 A 
ATOM     17  C   UNL     1       7.145  -1.650   0.000  0.00  0.00    +0.082 A 
ENDBRANCH  10  11
ENDBRANCH   8  10
ENDBRANCH   1   9
BRANCH   4  18
ATOM     18  C   UNL     1      10.003   2.475   0.000  0.00  0.00    +0.072 C 
BRANCH  18  19
ATOM     19  C   UNL     1      10.717   2.062   0.000  0.00  0.00    +0.016 C 
ATOM     20  C   UNL     1      10.717   1.238   0.000  0.00  0.00    +0.001 C 
ATOM     21  C   UNL     1      11.431   0.825   0.000  0.00  0.00    +0.000 C 
ATOM     22  C   UNL     1      12.146   1.238   0.000  0.00  0.00    +0.000 C 
ATOM     23  C   UNL     1      12.146   2.062   0.000  0.00  0.00    +0.000 C 
ATOM     24  C   UNL     1      11.431   2.475   0.000  0.00  0.00    +0.001 C 
ENDBRANCH  18  19
ENDBRANCH   4  18
TORSDOF 5
