REMARK  Name = 
REMARK  7 active torsions:
REMARK  status: ('A' for Active; 'I' for Inactive)
REMARK    1  A    between atoms: N_2  and  C_12
REMARK    2  A    between atoms: C_3  and  N_6
REMARK    3  A    between atoms: N_10  and  C_17
REMARK    4  A    between atoms: C_12  and  C_14
REMARK    5  A    between atoms: C_14  and  C_21
REMARK    6  A    between atoms: C_14  and  C_23
REMARK    7  A    between atoms: C_17  and  C_19
REMARK                            x       y       z     vdW  Elec       q    Type
REMARK                         _______ _______ _______ _____ _____    ______ ____
ROOT
ATOM      1  C   UNL     1       2.562   0.825   0.000  0.00  0.00    +0.149 A 
ATOM      2  N   UNL     1       1.779   1.083   0.000  0.00  0.00    -0.219 NA
ATOM      3  C   UNL     1       1.292   0.412   0.000  0.00  0.00    +0.180 A 
ATOM      4  N   UNL     1       1.779  -0.254   0.000  0.00  0.00    -0.294 N 
ATOM      5  C   UNL     1       2.562   0.000   0.000  0.00  0.00    +0.167 A 
ATOM      6  N   UNL     1       3.275  -0.412   0.000  0.00  0.00    -0.205 NA
ATOM      7  C   UNL     1       3.992   0.000   0.000  0.00  0.00    +0.201 A 
ATOM      8  N   UNL     1       3.992   0.825   0.000  0.00  0.00    -0.207 NA
ATOM      9  C   UNL     1       3.275   1.238   0.000  0.00  0.00    +0.154 A 
ENDROOT
BRANCH   9  10
ATOM     10  N   UNL     1       3.275   2.062   0.000  0.00  0.00    -0.291 N 
ATOM     11  C   UNL     1       3.992   2.475   0.000  0.00  0.00    +0.109 C 
ATOM     12  C   UNL     1       3.992   3.300   0.000  0.00  0.00    +0.094 C 
ATOM     13  N   UNL     1       3.275   3.712   0.000  0.00  0.00    -0.268 NA
ATOM     14  C   UNL     1       2.562   3.300   0.000  0.00  0.00    +0.092 C 
ATOM     15  C   UNL     1       2.562   2.475   0.000  0.00  0.00    +0.090 C 
ATOM     16  C   UNL     1       1.850   2.062   0.000  0.00  0.00    +0.023 C 
BRANCH  13  17
ATOM     17  C   UNL     1       3.275   4.533   0.000  0.00  0.00    +0.103 C 
BRANCH  17  18
ATOM     18  C   UNL     1       3.992   4.950   0.000  0.00  0.00    +0.141 C 
ATOM     19  C   UNL     1       4.704   5.358   0.000  0.00  0.00    +0.034 C 
ATOM     20  C   UNL     1       3.579   5.662   0.000  0.00  0.00    +0.034 C 
ATOM     21  O   UNL     1       4.404   4.233   0.000  0.00  0.00    -0.224 OA
ENDBRANCH  17  18
ENDBRANCH  13  17
ENDBRANCH   9  10
BRANCH   4  22
ATOM     22  C   UNL     1       1.521  -1.038   0.000  0.00  0.00    +0.112 C 
BRANCH  22  23
ATOM     23  C   UNL     1       2.075  -1.650   0.000  0.00  0.00    +0.058 C 
BRANCH  23  24
ATOM     24  C   UNL     1       1.821  -2.433   0.000  0.00  0.00    +0.037 C 
ATOM     25  C   UNL     1       2.304  -3.104   0.000  0.00  0.00    +0.035 C 
ATOM     26  C   UNL     1       1.821  -3.771   0.000  0.00  0.00    +0.142 C 
ATOM     27  O   UNL     1       1.033  -3.517   0.000  0.00  0.00    -0.354 OA
ATOM     28  C   UNL     1       1.033  -2.692   0.000  0.00  0.00    +0.142 C 
ENDBRANCH  23  24
BRANCH  23  29
ATOM     29  C   UNL     1       2.883  -1.479   0.000  0.00  0.00    +0.184 C 
ATOM     30  O   UNL     1       3.433  -2.092   0.000  0.00  0.00    -0.220 OA
ENDBRANCH  23  29
ENDBRANCH  22  23
ENDBRANCH   4  22
TORSDOF 7
