REMARK  Name = 
REMARK  7 active torsions:
REMARK  status: ('A' for Active; 'I' for Inactive)
REMARK    1  A    between atoms: C_2  and  C_5
REMARK    2  A    between atoms: C_8  and  C_9
REMARK    3  A    between atoms: C_9  and  C_10
REMARK    4  A    between atoms: C_10  and  N_11
REMARK    5  A    between atoms: N_11  and  C_12
REMARK    6  A    between atoms: C_12  and  C_13
REMARK    7  A    between atoms: C_12  and  C_16
REMARK                            x       y       z     vdW  Elec       q    Type
REMARK                         _______ _______ _______ _____ _____    ______ ____
ROOT
ATOM      1  C   UNL     1      -0.227   2.065   0.000  0.00  0.00    +0.071 C 
ENDROOT
BRANCH   1   4
ATOM      2  C   UNL     1      -2.247   2.755   0.000  0.00  0.00    +0.159 A 
ATOM      3  N   UNL     1      -1.695   2.142   0.000  0.00  0.00    -0.239 NA
ATOM      4  C   UNL     1      -0.941   2.478   0.000  0.00  0.00    +0.090 A 
ATOM      5  S   UNL     1      -1.028   3.298   0.000  0.00  0.00    -0.070 S 
ATOM      6  C   UNL     1      -1.835   3.470   0.000  0.00  0.00    +0.060 A 
BRANCH   2   8
ATOM      7  F   UNL     1      -3.888   2.583   0.000  0.00  0.00    -0.164 F 
ATOM      8  C   UNL     1      -3.068   2.669   0.000  0.00  0.00    +0.435 C 
ATOM      9  F   UNL     1      -3.154   3.489   0.000  0.00  0.00    -0.164 F 
ATOM     10  F   UNL     1      -2.981   1.849   0.000  0.00  0.00    -0.164 F 
ENDBRANCH   2   8
ENDBRANCH   1   4
BRANCH   1  11
ATOM     11  C   UNL     1       0.487   2.478   0.000  0.00  0.00    +0.095 C 
BRANCH  11  12
ATOM     12  N   UNL     1       1.202   2.065   0.000  0.00  0.00    -0.219 NA
BRANCH  12  13
ATOM     13  C   UNL     1       1.917   2.478   0.000  0.00  0.00    +0.073 C 
BRANCH  13  14
ATOM     14  C   UNL     1       2.631   2.065   0.000  0.00  0.00    +0.016 C 
ATOM     15  C   UNL     1       3.043   1.351   0.000  0.00  0.00    +0.001 C 
ATOM     16  C   UNL     1       3.456   2.065   0.000  0.00  0.00    +0.001 C 
ENDBRANCH  13  14
BRANCH  13  17
ATOM     17  C   UNL     1       1.917   3.303   0.000  0.00  0.00    +0.016 C 
ATOM     18  C   UNL     1       2.329   4.017   0.000  0.00  0.00    +0.001 C 
ATOM     19  C   UNL     1       1.504   4.017   0.000  0.00  0.00    +0.001 C 
ENDBRANCH  13  17
ENDBRANCH  12  13
ENDBRANCH  11  12
ENDBRANCH   1  11
TORSDOF 7
