REMARK  Name = 
REMARK  2 active torsions:
REMARK  status: ('A' for Active; 'I' for Inactive)
REMARK    1  A    between atoms: N_3  and  C_4
REMARK    2  A    between atoms: N_11  and  C_12
REMARK                            x       y       z     vdW  Elec       q    Type
REMARK                         _______ _______ _______ _____ _____    ______ ____
ROOT
ATOM      1  O   UNL     1      -3.516  -1.202   0.000  0.00  0.00    -0.249 OA
ATOM      2  C   UNL     1      -2.802  -0.790   0.000  0.00  0.00    +0.343 C 
ATOM      3  N   UNL     1      -2.087  -1.202   0.000  0.00  0.00    -0.159 NA
ATOM      4  N   UNL     1      -2.802   0.035   0.000  0.00  0.00    -0.189 NA
ENDROOT
BRANCH   4   5
ATOM      5  C   UNL     1      -3.516   0.448   0.000  0.00  0.00    +0.097 C 
ATOM      6  C   UNL     1      -3.454   1.270   0.000  0.00  0.00    +0.022 C 
ATOM      7  C   UNL     1      -4.059   1.831   0.000  0.00  0.00    +0.002 C 
ATOM      8  C   UNL     1      -4.875   1.708   0.000  0.00  0.00    +0.000 C 
ATOM      9  C   UNL     1      -5.287   0.994   0.000  0.00  0.00    +0.000 C 
ATOM     10  C   UNL     1      -4.986   0.226   0.000  0.00  0.00    +0.002 C 
ATOM     11  C   UNL     1      -4.198  -0.017   0.000  0.00  0.00    +0.022 C 
ENDBRANCH   4   5
BRANCH   3  12
ATOM     12  C   UNL     1      -2.087  -2.027   0.000  0.00  0.00    +0.094 A 
ATOM     13  C   UNL     1      -2.802  -2.440   0.000  0.00  0.00    +0.115 A 
ATOM     14  N   UNL     1      -2.802  -3.265   0.000  0.00  0.00    -0.241 NA
ATOM     15  C   UNL     1      -2.087  -3.678   0.000  0.00  0.00    +0.099 A 
ATOM     16  C   UNL     1      -1.373  -3.265   0.000  0.00  0.00    +0.022 A 
ATOM     17  C   UNL     1      -1.373  -2.440   0.000  0.00  0.00    +0.020 A 
ENDBRANCH   3  12
TORSDOF 2
