REMARK  Name = 
REMARK  1 active torsions:
REMARK  status: ('A' for Active; 'I' for Inactive)
REMARK    1  A    between atoms: C_9  and  C_10
REMARK                            x       y       z     vdW  Elec       q    Type
REMARK                         _______ _______ _______ _____ _____    ______ ____
ROOT
ATOM      1 CL   UNL     1       0.000   0.000   0.000  0.00  0.00    +0.000 Cl
ENDROOT
TORSDOF 0
REMARK  Name = 
REMARK  1 active torsions:
REMARK  status: ('A' for Active; 'I' for Inactive)
REMARK    1  A    between atoms: C_9  and  C_10
REMARK                            x       y       z     vdW  Elec       q    Type
REMARK                         _______ _______ _______ _____ _____    ______ ____
ROOT
ATOM      1 CL   UNL     1       2.004   0.000   0.000  0.00  0.00    +0.000 Cl
ENDROOT
TORSDOF 0
REMARK  Name = 
REMARK  1 active torsions:
REMARK  status: ('A' for Active; 'I' for Inactive)
REMARK    1  A    between atoms: C_9  and  C_10
REMARK                            x       y       z     vdW  Elec       q    Type
REMARK                         _______ _______ _______ _____ _____    ______ ____
ROOT
ATOM      1 CL   UNL     1       0.000  -2.693   0.000  0.00  0.00    +0.000 Cl
ENDROOT
TORSDOF 0
REMARK  Name = 
REMARK  1 active torsions:
REMARK  status: ('A' for Active; 'I' for Inactive)
REMARK    1  A    between atoms: C_9  and  C_10
REMARK                            x       y       z     vdW  Elec       q    Type
REMARK                         _______ _______ _______ _____ _____    ______ ____
ROOT
ATOM      1  C   UNL     1       5.378  -1.657   0.000  0.00  0.00    +0.132 C 
ATOM      2  N   UNL     1       5.378  -2.482   0.000  0.00  0.00    -0.311 N 
ATOM      3  C   UNL     1       4.711  -2.967   0.000  0.00  0.00    +0.138 A 
ATOM      4  N   UNL     1       4.966  -3.752   0.000  0.00  0.00    -0.228 NA
ATOM      5  C   UNL     1       5.791  -3.752   0.000  0.00  0.00    +0.119 A 
ATOM      6  C   UNL     1       6.046  -2.967   0.000  0.00  0.00    +0.098 A 
ENDROOT
BRANCH   3   7
ATOM      7  C   UNL     1       3.926  -2.712   0.000  0.00  0.00    +0.146 C 
ATOM      8  N   UNL     1       3.755  -1.905   0.000  0.00  0.00    -0.209 NA
ATOM      9  C   UNL     1       2.970  -1.650   0.000  0.00  0.00    +0.108 C 
ATOM     10  C   UNL     1       2.357  -2.202   0.000  0.00  0.00    +0.108 C 
ATOM     11  N   UNL     1       2.529  -3.009   0.000  0.00  0.00    -0.215 NA
ATOM     12  C   UNL     1       3.313  -3.264   0.000  0.00  0.00    +0.114 C 
ENDBRANCH   3   7
TORSDOF 1
