REMARK  Name = 
REMARK  7 active torsions:
REMARK  status: ('A' for Active; 'I' for Inactive)
REMARK    1  A    between atoms: C_2  and  N_3
REMARK    2  A    between atoms: C_6  and  N_9
REMARK    3  A    between atoms: C_10  and  C_12
REMARK    4  A    between atoms: C_12  and  N_13
REMARK    5  A    between atoms: N_13  and  C_14
REMARK    6  A    between atoms: C_14  and  C_15
REMARK    7  A    between atoms: C_15  and  N_16
REMARK                            x       y       z     vdW  Elec       q    Type
REMARK                         _______ _______ _______ _____ _____    ______ ____
ROOT
ATOM      1  N   UNL     1      -0.715   2.062   0.000  0.00  0.00    -0.206 NA
ATOM      2  C   UNL     1       0.000   2.475   0.000  0.00  0.00    +0.259 C 
ATOM      3  O   UNL     1       0.000   3.300   0.000  0.00  0.00    -0.272 OA
ENDROOT
BRANCH   1   7
ATOM      4  N   UNL     1      -2.858   3.300   0.000  0.00  0.00    -0.273 NA
ATOM      5  C   UNL     1      -2.858   2.475   0.000  0.00  0.00    +0.074 C 
ATOM      6  C   UNL     1      -2.143   2.062   0.000  0.00  0.00    +0.039 C 
ATOM      7  C   UNL     1      -1.429   2.475   0.000  0.00  0.00    +0.098 C 
ATOM      8  C   UNL     1      -1.429   3.300   0.000  0.00  0.00    +0.039 C 
ATOM      9  C   UNL     1      -2.143   3.712   0.000  0.00  0.00    +0.074 C 
BRANCH   4  11
ATOM     10  C   UNL     1      -4.287   3.300   0.000  0.00  0.00    +0.019 C 
ATOM     11  C   UNL     1      -3.572   3.712   0.000  0.00  0.00    +0.072 C 
ENDBRANCH   4  11
ENDBRANCH   1   7
BRANCH   2  12
ATOM     12  C   UNL     1       0.715   2.062   0.000  0.00  0.00    +0.175 C 
BRANCH  12  13
ATOM     13  N   UNL     1       1.429   2.475   0.000  0.00  0.00    -0.206 NA
BRANCH  13  14
ATOM     14  C   UNL     1       2.143   2.062   0.000  0.00  0.00    +0.116 C 
BRANCH  14  15
ATOM     15  C   UNL     1       2.858   2.475   0.000  0.00  0.00    +0.146 C 
BRANCH  15  16
ATOM     16  N   UNL     1       3.572   2.062   0.000  0.00  0.00    -0.248 N 
ATOM     17  N   UNL     1       3.659   1.242   0.000  0.00  0.00    -0.168 NA
ATOM     18  C   UNL     1       4.466   1.071   0.000  0.00  0.00    +0.122 A 
ATOM     19  C   UNL     1       4.878   1.785   0.000  0.00  0.00    +0.043 A 
ATOM     20  C   UNL     1       4.326   2.398   0.000  0.00  0.00    +0.097 A 
ENDBRANCH  15  16
ENDBRANCH  14  15
ENDBRANCH  13  14
ENDBRANCH  12  13
ENDBRANCH   2  12
TORSDOF 7
