REMARK  Name = 
REMARK  6 active torsions:
REMARK  status: ('A' for Active; 'I' for Inactive)
REMARK    1  A    between atoms: C_2  and  C_3
REMARK    2  A    between atoms: C_3  and  C_4
REMARK    3  A    between atoms: C_4  and  N_5
REMARK    4  A    between atoms: C_6  and  C_8
REMARK    5  A    between atoms: C_8  and  C_9
REMARK    6  A    between atoms: C_12  and  C_14
REMARK                            x       y       z     vdW  Elec       q    Type
REMARK                         _______ _______ _______ _____ _____    ______ ____
ROOT
ATOM      1  C   UNL     1       2.171  -2.437   0.000  0.00  0.00    +0.133 C 
ENDROOT
BRANCH   1   2
ATOM      2  C   UNL     1       2.886  -2.025   0.000  0.00  0.00    +0.075 A 
ATOM      3  N   UNL     1       3.640  -2.360   0.000  0.00  0.00    -0.247 NA
ATOM      4  C   UNL     1       4.192  -1.747   0.000  0.00  0.00    +0.087 A 
ATOM      5  S   UNL     1       3.779  -1.033   0.000  0.00  0.00    -0.071 S 
ATOM      6  C   UNL     1       2.972  -1.204   0.000  0.00  0.00    +0.052 A 
BRANCH   4   7
ATOM      7  C   UNL     1       5.012  -1.833   0.000  0.00  0.00    +0.041 C 
ATOM      8  C   UNL     1       5.098  -1.013   0.000  0.00  0.00    +0.006 C 
ATOM      9  C   UNL     1       4.926  -2.654   0.000  0.00  0.00    +0.006 C 
ATOM     10  C   UNL     1       5.832  -1.920   0.000  0.00  0.00    +0.006 C 
ENDBRANCH   4   7
ENDBRANCH   1   2
BRANCH   1  12
ATOM     11  N   UNL     1       0.743  -2.437   0.000  0.00  0.00    -0.205 NA
ATOM     12  C   UNL     1       1.457  -2.025   0.000  0.00  0.00    +0.247 C 
ATOM     13  O   UNL     1       1.457  -1.200   0.000  0.00  0.00    -0.273 OA
BRANCH  11  14
ATOM     14  C   UNL     1       0.028  -2.025   0.000  0.00  0.00    +0.115 C 
BRANCH  14  15
ATOM     15  C   UNL     1       0.028  -1.200   0.000  0.00  0.00    +0.020 C 
ATOM     16  C   UNL     1       0.841  -1.056   0.000  0.00  0.00    +0.002 C 
ATOM     17  C   UNL     1       0.310  -0.424   0.000  0.00  0.00    +0.002 C 
BRANCH  15  19
ATOM     18  C   UNL     1      -1.067  -0.281   0.000  0.00  0.00    +0.000 C 
ATOM     19  C   UNL     1      -0.784  -1.056   0.000  0.00  0.00    +0.002 C 
ENDBRANCH  15  19
ENDBRANCH  14  15
ENDBRANCH  11  14
ENDBRANCH   1  12
TORSDOF 6
