REMARK  Name = 
REMARK  2 active torsions:
REMARK  status: ('A' for Active; 'I' for Inactive)
REMARK    1  A    between atoms: N1_1  and  C1*_4
REMARK    2  A    between atoms: C4*_10  and  C5*_16
REMARK                            x       y       z     vdW  Elec       q    Type
REMARK                         _______ _______ _______ _____ _____    ______ ____
ROOT
ATOM      1  N1    T A   1      -1.327   3.122   0.000  0.00  0.00    -0.256 N 
ATOM      2  C6    T A   1      -0.609   3.536   0.000  0.00  0.00    +0.082 A 
ATOM      3  C5    T A   1      -0.609   4.358   0.000  0.00  0.00    +0.053 A 
ATOM      4  C4    T A   1      -1.327   4.771   0.000  0.00  0.00    +0.280 A 
ATOM      5  O4    T A   1      -1.327   5.598   0.000  0.00  0.00    -0.265 OA
ATOM      6  N3    T A   1      -2.041   4.358   0.000  0.00  0.00    -0.153 NA
ATOM      7  C5M   T A   1       0.104   4.771   0.000  0.00  0.00    +0.038 C 
ATOM      8  C2    T A   1      -2.041   3.536   0.000  0.00  0.00    +0.354 A 
ATOM      9  O2    T A   1      -2.759   3.122   0.000  0.00  0.00    -0.244 OA
ENDROOT
BRANCH   1  10
ATOM     10  C1*   T A   1      -1.327   2.296   0.000  0.00  0.00    +0.211 C 
ATOM     11  C2*   T A   1      -0.659   1.812   0.000  0.00  0.00    +0.089 C 
ATOM     12  C3*   T A   1      -0.914   1.023   0.000  0.00  0.00    +0.186 C 
ATOM     13  C4*   T A   1      -1.741   1.023   0.000  0.00  0.00    +0.180 C 
ATOM     14  O3*   T A   1      -0.426   0.355   0.000  0.00  0.00    -0.220 OA
ATOM     15  O4*   T A   1      -1.995   1.812   0.000  0.00  0.00    -0.332 OA
BRANCH  13  16
ATOM     16  C5*   T A   1      -2.225   0.355   0.000  0.00  0.00    +0.214 C 
ATOM     17  O5*   T A   1      -1.891  -0.401   0.000  0.00  0.00    -0.218 OA
ENDBRANCH  13  16
ENDBRANCH   1  10
TORSDOF 2
