REMARK  Name = 
REMARK  7 active torsions:
REMARK  status: ('A' for Active; 'I' for Inactive)
REMARK    1  A    between atoms: C_2  and  C_4
REMARK    2  A    between atoms: C_2  and  N_17
REMARK    3  A    between atoms: C_4  and  N_5
REMARK    4  A    between atoms: N_5  and  C_6
REMARK    5  A    between atoms: C_6  and  C_7
REMARK    6  A    between atoms: C_6  and  C_14
REMARK    7  A    between atoms: C_7  and  C_8
REMARK                            x       y       z     vdW  Elec       q    Type
REMARK                         _______ _______ _______ _____ _____    ______ ____
ROOT
ATOM      1  N   UNL     1      -0.412  -2.237   0.000  0.00  0.00    -0.218 NA
ENDROOT
BRANCH   1   2
ATOM      2  C   UNL     1      -1.127  -2.649   0.000  0.00  0.00    +0.103 C 
BRANCH   2   4
ATOM      3  C   UNL     1      -1.429  -1.522   0.000  0.00  0.00    +0.017 C 
ATOM      4  C   UNL     1      -1.841  -2.237   0.000  0.00  0.00    +0.062 C 
ATOM      5  C   UNL     1      -2.254  -2.951   0.000  0.00  0.00    +0.017 C 
BRANCH   4   6
ATOM      6  N   UNL     1      -2.556  -1.824   0.000  0.00  0.00    -0.270 NA
ATOM      7  C   UNL     1      -2.556  -0.999   0.000  0.00  0.00    +0.105 C 
ATOM      8  C   UNL     1      -3.270  -0.587   0.000  0.00  0.00    +0.159 C 
ATOM      9  O   UNL     1      -3.985  -0.999   0.000  0.00  0.00    -0.351 OA
ATOM     10  C   UNL     1      -3.985  -1.824   0.000  0.00  0.00    +0.159 C 
ATOM     11  C   UNL     1      -3.270  -2.237   0.000  0.00  0.00    +0.105 C 
ENDBRANCH   4   6
ENDBRANCH   2   4
ENDBRANCH   1   2
BRANCH   1  12
ATOM     12  C   UNL     1       0.302  -2.649   0.000  0.00  0.00    +0.079 C 
BRANCH  12  13
ATOM     13  C   UNL     1       0.302  -3.474   0.000  0.00  0.00    +0.016 C 
ATOM     14  C   UNL     1      -0.111  -4.189   0.000  0.00  0.00    +0.001 C 
ATOM     15  C   UNL     1       0.715  -4.189   0.000  0.00  0.00    +0.001 C 
ENDBRANCH  12  13
BRANCH  12  16
ATOM     16  C   UNL     1       1.016  -2.237   0.000  0.00  0.00    +0.063 C 
BRANCH  16  17
ATOM     17  C   UNL     1       1.731  -2.649   0.000  0.00  0.00    +0.060 A 
ATOM     18  N   UNL     1       1.731  -3.474   0.000  0.00  0.00    -0.248 NA
ATOM     19  C   UNL     1       2.445  -3.887   0.000  0.00  0.00    +0.098 A 
ATOM     20  C   UNL     1       3.160  -3.474   0.000  0.00  0.00    +0.021 A 
ATOM     21  C   UNL     1       3.160  -2.649   0.000  0.00  0.00    +0.003 A 
ATOM     22  C   UNL     1       2.445  -2.237   0.000  0.00  0.00    +0.015 A 
ENDBRANCH  16  17
ENDBRANCH  12  16
ENDBRANCH   1  12
TORSDOF 7
