REMARK  Name = 
REMARK  4 active torsions:
REMARK  status: ('A' for Active; 'I' for Inactive)
REMARK    1  A    between atoms: N_5  and  C_6
REMARK    2  A    between atoms: C_6  and  C_7
REMARK    3  A    between atoms: N_9  and  C_10
REMARK    4  A    between atoms: C_10  and  C_16
REMARK                            x       y       z     vdW  Elec       q    Type
REMARK                         _______ _______ _______ _____ _____    ______ ____
ROOT
ATOM      1  C   UNL     1       1.504  -4.957   0.000  0.00  0.00    +0.267 C 
ATOM      2  N   UNL     1       2.324  -5.043   0.000  0.00  0.00    -0.196 NA
ATOM      3  O   UNL     1       1.019  -5.624   0.000  0.00  0.00    -0.271 OA
ENDROOT
BRANCH   2   4
ATOM      4  C   UNL     1       2.659  -5.797   0.000  0.00  0.00    +0.171 C 
ATOM      5  C   UNL     1       1.859  -5.996   0.000  0.00  0.00    +0.031 C 
ATOM      6  C   UNL     1       1.632  -6.789   0.000  0.00  0.00    +0.002 C 
ATOM      7  C   UNL     1       2.205  -7.383   0.000  0.00  0.00    +0.000 C 
ATOM      8  C   UNL     1       3.005  -7.183   0.000  0.00  0.00    +0.002 C 
ATOM      9  C   UNL     1       3.233  -6.390   0.000  0.00  0.00    +0.031 C 
BRANCH   4  10
ATOM     10  C   UNL     1       3.344  -5.335   0.000  0.00  0.00    +0.382 C 
ATOM     11  O   UNL     1       3.286  -4.512   0.000  0.00  0.00    -0.244 OA
ATOM     12  O   UNL     1       4.085  -5.697   0.000  0.00  0.00    -0.244 OA
ENDBRANCH   4  10
ENDBRANCH   2   4
BRANCH   1  13
ATOM     13  C   UNL     1       1.168  -4.203   0.000  0.00  0.00    +0.214 C 
BRANCH  13  17
ATOM     14  C   UNL     1       2.065  -1.441   0.000  0.00  0.00    +0.034 C 
ATOM     15  C   UNL     1       2.065  -2.266   0.000  0.00  0.00    +0.018 A 
ATOM     16  C   UNL     1       1.398  -2.751   0.000  0.00  0.00    +0.093 A 
ATOM     17  N   UNL     1       1.653  -3.536   0.000  0.00  0.00    -0.240 N 
ATOM     18  N   UNL     1       2.478  -3.536   0.000  0.00  0.00    -0.168 NA
ATOM     19  C   UNL     1       2.733  -2.751   0.000  0.00  0.00    +0.117 A 
ENDBRANCH  13  17
ENDBRANCH   1  13
TORSDOF 4
