REMARK  Name = 
REMARK  5 active torsions:
REMARK  status: ('A' for Active; 'I' for Inactive)
REMARK    1  A    between atoms: N_1  and  C_11
REMARK    2  A    between atoms: N_2  and  C1*_5
REMARK    3  A    between atoms: C_9  and  C_11
REMARK    4  A    between atoms: N_10  and  C_16
REMARK    5  A    between atoms: C4*_17  and  C5*_31
REMARK                            x       y       z     vdW  Elec       q    Type
REMARK                         _______ _______ _______ _____ _____    ______ ____
ROOT
ATOM      1  N   UNL     1      -0.179  -3.104   0.000  0.00  0.00    -0.240 N 
ATOM      2  C   UNL     1       0.371  -3.717   0.000  0.00  0.00    +0.262 A 
ATOM      3  O   UNL     1       1.179  -3.546   0.000  0.00  0.00    -0.267 OA
ATOM      4  C   UNL     1       0.117  -4.500   0.000  0.00  0.00    +0.052 A 
ATOM      5  C   UNL     1       0.671  -5.117   0.000  0.00  0.00    +0.038 C 
ATOM      6  C   UNL     1      -0.692  -4.675   0.000  0.00  0.00    +0.082 A 
ATOM      7  N   UNL     1      -1.242  -4.058   0.000  0.00  0.00    -0.257 N 
ATOM      8  C   UNL     1      -0.988  -3.275   0.000  0.00  0.00    +0.336 A 
ATOM      9  O   UNL     1      -1.538  -2.663   0.000  0.00  0.00    -0.246 OA
ENDROOT
BRANCH   7  10
ATOM     10  C1* UNL     1      -2.050  -4.233   0.000  0.00  0.00    +0.211 C 
ATOM     11  C2* UNL     1      -2.383  -4.987   0.000  0.00  0.00    +0.089 C 
ATOM     12  C3* UNL     1      -3.204  -4.900   0.000  0.00  0.00    +0.186 C 
ATOM     13  C4* UNL     1      -3.375  -4.092   0.000  0.00  0.00    +0.180 C 
ATOM     14  O3* UNL     1      -3.758  -5.513   0.000  0.00  0.00    -0.220 OA
ATOM     15  O4* UNL     1      -2.663  -3.679   0.000  0.00  0.00    -0.332 OA
BRANCH  13  16
ATOM     16  C5* UNL     1      -4.129  -3.758   0.000  0.00  0.00    +0.214 C 
ATOM     17  O5* UNL     1      -4.796  -4.242   0.000  0.00  0.00    -0.218 OA
ENDBRANCH  13  16
ENDBRANCH   7  10
BRANCH   1  18
ATOM     18  C   UNL     1       0.075  -2.321   0.000  0.00  0.00    +0.199 C 
BRANCH  18  19
ATOM     19  C   UNL     1       0.883  -2.150   0.000  0.00  0.00    +0.253 C 
ATOM     20  O   UNL     1       1.433  -2.763   0.000  0.00  0.00    -0.272 OA
ATOM     21  N   UNL     1       1.137  -1.363   0.000  0.00  0.00    -0.257 N 
ATOM     22  C   UNL     1       0.650  -0.696   0.000  0.00  0.00    +0.103 C 
ATOM     23  C   UNL     1       1.137  -0.029   0.000  0.00  0.00    +0.050 C 
ATOM     24  C   UNL     1       1.921  -0.283   0.000  0.00  0.00    -0.001 A 
ATOM     25  C   UNL     1       2.638   0.129   0.000  0.00  0.00    +0.072 A 
ATOM     26  C   UNL     1       3.350  -0.283   0.000  0.00  0.00    +0.290 A 
ATOM     27  C   UNL     1       3.350  -1.108   0.000  0.00  0.00    +0.077 A 
ATOM     28  C   UNL     1       2.638  -1.521   0.000  0.00  0.00    +0.021 A 
ATOM     29  C   UNL     1       1.921  -1.108   0.000  0.00  0.00    +0.050 A 
BRANCH  26  30
ATOM     30  N   UNL     1       4.067   0.129   0.000  0.00  0.00    +0.081 N 
ATOM     31  O   UNL     1       4.067   0.954   0.000  0.00  0.00    +0.041 OA
ATOM     32  O   UNL     1       4.779  -0.283   0.000  0.00  0.00    -0.576 OA
ENDBRANCH  26  30
ENDBRANCH  18  19
ENDBRANCH   1  18
TORSDOF 5
