REMARK  Name = 
REMARK  3 active torsions:
REMARK  status: ('A' for Active; 'I' for Inactive)
REMARK    1  A    between atoms: C_2  and  C_4
REMARK    2  A    between atoms: C_4  and  C_5
REMARK    3  A    between atoms: C_10  and  C_12
REMARK                            x       y       z     vdW  Elec       q    Type
REMARK                         _______ _______ _______ _____ _____    ______ ____
ROOT
ATOM      1  C   UNL     1       1.429  -2.475   0.000  0.00  0.00    +0.077 A 
ATOM      2  N   UNL     1       0.761  -2.960   0.000  0.00  0.00    -0.226 NA
ATOM      3  C   UNL     1       1.016  -3.744   0.000  0.00  0.00    +0.186 A 
ATOM      4  N   UNL     1       0.531  -4.412   0.000  0.00  0.00    -0.154 NA
ATOM      5  C   UNL     1       0.867  -5.166   0.000  0.00  0.00    +0.247 C 
ATOM      6  O   UNL     1       1.688  -5.252   0.000  0.00  0.00    -0.273 OA
ATOM      7  S   UNL     1       1.841  -3.744   0.000  0.00  0.00    -0.049 S 
ATOM      8  C   UNL     1       2.096  -2.960   0.000  0.00  0.00    +0.053 A 
ENDROOT
BRANCH   5   9
ATOM      9  C   UNL     1       0.382  -5.833   0.000  0.00  0.00    +0.083 C 
ATOM     10  C   UNL     1      -0.438  -5.747   0.000  0.00  0.00    +0.035 C 
ATOM     11  C   UNL     1      -0.923  -6.414   0.000  0.00  0.00    -0.030 C 
ATOM     12  C   UNL     1      -0.588  -7.168   0.000  0.00  0.00    -0.031 C 
ATOM     13  C   UNL     1       0.233  -7.254   0.000  0.00  0.00    +0.026 C 
ATOM     14  C   UNL     1       0.718  -6.587   0.000  0.00  0.00    +0.014 C 
ENDBRANCH   5   9
BRANCH   1  15
ATOM     15  C   UNL     1       1.429  -1.650   0.000  0.00  0.00    +0.135 C 
BRANCH  15  17
ATOM     16  N   UNL     1       2.143  -0.412   0.000  0.00  0.00    -0.087 NA
ATOM     17  C   UNL     1       2.143  -1.238   0.000  0.00  0.00    +0.267 C 
ATOM     18  O   UNL     1       2.858  -1.650   0.000  0.00  0.00    -0.271 OA
ENDBRANCH  15  17
ENDBRANCH   1  15
TORSDOF 3
