REMARK  Name = 
REMARK  4 active torsions:
REMARK  status: ('A' for Active; 'I' for Inactive)
REMARK    1  A    between atoms: N_4  and  C_5
REMARK    2  A    between atoms: C_5  and  C_6
REMARK    3  A    between atoms: C_10  and  C_17
REMARK    4  A    between atoms: C_12  and  C_13
REMARK                            x       y       z     vdW  Elec       q    Type
REMARK                         _______ _______ _______ _____ _____    ______ ____
ROOT
ATOM      1  C   UNL     1       0.884  -2.150   0.000  0.00  0.00    +0.054 C 
ATOM      2  C   UNL     1       1.139  -1.365   0.000  0.00  0.00    +0.082 A 
ATOM      3  C   UNL     1       1.923  -1.110   0.000  0.00  0.00    +0.057 A 
ATOM      4  C   UNL     1       1.923  -0.285   0.000  0.00  0.00    +0.160 A 
ATOM      5  N   UNL     1       2.638   0.127   0.000  0.00  0.00    -0.231 NA
ATOM      6  C   UNL     1       3.352  -0.285   0.000  0.00  0.00    +0.060 A 
ATOM      7  C   UNL     1       3.352  -1.110   0.000  0.00  0.00    +0.021 A 
ATOM      8  N   UNL     1       1.139  -0.030   0.000  0.00  0.00    -0.232 N 
ATOM      9  C   UNL     1       2.638  -1.523   0.000  0.00  0.00    +0.085 A 
ATOM     10  N   UNL     1       0.654  -0.698   0.000  0.00  0.00    -0.172 NA
ENDROOT
BRANCH   6  11
ATOM     11  C   UNL     1       4.067   0.127   0.000  0.00  0.00    +0.040 C 
ATOM     12  C   UNL     1       4.892   0.127   0.000  0.00  0.00    +0.006 C 
ATOM     13  C   UNL     1       4.479   0.842   0.000  0.00  0.00    +0.006 C 
ENDBRANCH   6  11
BRANCH   9  14
ATOM     14  C   UNL     1       2.638  -2.348   0.000  0.00  0.00    +0.388 C 
ATOM     15  O   UNL     1       1.923  -2.760   0.000  0.00  0.00    -0.241 OA
ATOM     16  O   UNL     1       3.352  -2.760   0.000  0.00  0.00    -0.241 OA
ENDBRANCH   9  14
BRANCH   8  17
ATOM     17  C   UNL     1       0.884   0.754   0.000  0.00  0.00    +0.165 C 
BRANCH  17  18
ATOM     18  C   UNL     1       0.077   0.926   0.000  0.00  0.00    +0.208 C 
ATOM     19  O   UNL     1      -0.178   1.710   0.000  0.00  0.00    -0.218 OA
ENDBRANCH  17  18
ENDBRANCH   8  17
TORSDOF 4
