REMARK  Name = 
REMARK  5 active torsions:
REMARK  status: ('A' for Active; 'I' for Inactive)
REMARK    1  A    between atoms: C_2  and  C_3
REMARK    2  A    between atoms: C_3  and  N_4
REMARK    3  A    between atoms: N_15  and  C_16
REMARK    4  A    between atoms: C_16  and  C_17
REMARK    5  A    between atoms: C_17  and  C_18
REMARK                            x       y       z     vdW  Elec       q    Type
REMARK                         _______ _______ _______ _____ _____    ______ ____
ROOT
ATOM      1  C   UNL     1       2.119  -2.020   0.000  0.00  0.00    +0.187 C 
ENDROOT
BRANCH   1   2
ATOM      2  N   UNL     1       1.405  -2.433   0.000  0.00  0.00    -0.221 N 
ATOM      3  C   UNL     1       0.651  -2.097   0.000  0.00  0.00    +0.232 C 
ATOM      4  O   UNL     1       0.479  -1.290   0.000  0.00  0.00    -0.274 OA
ATOM      5  C   UNL     1       0.099  -2.710   0.000  0.00  0.00    +0.090 C 
ATOM      6  C   UNL     1       0.511  -3.425   0.000  0.00  0.00    +0.090 C 
ATOM      7  C   UNL     1       0.099  -4.139   0.000  0.00  0.00    +0.035 C 
ATOM      8  C   UNL     1      -0.726  -4.139   0.000  0.00  0.00    -0.030 C 
ATOM      9  C   UNL     1      -1.139  -3.425   0.000  0.00  0.00    -0.030 C 
ATOM     10  C   UNL     1      -0.726  -2.710   0.000  0.00  0.00    +0.035 C 
ATOM     11  C   UNL     1       1.318  -3.253   0.000  0.00  0.00    +0.232 C 
ATOM     12  O   UNL     1       1.931  -3.805   0.000  0.00  0.00    -0.274 OA
ENDBRANCH   1   2
BRANCH   1  14
ATOM     13  O   UNL     1       2.833  -3.258   0.000  0.00  0.00    -0.271 OA
ATOM     14  C   UNL     1       2.833  -2.433   0.000  0.00  0.00    +0.262 C 
ATOM     15  N   UNL     1       3.548  -2.020   0.000  0.00  0.00    -0.204 NA
BRANCH  15  16
ATOM     16  C   UNL     1       4.262  -2.433   0.000  0.00  0.00    +0.121 C 
BRANCH  16  17
ATOM     17  C   UNL     1       4.977  -2.020   0.000  0.00  0.00    +0.069 C 
BRANCH  17  18
ATOM     18  C   UNL     1       5.691  -2.433   0.000  0.00  0.00    +0.061 A 
ATOM     19  N   UNL     1       5.691  -3.258   0.000  0.00  0.00    -0.248 NA
ATOM     20  C   UNL     1       6.406  -3.670   0.000  0.00  0.00    +0.098 A 
ATOM     21  C   UNL     1       7.120  -3.258   0.000  0.00  0.00    +0.021 A 
ATOM     22  C   UNL     1       7.120  -2.433   0.000  0.00  0.00    +0.003 A 
ATOM     23  C   UNL     1       6.406  -2.020   0.000  0.00  0.00    +0.015 A 
ENDBRANCH  17  18
ENDBRANCH  16  17
ENDBRANCH  15  16
ENDBRANCH   1  14
TORSDOF 5
