REMARK  Name = 
REMARK  3 active torsions:
REMARK  status: ('A' for Active; 'I' for Inactive)
REMARK    1  A    between atoms: N_13  and  C_14
REMARK    2  A    between atoms: C_14  and  C_15
REMARK    3  A    between atoms: C_15  and  C_16
REMARK                            x       y       z     vdW  Elec       q    Type
REMARK                         _______ _______ _______ _____ _____    ______ ____
ROOT
ATOM      1  C   UNL     1      -1.296  -0.203   0.000  0.00  0.00    +0.095 C 
ATOM      2  C   UNL     1      -0.473  -0.265   0.000  0.00  0.00    +0.226 C 
ATOM      3  N   UNL     1      -0.008   0.417   0.000  0.00  0.00    -0.278 N 
ATOM      4  C   UNL     1       0.807   0.294   0.000  0.00  0.00    +0.115 C 
ATOM      5  C   UNL     1       1.412   0.855   0.000  0.00  0.00    +0.116 C 
ATOM      6  N   UNL     1       1.351   1.678   0.000  0.00  0.00    -0.261 N 
ATOM      7  C   UNL     1       2.065   2.090   0.000  0.00  0.00    +0.323 C 
ATOM      8  N   UNL     1       2.780   1.678   0.000  0.00  0.00    -0.188 NA
ATOM      9  O   UNL     1       2.065   2.915   0.000  0.00  0.00    -0.251 OA
ATOM     10  C   UNL     1       0.669   2.143   0.000  0.00  0.00    +0.097 C 
ATOM     11  C   UNL     1      -0.119   1.899   0.000  0.00  0.00    +0.043 C 
ATOM     12  C   UNL     1      -0.421   1.131   0.000  0.00  0.00    +0.095 C 
ATOM     13  O   UNL     1      -0.115  -1.008   0.000  0.00  0.00    -0.275 OA
ENDROOT
BRANCH   8  14
ATOM     14  C   UNL     1       3.494   2.090   0.000  0.00  0.00    +0.122 C 
BRANCH  14  15
ATOM     15  C   UNL     1       4.208   1.678   0.000  0.00  0.00    +0.053 C 
BRANCH  15  16
ATOM     16  C   UNL     1       4.923   2.090   0.000  0.00  0.00    +0.019 A 
ATOM     17  C   UNL     1       5.677   1.755   0.000  0.00  0.00    +0.092 A 
ATOM     18  N   UNL     1       6.229   2.368   0.000  0.00  0.00    -0.248 N 
ATOM     19  C   UNL     1       7.049   2.282   0.000  0.00  0.00    +0.154 C 
ATOM     20  N   UNL     1       5.816   3.082   0.000  0.00  0.00    -0.168 NA
ATOM     21  C   UNL     1       5.009   2.911   0.000  0.00  0.00    +0.117 A 
ENDBRANCH  15  16
ENDBRANCH  14  15
ENDBRANCH   8  14
TORSDOF 3
