REMARK  Name = 
REMARK  2 active torsions:
REMARK  status: ('A' for Active; 'I' for Inactive)
REMARK    1  A    between atoms: N_3  and  C_4
REMARK    2  A    between atoms: C_4  and  C_5
REMARK                            x       y       z     vdW  Elec       q    Type
REMARK                         _______ _______ _______ _____ _____    ______ ____
ROOT
ATOM      1  O   UNL     1       2.816  -3.233   0.000  0.00  0.00    -0.249 OA
ATOM      2  C   UNL     1       2.816  -2.408   0.000  0.00  0.00    +0.345 C 
ATOM      3  N   UNL     1       3.530  -1.996   0.000  0.00  0.00    -0.136 NA
ATOM      4  C   UNL     1       4.245  -2.408   0.000  0.00  0.00    +0.187 A 
ATOM      5  S   UNL     1       4.331  -3.229   0.000  0.00  0.00    -0.049 S 
ATOM      6  C   UNL     1       5.138  -3.400   0.000  0.00  0.00    +0.059 A 
ATOM      7  C   UNL     1       5.551  -2.686   0.000  0.00  0.00    +0.108 A 
ATOM      8  N   UNL     1       4.999  -2.073   0.000  0.00  0.00    -0.221 NA
ATOM      9  N   UNL     1       2.102  -1.996   0.000  0.00  0.00    -0.187 NA
ENDROOT
BRANCH   9  10
ATOM     10  C   UNL     1       1.387  -2.408   0.000  0.00  0.00    +0.119 C 
BRANCH  10  11
ATOM     11  C   UNL     1       0.672  -1.996   0.000  0.00  0.00    +0.054 C 
ATOM     12  C   UNL     1       0.586  -1.175   0.000  0.00  0.00    +0.144 C 
ATOM     13  O   UNL     1      -0.221  -1.004   0.000  0.00  0.00    -0.354 OA
ATOM     14  C   UNL     1      -0.633  -1.718   0.000  0.00  0.00    +0.142 C 
ATOM     15  C   UNL     1      -0.081  -2.331   0.000  0.00  0.00    +0.036 C 
ENDBRANCH  10  11
ENDBRANCH   9  10
TORSDOF 2
