REMARK  Name = 
REMARK  4 active torsions:
REMARK  status: ('A' for Active; 'I' for Inactive)
REMARK    1  A    between atoms: N_3  and  C_4
REMARK    2  A    between atoms: C_4  and  C_5
REMARK    3  A    between atoms: N_14  and  C_15
REMARK    4  A    between atoms: C_20  and  N_21
REMARK                            x       y       z     vdW  Elec       q    Type
REMARK                         _______ _______ _______ _____ _____    ______ ____
ROOT
ATOM      1  O   UNL     1       4.213  -0.127   0.000  0.00  0.00    -0.249 OA
ATOM      2  C   UNL     1       3.499  -0.540   0.000  0.00  0.00    +0.344 C 
ATOM      3  N   UNL     1       3.499  -1.365   0.000  0.00  0.00    -0.158 NA
ATOM      4  N   UNL     1       2.784  -0.127   0.000  0.00  0.00    -0.184 NA
ENDROOT
BRANCH   3   5
ATOM      5  C   UNL     1       4.213  -1.777   0.000  0.00  0.00    +0.106 A 
ATOM      6  C   UNL     1       4.213  -2.602   0.000  0.00  0.00    +0.147 A 
ATOM      7  N   UNL     1       4.928  -3.015   0.000  0.00  0.00    -0.228 NA
ATOM      8  C   UNL     1       5.642  -2.602   0.000  0.00  0.00    +0.100 A 
ATOM      9  C   UNL     1       5.642  -1.777   0.000  0.00  0.00    +0.022 A 
ATOM     10  C   UNL     1       4.928  -1.365   0.000  0.00  0.00    +0.021 A 
BRANCH   6  11
ATOM     11  N   UNL     1       3.499  -3.015   0.000  0.00  0.00    -0.292 N 
ATOM     12  C   UNL     1       2.745  -2.679   0.000  0.00  0.00    +0.092 C 
ATOM     13  C   UNL     1       2.193  -3.292   0.000  0.00  0.00    +0.023 C 
ATOM     14  C   UNL     1       2.606  -4.007   0.000  0.00  0.00    +0.023 C 
ATOM     15  C   UNL     1       3.413  -3.835   0.000  0.00  0.00    +0.092 C 
ENDBRANCH   6  11
ENDBRANCH   3   5
BRANCH   4  16
ATOM     16  C   UNL     1       2.784   0.698   0.000  0.00  0.00    +0.148 C 
BRANCH  16  17
ATOM     17  C   UNL     1       2.070   1.110   0.000  0.00  0.00    +0.153 C 
ATOM     18  O   UNL     1       2.070   1.935   0.000  0.00  0.00    -0.352 OA
ATOM     19  C   UNL     1       1.356   2.348   0.000  0.00  0.00    +0.158 C 
ATOM     20  C   UNL     1       0.641   1.935   0.000  0.00  0.00    +0.087 C 
ATOM     21  N   UNL     1       0.641   1.110   0.000  0.00  0.00    -0.270 NA
ATOM     22  C   UNL     1      -0.143   0.856   0.000  0.00  0.00    +0.072 C 
ATOM     23  C   UNL     1      -0.628   1.523   0.000  0.00  0.00    +0.019 C 
ATOM     24  C   UNL     1      -0.143   2.190   0.000  0.00  0.00    +0.020 C 
ATOM     25  C   UNL     1       1.356   0.698   0.000  0.00  0.00    +0.104 C 
ENDBRANCH  16  17
ENDBRANCH   4  16
TORSDOF 4
