REMARK  Name = 
REMARK  2 active torsions:
REMARK  status: ('A' for Active; 'I' for Inactive)
REMARK    1  A    between atoms: C_4  and  N_5
REMARK    2  A    between atoms: N_8  and  C_9
REMARK                            x       y       z     vdW  Elec       q    Type
REMARK                         _______ _______ _______ _____ _____    ______ ____
ROOT
ATOM      1  N   UNL     1       3.649  -4.474   0.000  0.00  0.00    -0.142 NA
ATOM      2  C   UNL     1       3.313  -5.227   0.000  0.00  0.00    +0.345 C 
ATOM      3  N   UNL     1       3.798  -5.895   0.000  0.00  0.00    -0.179 NA
ATOM      4  O   UNL     1       2.493  -5.314   0.000  0.00  0.00    -0.249 OA
ENDROOT
BRANCH   1  10
ATOM      5  C   UNL     1       2.751  -1.712   0.000  0.00  0.00    +0.054 C 
ATOM      6  C   UNL     1       2.751  -2.537   0.000  0.00  0.00    +0.082 A 
ATOM      7  N   UNL     1       2.084  -3.022   0.000  0.00  0.00    -0.172 NA
ATOM      8  N   UNL     1       2.339  -3.806   0.000  0.00  0.00    -0.234 N 
ATOM      9  C   UNL     1       1.854  -4.474   0.000  0.00  0.00    +0.155 C 
ATOM     10  C   UNL     1       3.164  -3.806   0.000  0.00  0.00    +0.154 A 
ATOM     11  C   UNL     1       3.419  -3.022   0.000  0.00  0.00    +0.052 A 
ENDBRANCH   1  10
BRANCH   3  12
ATOM     12  C   UNL     1       3.462  -6.648   0.000  0.00  0.00    +0.174 C 
ATOM     13  C   UNL     1       2.642  -6.735   0.000  0.00  0.00    +0.261 C 
ATOM     14  O   UNL     1       2.157  -6.067   0.000  0.00  0.00    -0.271 OA
ATOM     15  N   UNL     1       2.306  -7.488   0.000  0.00  0.00    -0.204 NA
ATOM     16  C   UNL     1       2.791  -8.156   0.000  0.00  0.00    +0.115 C 
ATOM     17  C   UNL     1       3.612  -8.069   0.000  0.00  0.00    +0.026 C 
ATOM     18  C   UNL     1       3.947  -7.316   0.000  0.00  0.00    +0.033 C 
ENDBRANCH   3  12
TORSDOF 2
