REMARK  Name = 
REMARK  5 active torsions:
REMARK  status: ('A' for Active; 'I' for Inactive)
REMARK    1  A    between atoms: N_2  and  C_4
REMARK    2  A    between atoms: N_7  and  C_10
REMARK    3  A    between atoms: C_10  and  C_13
REMARK    4  A    between atoms: C_13  and  N_14
REMARK    5  A    between atoms: N_17  and  C_18
REMARK                            x       y       z     vdW  Elec       q    Type
REMARK                         _______ _______ _______ _____ _____    ______ ____
ROOT
ATOM      1  C   UNL     1       2.143  -7.013   0.000  0.00  0.00    +0.066 C 
ATOM      2  C   UNL     1       2.968  -7.013   0.000  0.00  0.00    +0.018 C 
ATOM      3  C   UNL     1       1.318  -7.013   0.000  0.00  0.00    +0.018 C 
ENDROOT
BRANCH   1   7
ATOM      4  C   UNL     1       2.143  -4.537   0.000  0.00  0.00    +0.060 C 
ATOM      5  C   UNL     1       1.429  -4.950   0.000  0.00  0.00    +0.033 C 
ATOM      6  C   UNL     1       1.429  -5.775   0.000  0.00  0.00    +0.073 C 
ATOM      7  N   UNL     1       2.143  -6.188   0.000  0.00  0.00    -0.273 NA
ATOM      8  C   UNL     1       2.858  -5.775   0.000  0.00  0.00    +0.073 C 
ATOM      9  C   UNL     1       2.858  -4.950   0.000  0.00  0.00    +0.033 C 
BRANCH   4  11
ATOM     10  C   UNL     1       1.429  -3.300   0.000  0.00  0.00    +0.090 C 
ATOM     11  N   UNL     1       2.143  -3.712   0.000  0.00  0.00    -0.272 NA
ATOM     12  C   UNL     1       2.858  -3.300   0.000  0.00  0.00    +0.090 C 
ENDBRANCH   4  11
ENDBRANCH   1   7
BRANCH   1  13
ATOM     13  C   UNL     1       2.143  -7.838   0.000  0.00  0.00    +0.131 C 
BRANCH  13  14
ATOM     14  N   UNL     1       2.858  -8.250   0.000  0.00  0.00    -0.186 NA
ATOM     15  C   UNL     1       2.858  -9.075   0.000  0.00  0.00    +0.344 C 
ATOM     16  N   UNL     1       3.572  -9.488   0.000  0.00  0.00    -0.159 NA
ATOM     17  O   UNL     1       2.143  -9.488   0.000  0.00  0.00    -0.249 OA
BRANCH  16  18
ATOM     18  C   UNL     1       3.572 -10.312   0.000  0.00  0.00    +0.094 A 
ATOM     19  C   UNL     1       2.858 -10.725   0.000  0.00  0.00    +0.115 A 
ATOM     20  N   UNL     1       2.858 -11.550   0.000  0.00  0.00    -0.241 NA
ATOM     21  C   UNL     1       3.572 -11.963   0.000  0.00  0.00    +0.099 A 
ATOM     22  C   UNL     1       4.287 -11.550   0.000  0.00  0.00    +0.022 A 
ATOM     23  C   UNL     1       4.287 -10.725   0.000  0.00  0.00    +0.020 A 
ENDBRANCH  16  18
ENDBRANCH  13  14
ENDBRANCH   1  13
TORSDOF 5
