REMARK  Name = 
REMARK  3 active torsions:
REMARK  status: ('A' for Active; 'I' for Inactive)
REMARK    1  A    between atoms: C_2  and  C_4
REMARK    2  A    between atoms: C_4  and  C_5
REMARK    3  A    between atoms: N_12  and  C_13
REMARK                            x       y       z     vdW  Elec       q    Type
REMARK                         _______ _______ _______ _____ _____    ______ ____
ROOT
ATOM      1  C   UNL     1       0.640   6.320   0.000  0.00  0.00    +0.079 A 
ATOM      2  N   UNL     1       1.192   5.707   0.000  0.00  0.00    -0.226 NA
ATOM      3  C   UNL     1       1.945   6.043   0.000  0.00  0.00    +0.187 A 
ATOM      4  N   UNL     1       2.660   5.630   0.000  0.00  0.00    -0.136 NA
ATOM      5  C   UNL     1       2.660   4.805   0.000  0.00  0.00    +0.345 C 
ATOM      6  N   UNL     1       3.374   4.393   0.000  0.00  0.00    -0.189 NA
ATOM      7  O   UNL     1       1.945   4.393   0.000  0.00  0.00    -0.249 OA
ATOM      8  S   UNL     1       1.859   6.863   0.000  0.00  0.00    -0.049 S 
ATOM      9  C   UNL     1       1.052   7.035   0.000  0.00  0.00    +0.053 A 
ENDROOT
BRANCH   6  10
ATOM     10  C   UNL     1       3.374   3.568   0.000  0.00  0.00    +0.097 C 
ATOM     11  C   UNL     1       2.962   2.853   0.000  0.00  0.00    +0.023 C 
ATOM     12  C   UNL     1       3.787   2.853   0.000  0.00  0.00    +0.023 C 
ENDBRANCH   6  10
BRANCH   1  13
ATOM     13  C   UNL     1      -0.181   6.234   0.000  0.00  0.00    +0.160 C 
BRANCH  13  15
ATOM     14  O   UNL     1      -1.486   6.815   0.000  0.00  0.00    -0.245 OA
ATOM     15  C   UNL     1      -0.666   6.901   0.000  0.00  0.00    +0.371 C 
ATOM     16  O   UNL     1      -0.330   7.655   0.000  0.00  0.00    -0.245 OA
ENDBRANCH  13  15
ENDBRANCH   1  13
TORSDOF 3
