REMARK  Name = 
REMARK  4 active torsions:
REMARK  status: ('A' for Active; 'I' for Inactive)
REMARK    1  A    between atoms: C_2  and  C_5
REMARK    2  A    between atoms: C_5  and  C_6
REMARK    3  A    between atoms: C_11  and  C_12
REMARK    4  A    between atoms: C_12  and  C_13
REMARK                            x       y       z     vdW  Elec       q    Type
REMARK                         _______ _______ _______ _____ _____    ______ ____
ROOT
ATOM      1  C   UNL     1      -0.147   2.352   0.000  0.00  0.00    +0.247 C 
ATOM      2  N   UNL     1       0.568   1.939   0.000  0.00  0.00    -0.154 NA
ATOM      3  C   UNL     1       0.568   1.114   0.000  0.00  0.00    +0.186 A 
ATOM      4  S   UNL     1      -0.100   0.629   0.000  0.00  0.00    -0.049 S 
ATOM      5  C   UNL     1       0.155  -0.155   0.000  0.00  0.00    +0.053 A 
ATOM      6  C   UNL     1       0.980  -0.155   0.000  0.00  0.00    +0.077 A 
ATOM      7  N   UNL     1       1.235   0.629   0.000  0.00  0.00    -0.226 NA
ATOM      8  O   UNL     1      -0.861   1.939   0.000  0.00  0.00    -0.273 OA
ENDROOT
BRANCH   1   9
ATOM      9  C   UNL     1      -0.147   3.177   0.000  0.00  0.00    +0.087 C 
BRANCH   9  11
ATOM     10  C   UNL     1      -1.576   4.002   0.000  0.00  0.00    +0.000 C 
ATOM     11  C   UNL     1      -0.861   3.589   0.000  0.00  0.00    +0.009 C 
ATOM     12  C   UNL     1      -0.449   4.304   0.000  0.00  0.00    +0.000 C 
ATOM     13  C   UNL     1      -1.274   2.875   0.000  0.00  0.00    +0.000 C 
ENDBRANCH   9  11
ENDBRANCH   1   9
BRANCH   6  14
ATOM     14  C   UNL     1       1.465  -0.823   0.000  0.00  0.00    +0.135 C 
BRANCH  14  15
ATOM     15  C   UNL     1       1.130  -1.576   0.000  0.00  0.00    +0.267 C 
ATOM     16  N   UNL     1       0.309  -1.663   0.000  0.00  0.00    -0.087 NA
ATOM     17  O   UNL     1       1.615  -2.244   0.000  0.00  0.00    -0.271 OA
ENDBRANCH  14  15
ENDBRANCH   6  14
TORSDOF 4
