REMARK  Name = 
REMARK  5 active torsions:
REMARK  status: ('A' for Active; 'I' for Inactive)
REMARK    1  A    between atoms: C_2  and  N_3
REMARK    2  A    between atoms: C_5  and  N_6
REMARK    3  A    between atoms: N_9  and  C_10
REMARK    4  A    between atoms: C_10  and  C_11
REMARK    5  A    between atoms: C_11  and  N_12
REMARK                            x       y       z     vdW  Elec       q    Type
REMARK                         _______ _______ _______ _____ _____    ______ ____
ROOT
ATOM      1  N   UNL     1       1.304  -4.050   0.000  0.00  0.00    -0.158 NA
ATOM      2  C   UNL     1       2.018  -4.462   0.000  0.00  0.00    +0.344 C 
ATOM      3  N   UNL     1       2.733  -4.050   0.000  0.00  0.00    -0.185 NA
ATOM      4  O   UNL     1       2.018  -5.287   0.000  0.00  0.00    -0.249 OA
ENDROOT
BRANCH   1   8
ATOM      5  N   UNL     1      -0.716  -4.740   0.000  0.00  0.00    -0.248 N 
ATOM      6  N   UNL     1      -0.304  -5.454   0.000  0.00  0.00    -0.166 NA
ATOM      7  C   UNL     1       0.503  -5.283   0.000  0.00  0.00    +0.138 A 
ATOM      8  C   UNL     1       0.589  -4.462   0.000  0.00  0.00    +0.114 A 
ATOM      9  C   UNL     1      -0.164  -4.127   0.000  0.00  0.00    +0.113 A 
BRANCH   5  11
ATOM     10  C   UNL     1      -2.022  -5.321   0.000  0.00  0.00    +0.028 C 
ATOM     11  C   UNL     1      -1.537  -4.653   0.000  0.00  0.00    +0.128 C 
ENDBRANCH   5  11
ENDBRANCH   1   8
BRANCH   3  12
ATOM     12  C   UNL     1       3.447  -4.462   0.000  0.00  0.00    +0.138 C 
BRANCH  12  13
ATOM     13  C   UNL     1       4.162  -4.050   0.000  0.00  0.00    +0.117 C 
BRANCH  13  14
ATOM     14  N   UNL     1       4.876  -4.462   0.000  0.00  0.00    -0.278 N 
ATOM     15  C   UNL     1       4.814  -5.285   0.000  0.00  0.00    +0.226 C 
ATOM     16  O   UNL     1       4.046  -5.586   0.000  0.00  0.00    -0.275 OA
ATOM     17  C   UNL     1       5.419  -5.846   0.000  0.00  0.00    +0.085 C 
ATOM     18  C   UNL     1       6.235  -5.723   0.000  0.00  0.00    +0.010 C 
ATOM     19  C   UNL     1       6.648  -5.008   0.000  0.00  0.00    +0.002 C 
ATOM     20  C   UNL     1       6.346  -4.240   0.000  0.00  0.00    +0.022 C 
ATOM     21  C   UNL     1       5.558  -3.997   0.000  0.00  0.00    +0.093 C 
ENDBRANCH  13  14
ENDBRANCH  12  13
ENDBRANCH   3  12
TORSDOF 5
