REMARK  Name = 
REMARK  5 active torsions:
REMARK  status: ('A' for Active; 'I' for Inactive)
REMARK    1  A    between atoms: N_2  and  C_4
REMARK    2  A    between atoms: C_4  and  C_5
REMARK    3  A    between atoms: C_5  and  N_6
REMARK    4  A    between atoms: N_9  and  C_10
REMARK    5  A    between atoms: C_15  and  N_16
REMARK                            x       y       z     vdW  Elec       q    Type
REMARK                         _______ _______ _______ _____ _____    ______ ____
ROOT
ATOM      1  N   UNL     1       0.000  -2.475   0.000  0.00  0.00    -0.186 NA
ATOM      2  C   UNL     1       0.715  -2.062   0.000  0.00  0.00    +0.344 C 
ATOM      3  N   UNL     1       1.429  -2.475   0.000  0.00  0.00    -0.158 NA
ATOM      4  O   UNL     1       0.715  -1.238   0.000  0.00  0.00    -0.249 OA
ENDROOT
BRANCH   3   5
ATOM      5  C   UNL     1       2.143  -2.062   0.000  0.00  0.00    +0.106 A 
ATOM      6  C   UNL     1       2.858  -2.475   0.000  0.00  0.00    +0.147 A 
ATOM      7  N   UNL     1       3.572  -2.062   0.000  0.00  0.00    -0.228 NA
ATOM      8  C   UNL     1       3.572  -1.238   0.000  0.00  0.00    +0.100 A 
ATOM      9  C   UNL     1       2.858  -0.825   0.000  0.00  0.00    +0.022 A 
ATOM     10  C   UNL     1       2.143  -1.238   0.000  0.00  0.00    +0.021 A 
BRANCH   6  11
ATOM     11  N   UNL     1       2.858  -3.300   0.000  0.00  0.00    -0.292 N 
ATOM     12  C   UNL     1       2.190  -3.785   0.000  0.00  0.00    +0.092 C 
ATOM     13  C   UNL     1       2.445  -4.569   0.000  0.00  0.00    +0.023 C 
ATOM     14  C   UNL     1       3.270  -4.569   0.000  0.00  0.00    +0.023 C 
ATOM     15  C   UNL     1       3.525  -3.785   0.000  0.00  0.00    +0.092 C 
ENDBRANCH   6  11
ENDBRANCH   3   5
BRANCH   1  16
ATOM     16  C   UNL     1      -0.715  -2.062   0.000  0.00  0.00    +0.132 C 
BRANCH  16  17
ATOM     17  C   UNL     1      -1.429  -2.475   0.000  0.00  0.00    +0.070 C 
ATOM     18  C   UNL     1      -1.711  -1.700   0.000  0.00  0.00    +0.049 C 
ATOM     19  C   UNL     1      -2.524  -1.556   0.000  0.00  0.00    +0.144 C 
ATOM     20  O   UNL     1      -3.054  -2.188   0.000  0.00  0.00    -0.354 OA
ATOM     21  C   UNL     1      -2.772  -2.964   0.000  0.00  0.00    +0.144 C 
ATOM     22  C   UNL     1      -1.959  -3.107   0.000  0.00  0.00    +0.049 C 
BRANCH  17  24
ATOM     23  C   UNL     1      -1.181  -3.882   0.000  0.00  0.00    +0.090 C 
ATOM     24  N   UNL     1      -0.899  -3.107   0.000  0.00  0.00    -0.271 NA
ATOM     25  C   UNL     1      -0.086  -2.964   0.000  0.00  0.00    +0.090 C 
ENDBRANCH  17  24
ENDBRANCH  16  17
ENDBRANCH   1  16
TORSDOF 5
