REMARK  Name = 
REMARK  4 active torsions:
REMARK  status: ('A' for Active; 'I' for Inactive)
REMARK    1  A    between atoms: C_2  and  N_3
REMARK    2  A    between atoms: C_2  and  C_13
REMARK    3  A    between atoms: N_6  and  C_7
REMARK    4  A    between atoms: N_15  and  C_16
REMARK                            x       y       z     vdW  Elec       q    Type
REMARK                         _______ _______ _______ _____ _____    ______ ____
ROOT
ATOM      1  C   UNL     1       2.858  -0.825   0.000  0.00  0.00    +0.033 C 
ATOM      2  C   UNL     1       2.858  -1.650   0.000  0.00  0.00    +0.174 C 
ENDROOT
BRANCH   2   3
ATOM      3  N   UNL     1       2.143  -2.062   0.000  0.00  0.00    -0.179 NA
ATOM      4  C   UNL     1       1.429  -1.650   0.000  0.00  0.00    +0.344 C 
ATOM      5  N   UNL     1       0.715  -2.062   0.000  0.00  0.00    -0.159 NA
ATOM      6  O   UNL     1       1.429  -0.825   0.000  0.00  0.00    -0.249 OA
BRANCH   5   7
ATOM      7  C   UNL     1       0.000  -1.650   0.000  0.00  0.00    +0.094 A 
ATOM      8  C   UNL     1       0.000  -0.825   0.000  0.00  0.00    +0.115 A 
ATOM      9  N   UNL     1      -0.715  -0.412   0.000  0.00  0.00    -0.241 NA
ATOM     10  C   UNL     1      -1.429  -0.825   0.000  0.00  0.00    +0.099 A 
ATOM     11  C   UNL     1      -1.429  -1.650   0.000  0.00  0.00    +0.022 A 
ATOM     12  C   UNL     1      -0.715  -2.062   0.000  0.00  0.00    +0.020 A 
ENDBRANCH   5   7
ENDBRANCH   2   3
BRANCH   2  13
ATOM     13  C   UNL     1       3.572  -2.062   0.000  0.00  0.00    +0.261 C 
ATOM     14  N   UNL     1       4.287  -1.650   0.000  0.00  0.00    -0.206 NA
ATOM     15  O   UNL     1       3.572  -2.888   0.000  0.00  0.00    -0.271 OA
BRANCH  14  16
ATOM     16  C   UNL     1       5.001  -2.062   0.000  0.00  0.00    +0.095 C 
ATOM     17  C   UNL     1       5.088  -2.883   0.000  0.00  0.00    +0.022 C 
ATOM     18  C   UNL     1       5.894  -3.054   0.000  0.00  0.00    +0.002 C 
ATOM     19  C   UNL     1       6.307  -2.340   0.000  0.00  0.00    +0.002 C 
ATOM     20  C   UNL     1       5.755  -1.727   0.000  0.00  0.00    +0.022 C 
ENDBRANCH  14  16
ENDBRANCH   2  13
TORSDOF 4
