REMARK  Name = 
REMARK  6 active torsions:
REMARK  status: ('A' for Active; 'I' for Inactive)
REMARK    1  A    between atoms: C_2  and  N_3
REMARK    2  A    between atoms: C_4  and  C_6
REMARK    3  A    between atoms: C_6  and  N_7
REMARK    4  A    between atoms: C_9  and  C_10
REMARK    5  A    between atoms: C_10  and  C_11
REMARK    6  A    between atoms: C_13  and  C_15
REMARK                            x       y       z     vdW  Elec       q    Type
REMARK                         _______ _______ _______ _____ _____    ______ ____
ROOT
ATOM      1  N   UNL     1       4.245  -2.408   0.000  0.00  0.00    -0.240 N 
ATOM      2  N   UNL     1       4.331  -3.229   0.000  0.00  0.00    -0.165 NA
ATOM      3  C   UNL     1       5.138  -3.400   0.000  0.00  0.00    +0.170 A 
ATOM      4  C   UNL     1       5.551  -2.686   0.000  0.00  0.00    +0.023 A 
ATOM      5  C   UNL     1       4.999  -2.073   0.000  0.00  0.00    +0.093 A 
ENDROOT
BRANCH   3   6
ATOM      6  C   UNL     1       5.474  -4.154   0.000  0.00  0.00    +0.436 C 
ATOM      7  F   UNL     1       6.227  -3.818   0.000  0.00  0.00    -0.164 F 
ATOM      8  F   UNL     1       4.720  -4.489   0.000  0.00  0.00    -0.164 F 
ATOM      9  F   UNL     1       5.809  -4.908   0.000  0.00  0.00    -0.164 F 
ENDBRANCH   3   6
BRANCH   1  10
ATOM     10  C   UNL     1       3.530  -1.996   0.000  0.00  0.00    +0.214 C 
BRANCH  10  12
ATOM     11  N   UNL     1       2.102  -1.996   0.000  0.00  0.00    -0.204 NA
ATOM     12  C   UNL     1       2.816  -2.408   0.000  0.00  0.00    +0.266 C 
ATOM     13  O   UNL     1       2.816  -3.233   0.000  0.00  0.00    -0.271 OA
BRANCH  11  15
ATOM     14  C   UNL     1       0.672  -1.996   0.000  0.00  0.00    +0.025 C 
ATOM     15  C   UNL     1       1.387  -2.408   0.000  0.00  0.00    +0.115 C 
ENDBRANCH  11  15
ENDBRANCH  10  12
ENDBRANCH   1  10
BRANCH   4  16
ATOM     16  C   UNL     1       6.371  -2.599   0.000  0.00  0.00    +0.065 C 
BRANCH  16  17
ATOM     17  C   UNL     1       6.856  -3.267   0.000  0.00  0.00    +0.187 C 
ATOM     18  O   UNL     1       7.676  -3.181   0.000  0.00  0.00    -0.220 OA
ENDBRANCH  16  17
ENDBRANCH   4  16
TORSDOF 6
