REMARK  Name = 
REMARK  4 active torsions:
REMARK  status: ('A' for Active; 'I' for Inactive)
REMARK    1  A    between atoms: C_4  and  C_15
REMARK    2  A    between atoms: C_6  and  S_7
REMARK    3  A    between atoms: S_7  and  C_8
REMARK    4  A    between atoms: C_8  and  C_9
REMARK                            x       y       z     vdW  Elec       q    Type
REMARK                         _______ _______ _______ _____ _____    ______ ____
ROOT
ATOM      1  O   UNL     1       3.466   6.003   0.000  0.00  0.00    -0.265 OA
ATOM      2  C   UNL     1       4.180   5.590   0.000  0.00  0.00    +0.283 A 
ATOM      3  N   UNL     1       4.180   4.765   0.000  0.00  0.00    -0.183 NA
ATOM      4  C   UNL     1       4.895   4.353   0.000  0.00  0.00    +0.193 A 
ATOM      5  N   UNL     1       5.609   4.765   0.000  0.00  0.00    -0.217 NA
ATOM      6  C   UNL     1       5.609   5.590   0.000  0.00  0.00    +0.160 A 
ATOM      7  C   UNL     1       4.895   6.003   0.000  0.00  0.00    +0.086 A 
ENDROOT
BRANCH   6   8
ATOM      8  C   UNL     1       6.324   6.003   0.000  0.00  0.00    +0.435 C 
ATOM      9  F   UNL     1       5.911   6.717   0.000  0.00  0.00    -0.164 F 
ATOM     10  F   UNL     1       6.736   5.288   0.000  0.00  0.00    -0.164 F 
ATOM     11  F   UNL     1       7.038   6.415   0.000  0.00  0.00    -0.164 F 
ENDBRANCH   6   8
BRANCH   4  12
ATOM     12  S   UNL     1       4.895   3.528   0.000  0.00  0.00    -0.073 S 
BRANCH  12  13
ATOM     13  C   UNL     1       4.180   3.115   0.000  0.00  0.00    +0.095 C 
BRANCH  13  14
ATOM     14  C   UNL     1       4.180   2.290   0.000  0.00  0.00    +0.126 C 
ATOM     15  O   UNL     1       3.513   1.805   0.000  0.00  0.00    -0.355 OA
ATOM     16  C   UNL     1       3.768   1.021   0.000  0.00  0.00    +0.142 C 
ATOM     17  C   UNL     1       4.593   1.021   0.000  0.00  0.00    +0.035 C 
ATOM     18  C   UNL     1       4.848   1.805   0.000  0.00  0.00    +0.033 C 
ENDBRANCH  13  14
ENDBRANCH  12  13
ENDBRANCH   4  12
TORSDOF 4
