REMARK  Name = 
REMARK  4 active torsions:
REMARK  status: ('A' for Active; 'I' for Inactive)
REMARK    1  A    between atoms: C_7  and  N_8
REMARK    2  A    between atoms: N_11  and  C_12
REMARK    3  A    between atoms: C_12  and  C_13
REMARK    4  A    between atoms: C_13  and  N_14
REMARK                            x       y       z     vdW  Elec       q    Type
REMARK                         _______ _______ _______ _____ _____    ______ ____
ROOT
ATOM      1  N   UNL     1       1.304  -4.050   0.000  0.00  0.00    -0.142 NA
ATOM      2  C   UNL     1       2.018  -4.462   0.000  0.00  0.00    +0.345 C 
ATOM      3  N   UNL     1       2.733  -4.050   0.000  0.00  0.00    -0.185 NA
ATOM      4  O   UNL     1       2.018  -5.287   0.000  0.00  0.00    -0.249 OA
ENDROOT
BRANCH   1   7
ATOM      5  C   UNL     1       1.304  -5.700   0.000  0.00  0.00    +0.034 C 
ATOM      6  C   UNL     1       0.589  -5.287   0.000  0.00  0.00    +0.012 A 
ATOM      7  C   UNL     1       0.589  -4.462   0.000  0.00  0.00    +0.152 A 
ATOM      8  N   UNL     1      -0.125  -4.050   0.000  0.00  0.00    -0.228 NA
ATOM      9  C   UNL     1      -0.840  -4.462   0.000  0.00  0.00    +0.100 A 
ATOM     10  C   UNL     1      -0.840  -5.287   0.000  0.00  0.00    +0.020 A 
ATOM     11  C   UNL     1      -0.125  -5.700   0.000  0.00  0.00    +0.000 A 
ENDBRANCH   1   7
BRANCH   3  12
ATOM     12  C   UNL     1       3.447  -4.462   0.000  0.00  0.00    +0.138 C 
BRANCH  12  13
ATOM     13  C   UNL     1       4.162  -4.050   0.000  0.00  0.00    +0.117 C 
BRANCH  13  14
ATOM     14  N   UNL     1       4.876  -4.462   0.000  0.00  0.00    -0.278 N 
ATOM     15  C   UNL     1       4.814  -5.285   0.000  0.00  0.00    +0.226 C 
ATOM     16  O   UNL     1       4.046  -5.586   0.000  0.00  0.00    -0.275 OA
ATOM     17  C   UNL     1       5.419  -5.846   0.000  0.00  0.00    +0.085 C 
ATOM     18  C   UNL     1       6.235  -5.723   0.000  0.00  0.00    +0.010 C 
ATOM     19  C   UNL     1       6.648  -5.008   0.000  0.00  0.00    +0.002 C 
ATOM     20  C   UNL     1       6.346  -4.240   0.000  0.00  0.00    +0.022 C 
ATOM     21  C   UNL     1       5.558  -3.997   0.000  0.00  0.00    +0.093 C 
ENDBRANCH  13  14
ENDBRANCH  12  13
ENDBRANCH   3  12
TORSDOF 4
