REMARK  Name = 
REMARK  2 active torsions:
REMARK  status: ('A' for Active; 'I' for Inactive)
REMARK    1  A    between atoms: N_3  and  C_4
REMARK    2  A    between atoms: C_4  and  C_5
REMARK                            x       y       z     vdW  Elec       q    Type
REMARK                         _______ _______ _______ _____ _____    ______ ____
ROOT
ATOM      1  O   UNL     1       2.816  -3.233   0.000  0.00  0.00    -0.249 OA
ATOM      2  C   UNL     1       2.816  -2.408   0.000  0.00  0.00    +0.345 C 
ATOM      3  N   UNL     1       3.530  -1.996   0.000  0.00  0.00    -0.134 NA
ATOM      4  C   UNL     1       4.245  -2.408   0.000  0.00  0.00    +0.209 A 
ATOM      5  S   UNL     1       4.331  -3.229   0.000  0.00  0.00    -0.027 S 
ATOM      6  C   UNL     1       5.138  -3.400   0.000  0.00  0.00    +0.161 A 
ATOM      7  N   UNL     1       5.551  -2.686   0.000  0.00  0.00    -0.137 NA
ATOM      8  N   UNL     1       4.999  -2.073   0.000  0.00  0.00    -0.123 NA
ATOM      9  N   UNL     1       2.102  -1.996   0.000  0.00  0.00    -0.187 NA
ENDROOT
BRANCH   9  10
ATOM     10  C   UNL     1       1.387  -2.408   0.000  0.00  0.00    +0.117 C 
BRANCH  10  11
ATOM     11  C   UNL     1       0.672  -1.996   0.000  0.00  0.00    +0.022 C 
ATOM     12  C   UNL     1       0.459  -1.199   0.000  0.00  0.00    +0.002 C 
ATOM     13  C   UNL     1      -0.338  -1.412   0.000  0.00  0.00    +0.000 C 
ATOM     14  C   UNL     1      -0.124  -2.209   0.000  0.00  0.00    +0.002 C 
ENDBRANCH  10  11
ENDBRANCH   9  10
TORSDOF 2
