REMARK  Name = 
REMARK  1 active torsions:
REMARK  status: ('A' for Active; 'I' for Inactive)
REMARK    1  A    between atoms: C_7  and  C_8
REMARK                            x       y       z     vdW  Elec       q    Type
REMARK                         _______ _______ _______ _____ _____    ______ ____
ROOT
ATOM      1  C   UNL     1       0.715  -1.238   0.000  0.00  0.00    +0.292 C 
ATOM      2  N   UNL     1       0.715  -0.412   0.000  0.00  0.00    -0.163 N 
ATOM      3  O   UNL     1       1.429   0.000   0.000  0.00  0.00    -0.263 OA
ATOM      4  C   UNL     1       1.429   0.825   0.000  0.00  0.00    +0.171 C 
ATOM      5  C   UNL     1       0.715   1.238   0.000  0.00  0.00    +0.037 C 
ATOM      6  C   UNL     1       0.000   0.825   0.000  0.00  0.00    +0.027 C 
ATOM      7  C   UNL     1       0.000   0.000   0.000  0.00  0.00    +0.124 C 
ATOM      8  O   UNL     1       0.000  -1.650   0.000  0.00  0.00    -0.266 OA
ENDROOT
BRANCH   1  11
ATOM      9  N   UNL     1       2.143  -0.412   0.000  0.00  0.00    -0.105 NA
ATOM     10  C   UNL     1       2.143  -1.238   0.000  0.00  0.00    +0.192 A 
ATOM     11  C   UNL     1       1.429  -1.650   0.000  0.00  0.00    +0.171 A 
ATOM     12  N   UNL     1       1.429  -2.475   0.000  0.00  0.00    -0.235 NA
ATOM     13  C   UNL     1       2.143  -2.888   0.000  0.00  0.00    +0.120 A 
ATOM     14  C   UNL     1       2.858  -2.475   0.000  0.00  0.00    +0.121 A 
ATOM     15  N   UNL     1       2.858  -1.650   0.000  0.00  0.00    -0.223 NA
ENDBRANCH   1  11
TORSDOF 1
