REMARK  Name = 
REMARK  5 active torsions:
REMARK  status: ('A' for Active; 'I' for Inactive)
REMARK    1  A    between atoms: O_2  and  C_3
REMARK    2  A    between atoms: C_8  and  N_9
REMARK    3  A    between atoms: C_10  and  C_12
REMARK    4  A    between atoms: C_12  and  O_13
REMARK    5  A    between atoms: O_13  and  C_14
REMARK                            x       y       z     vdW  Elec       q    Type
REMARK                         _______ _______ _______ _____ _____    ______ ____
ROOT
ATOM      1  N   UNL     1       2.143  -0.412   0.000  0.00  0.00    -0.155 NA
ATOM      2  C   UNL     1       2.858   0.000   0.000  0.00  0.00    +0.277 C 
ATOM      3  O   UNL     1       2.858   0.825   0.000  0.00  0.00    -0.270 OA
ENDROOT
BRANCH   1   5
ATOM      4  C   UNL     1       0.715  -0.412   0.000  0.00  0.00    +0.172 A 
ATOM      5  C   UNL     1       1.429   0.000   0.000  0.00  0.00    +0.189 A 
ATOM      6  N   UNL     1       1.429   0.825   0.000  0.00  0.00    -0.225 NA
ATOM      7  C   UNL     1       0.715   1.238   0.000  0.00  0.00    +0.101 A 
ATOM      8  C   UNL     1       0.000   0.825   0.000  0.00  0.00    +0.024 A 
ATOM      9  C   UNL     1       0.000   0.000   0.000  0.00  0.00    +0.041 A 
BRANCH   4  11
ATOM     10  C   UNL     1       0.000  -1.650   0.000  0.00  0.00    +0.253 C 
ATOM     11  O   UNL     1       0.715  -1.238   0.000  0.00  0.00    -0.469 OA
ENDBRANCH   4  11
ENDBRANCH   1   5
BRANCH   2  12
ATOM     12  C   UNL     1       3.572  -0.412   0.000  0.00  0.00    +0.229 C 
BRANCH  12  13
ATOM     13  O   UNL     1       4.287   0.000   0.000  0.00  0.00    -0.347 OA
BRANCH  13  14
ATOM     14  C   UNL     1       5.001  -0.412   0.000  0.00  0.00    +0.116 C 
ATOM     15  C   UNL     1       5.088  -1.233   0.000  0.00  0.00    +0.030 C 
ATOM     16  C   UNL     1       5.894  -1.405   0.000  0.00  0.00    +0.003 C 
ATOM     17  C   UNL     1       6.307  -0.690   0.000  0.00  0.00    +0.003 C 
ATOM     18  C   UNL     1       5.755  -0.077   0.000  0.00  0.00    +0.030 C 
ENDBRANCH  13  14
ENDBRANCH  12  13
ENDBRANCH   2  12
TORSDOF 5
