REMARK  Name = 
REMARK  7 active torsions:
REMARK  status: ('A' for Active; 'I' for Inactive)
REMARK    1  A    between atoms: C_2  and  C_3
REMARK    2  A    between atoms: C_2  and  C_14
REMARK    3  A    between atoms: C_3  and  O_4
REMARK    4  A    between atoms: O_4  and  C_5
REMARK    5  A    between atoms: C_8  and  C_9
REMARK    6  A    between atoms: C_9  and  C_10
REMARK    7  A    between atoms: C_14  and  N_15
REMARK                            x       y       z     vdW  Elec       q    Type
REMARK                         _______ _______ _______ _____ _____    ______ ____
ROOT
ATOM      1  O   UNL     1       4.923   0.415   0.000  0.00  0.00    -0.217 OA
ATOM      2  C   UNL     1       4.923  -0.410   0.000  0.00  0.00    +0.218 C 
ENDROOT
BRANCH   2   3
ATOM      3  C   UNL     1       4.208  -0.822   0.000  0.00  0.00    +0.240 C 
BRANCH   3   4
ATOM      4  O   UNL     1       3.494  -0.410   0.000  0.00  0.00    -0.473 OA
BRANCH   4   5
ATOM      5  C   UNL     1       2.779  -0.822   0.000  0.00  0.00    +0.139 A 
ATOM      6  C   UNL     1       2.065  -0.410   0.000  0.00  0.00    +0.037 A 
ATOM      7  C   UNL     1       1.350  -0.822   0.000  0.00  0.00    -0.000 A 
ATOM      8  C   UNL     1       1.350  -1.647   0.000  0.00  0.00    -0.007 A 
ATOM      9  C   UNL     1       2.065  -2.060   0.000  0.00  0.00    -0.000 A 
ATOM     10  C   UNL     1       2.779  -1.647   0.000  0.00  0.00    +0.037 A 
BRANCH   8  11
ATOM     11  C   UNL     1       0.636  -2.060   0.000  0.00  0.00    +0.132 C 
BRANCH  11  12
ATOM     12  C   UNL     1      -0.079  -1.647   0.000  0.00  0.00    +0.078 C 
ATOM     13  N   UNL     1      -0.793  -1.235   0.000  0.00  0.00    -0.196 NA
ENDBRANCH  11  12
ENDBRANCH   8  11
ENDBRANCH   4   5
ENDBRANCH   3   4
ENDBRANCH   2   3
BRANCH   2  14
ATOM     14  C   UNL     1       5.637  -0.822   0.000  0.00  0.00    +0.144 C 
BRANCH  14  15
ATOM     15  N   UNL     1       6.351  -0.410   0.000  0.00  0.00    -0.306 N 
ATOM     16  C   UNL     1       7.105  -0.745   0.000  0.00  0.00    +0.079 A 
ATOM     17  C   UNL     1       7.657  -0.132   0.000  0.00  0.00    +0.099 A 
ATOM     18  C   UNL     1       8.464  -0.304   0.000  0.00  0.00    +0.021 A 
ATOM     19  C   UNL     1       8.719  -1.088   0.000  0.00  0.00    +0.002 A 
ATOM     20  C   UNL     1       8.167  -1.701   0.000  0.00  0.00    +0.002 A 
ATOM     21  N   UNL     1       7.245   0.582   0.000  0.00  0.00    -0.224 NA
ATOM     22  C   UNL     1       7.360  -1.530   0.000  0.00  0.00    +0.019 A 
ATOM     23  C   UNL     1       6.438   0.411   0.000  0.00  0.00    +0.179 A 
ENDBRANCH  14  15
ENDBRANCH   2  14
TORSDOF 7
