REMARK  Name = 
REMARK  4 active torsions:
REMARK  status: ('A' for Active; 'I' for Inactive)
REMARK    1  A    between atoms: C_4  and  C_6
REMARK    2  A    between atoms: C_6  and  C_7
REMARK    3  A    between atoms: C_7  and  N_8
REMARK    4  A    between atoms: N_11  and  C_12
REMARK                            x       y       z     vdW  Elec       q    Type
REMARK                         _______ _______ _______ _____ _____    ______ ____
ROOT
ATOM      1  C   UNL     1       1.429  -1.650   0.000  0.00  0.00    +0.125 C 
ENDROOT
BRANCH   1   2
ATOM      2  C   UNL     1       2.143  -1.238   0.000  0.00  0.00    +0.089 C 
ATOM      3  C   UNL     1       2.479  -1.991   0.000  0.00  0.00    +0.010 C 
ATOM      4  C   UNL     1       3.300  -1.905   0.000  0.00  0.00    +0.001 C 
ATOM      5  C   UNL     1       3.471  -1.098   0.000  0.00  0.00    +0.001 C 
ATOM      6  C   UNL     1       2.756  -0.685   0.000  0.00  0.00    +0.010 C 
BRANCH   2   9
ATOM      7  C   UNL     1       0.353   0.011   0.000  0.00  0.00    +0.115 C 
ATOM      8  N   UNL     1       0.838  -0.656   0.000  0.00  0.00    -0.276 N 
ATOM      9  C   UNL     1       1.659  -0.570   0.000  0.00  0.00    +0.226 C 
ATOM     10  O   UNL     1       1.994   0.184   0.000  0.00  0.00    -0.275 OA
ATOM     11  C   UNL     1       0.502  -1.410   0.000  0.00  0.00    +0.115 C 
ENDBRANCH   2   9
ENDBRANCH   1   2
BRANCH   1  12
ATOM     12  N   UNL     1       1.429  -2.475   0.000  0.00  0.00    -0.186 NA
ATOM     13  C   UNL     1       2.143  -2.888   0.000  0.00  0.00    +0.344 C 
ATOM     14  N   UNL     1       2.858  -2.475   0.000  0.00  0.00    -0.161 NA
ATOM     15  O   UNL     1       2.143  -3.712   0.000  0.00  0.00    -0.249 OA
BRANCH  14  16
ATOM     16  C   UNL     1       3.572  -2.888   0.000  0.00  0.00    +0.078 A 
ATOM     17  C   UNL     1       3.572  -3.712   0.000  0.00  0.00    +0.037 A 
ATOM     18  C   UNL     1       4.287  -4.125   0.000  0.00  0.00    +0.100 A 
ATOM     19  N   UNL     1       5.001  -3.712   0.000  0.00  0.00    -0.242 NA
ATOM     20  C   UNL     1       5.001  -2.888   0.000  0.00  0.00    +0.100 A 
ATOM     21  C   UNL     1       4.287  -2.475   0.000  0.00  0.00    +0.037 A 
ENDBRANCH  14  16
ENDBRANCH   1  12
TORSDOF 4
