REMARK  Name = 
REMARK  7 active torsions:
REMARK  status: ('A' for Active; 'I' for Inactive)
REMARK    1  A    between atoms: C_3  and  C_5
REMARK    2  A    between atoms: C_5  and  C_6
REMARK    3  A    between atoms: C_5  and  N_10
REMARK    4  A    between atoms: C_6  and  C_7
REMARK    5  A    between atoms: C_11  and  C_13
REMARK    6  A    between atoms: C_13  and  N_14
REMARK    7  A    between atoms: C_16  and  C_21
REMARK                            x       y       z     vdW  Elec       q    Type
REMARK                         _______ _______ _______ _____ _____    ______ ____
ROOT
ATOM      1  N   UNL     1       4.095  -1.760   0.000  0.00  0.00    -0.196 NA
ATOM      2  C   UNL     1       4.508  -2.475   0.000  0.00  0.00    +0.265 C 
ATOM      3  O   UNL     1       4.594  -3.296   0.000  0.00  0.00    -0.271 OA
ENDROOT
BRANCH   2   4
ATOM      4  C   UNL     1       5.333  -2.475   0.000  0.00  0.00    +0.196 C 
BRANCH   4   5
ATOM      5  N   UNL     1       5.745  -3.189   0.000  0.00  0.00    -0.285 N 
ATOM      6  C   UNL     1       5.333  -3.904   0.000  0.00  0.00    +0.261 A 
ATOM      7  O   UNL     1       4.508  -3.904   0.000  0.00  0.00    -0.267 OA
ATOM      8  C   UNL     1       5.745  -4.618   0.000  0.00  0.00    +0.061 A 
ATOM      9  C   UNL     1       6.570  -4.618   0.000  0.00  0.00    +0.010 A 
ATOM     10  C   UNL     1       6.983  -3.904   0.000  0.00  0.00    +0.089 A 
ATOM     11  C   UNL     1       6.570  -3.189   0.000  0.00  0.00    +0.083 A 
BRANCH  10  12
ATOM     12  C   UNL     1       7.808  -3.904   0.000  0.00  0.00    +0.420 C 
ATOM     13  F   UNL     1       7.808  -3.079   0.000  0.00  0.00    -0.166 F 
ATOM     14  F   UNL     1       7.808  -4.729   0.000  0.00  0.00    -0.166 F 
ATOM     15  F   UNL     1       8.633  -3.904   0.000  0.00  0.00    -0.166 F 
ENDBRANCH  10  12
ENDBRANCH   4   5
ENDBRANCH   2   4
BRANCH   1  16
ATOM     16  C   UNL     1       3.270  -1.760   0.000  0.00  0.00    +0.173 C 
BRANCH  16  19
ATOM     17  C   UNL     1       1.620  -0.332   0.000  0.00  0.00    +0.139 C 
ATOM     18  N   UNL     1       2.033  -1.046   0.000  0.00  0.00    -0.202 NA
ATOM     19  C   UNL     1       2.858  -1.046   0.000  0.00  0.00    +0.261 C 
ATOM     20  O   UNL     1       3.270  -0.332   0.000  0.00  0.00    -0.271 OA
ENDBRANCH  16  19
BRANCH  16  21
ATOM     21  C   UNL     1       2.858  -2.475   0.000  0.00  0.00    +0.031 C 
BRANCH  21  22
ATOM     22  C   UNL     1       3.270  -3.189   0.000  0.00  0.00    +0.002 C 
ATOM     23  C   UNL     1       2.858  -3.904   0.000  0.00  0.00    +0.000 C 
ATOM     24  C   UNL     1       4.095  -3.189   0.000  0.00  0.00    +0.000 C 
ENDBRANCH  21  22
ENDBRANCH  16  21
ENDBRANCH   1  16
TORSDOF 7
