REMARK  Name = 
REMARK  4 active torsions:
REMARK  status: ('A' for Active; 'I' for Inactive)
REMARK    1  A    between atoms: C_4  and  C_5
REMARK    2  A    between atoms: C_5  and  C_6
REMARK    3  A    between atoms: C_6  and  N_7
REMARK    4  A    between atoms: N_7  and  C_8
REMARK                            x       y       z     vdW  Elec       q    Type
REMARK                         _______ _______ _______ _____ _____    ______ ____
ROOT
ATOM      1  C   UNL     1      -0.551   1.779   0.000  0.00  0.00    +0.095 C 
ENDROOT
BRANCH   1   2
ATOM      2  C   UNL     1      -1.265   2.192   0.000  0.00  0.00    +0.065 C 
BRANCH   2   7
ATOM      3  C   UNL     1      -0.368   4.954   0.000  0.00  0.00    +0.059 C 
ATOM      4  C   UNL     1      -0.853   4.286   0.000  0.00  0.00    +0.088 A 
ATOM      5  S   UNL     1      -1.678   4.286   0.000  0.00  0.00    -0.071 S 
ATOM      6  C   UNL     1      -1.933   3.502   0.000  0.00  0.00    +0.051 A 
ATOM      7  C   UNL     1      -1.265   3.017   0.000  0.00  0.00    +0.067 A 
ATOM      8  N   UNL     1      -0.598   3.502   0.000  0.00  0.00    -0.247 NA
ENDBRANCH   2   7
ENDBRANCH   1   2
BRANCH   1   9
ATOM      9  N   UNL     1      -0.551   0.954   0.000  0.00  0.00    -0.219 NA
BRANCH   9  10
ATOM     10  C   UNL     1       0.164   0.542   0.000  0.00  0.00    +0.073 C 
ATOM     11  C   UNL     1       0.878   0.954   0.000  0.00  0.00    +0.016 C 
ATOM     12  C   UNL     1       0.672   0.129   0.000  0.00  0.00    +0.001 C 
ATOM     13  C   UNL     1       0.878  -0.696   0.000  0.00  0.00    +0.001 C 
ATOM     14  C   UNL     1       1.593  -0.283   0.000  0.00  0.00    +0.000 C 
ATOM     15  C   UNL     1       1.593   0.542   0.000  0.00  0.00    +0.001 C 
ATOM     16  C   UNL     1       0.164  -0.283   0.000  0.00  0.00    +0.017 C 
ENDBRANCH   9  10
ENDBRANCH   1   9
TORSDOF 4
