REMARK  Name = 
REMARK  4 active torsions:
REMARK  status: ('A' for Active; 'I' for Inactive)
REMARK    1  A    between atoms: C_5  and  C_6
REMARK    2  A    between atoms: C_6  and  C_7
REMARK    3  A    between atoms: C_7  and  N_8
REMARK    4  A    between atoms: N_11  and  C_12
REMARK                            x       y       z     vdW  Elec       q    Type
REMARK                         _______ _______ _______ _____ _____    ______ ____
ROOT
ATOM      1  N   UNL     1       4.809  -3.776   0.000  0.00  0.00    -0.187 NA
ATOM      2  C   UNL     1       5.523  -4.188   0.000  0.00  0.00    +0.339 C 
ATOM      3  N   UNL     1       6.237  -3.776   0.000  0.00  0.00    -0.189 NA
ATOM      4  O   UNL     1       5.523  -5.013   0.000  0.00  0.00    -0.249 OA
ENDROOT
BRANCH   3   5
ATOM      5  C   UNL     1       6.952  -4.188   0.000  0.00  0.00    +0.101 C 
ATOM      6  C   UNL     1       7.165  -4.985   0.000  0.00  0.00    +0.044 C 
ATOM      7  C   UNL     1       6.441  -5.379   0.000  0.00  0.00    +0.004 C 
ATOM      8  C   UNL     1       7.187  -5.810   0.000  0.00  0.00    +0.004 C 
ATOM      9  C   UNL     1       7.962  -4.772   0.000  0.00  0.00    +0.118 C 
ATOM     10  O   UNL     1       8.786  -4.815   0.000  0.00  0.00    -0.356 OA
ATOM     11  C   UNL     1       9.082  -4.045   0.000  0.00  0.00    +0.142 C 
ATOM     12  C   UNL     1       8.441  -3.525   0.000  0.00  0.00    +0.036 C 
ATOM     13  C   UNL     1       7.749  -3.975   0.000  0.00  0.00    +0.050 C 
ENDBRANCH   3   5
BRANCH   1  14
ATOM     14  C   UNL     1       4.094  -4.188   0.000  0.00  0.00    +0.122 C 
BRANCH  14  15
ATOM     15  C   UNL     1       3.380  -3.776   0.000  0.00  0.00    +0.051 C 
BRANCH  15  20
ATOM     16  C   UNL     1       0.522  -5.426   0.000  0.00  0.00    +0.052 C 
ATOM     17  C   UNL     1       1.236  -5.013   0.000  0.00  0.00    +0.059 A 
ATOM     18  N   UNL     1       1.951  -5.426   0.000  0.00  0.00    -0.248 NA
ATOM     19  C   UNL     1       2.665  -5.013   0.000  0.00  0.00    +0.094 A 
ATOM     20  C   UNL     1       2.665  -4.188   0.000  0.00  0.00    -0.001 A 
ATOM     21  C   UNL     1       1.951  -3.776   0.000  0.00  0.00    -0.001 A 
ATOM     22  C   UNL     1       1.236  -4.188   0.000  0.00  0.00    +0.014 A 
ENDBRANCH  15  20
ENDBRANCH  14  15
ENDBRANCH   1  14
TORSDOF 4
