REMARK  Name = 
REMARK  4 active torsions:
REMARK  status: ('A' for Active; 'I' for Inactive)
REMARK    1  A    between atoms: C_2  and  C_5
REMARK    2  A    between atoms: C_7  and  N_15
REMARK    3  A    between atoms: C_9  and  C_11
REMARK    4  A    between atoms: C_19  and  C_21
REMARK                            x       y       z     vdW  Elec       q    Type
REMARK                         _______ _______ _______ _____ _____    ______ ____
ROOT
ATOM      1  C   UNL     1       0.715  -1.238   0.000  0.00  0.00    +0.062 A 
ATOM      2  N   UNL     1       0.000  -1.650   0.000  0.00  0.00    -0.235 NA
ATOM      3  C   UNL     1       0.000  -2.475   0.000  0.00  0.00    +0.139 A 
ATOM      4  N   UNL     1       0.715  -2.888   0.000  0.00  0.00    -0.216 NA
ATOM      5  C   UNL     1       1.429  -2.475   0.000  0.00  0.00    +0.134 A 
ATOM      6  C   UNL     1       1.429  -1.650   0.000  0.00  0.00    +0.049 A 
ENDROOT
BRANCH   5   7
ATOM      7  N   UNL     1       2.143  -2.888   0.000  0.00  0.00    -0.288 N 
ATOM      8  C   UNL     1       2.143  -3.712   0.000  0.00  0.00    +0.131 C 
ATOM      9  C   UNL     1       2.858  -4.125   0.000  0.00  0.00    +0.214 C 
ATOM     10  O   UNL     1       3.572  -3.712   0.000  0.00  0.00    -0.343 OA
ATOM     11  C   UNL     1       3.572  -2.888   0.000  0.00  0.00    +0.164 C 
ATOM     12  C   UNL     1       2.858  -2.475   0.000  0.00  0.00    +0.124 C 
BRANCH   9  13
ATOM     13  C   UNL     1       2.858  -4.950   0.000  0.00  0.00    +0.290 C 
ATOM     14  N   UNL     1       2.143  -5.362   0.000  0.00  0.00    -0.086 NA
ATOM     15  O   UNL     1       3.572  -5.362   0.000  0.00  0.00    -0.269 OA
ENDBRANCH   9  13
ENDBRANCH   5   7
BRANCH   1  17
ATOM     16  C   UNL     1       0.715   0.412   0.000  0.00  0.00    +0.006 C 
ATOM     17  C   UNL     1       0.715  -0.412   0.000  0.00  0.00    +0.036 C 
ATOM     18  C   UNL     1       1.540  -0.412   0.000  0.00  0.00    +0.006 C 
ATOM     19  C   UNL     1      -0.111  -0.412   0.000  0.00  0.00    +0.006 C 
ENDBRANCH   1  17
BRANCH   3  20
ATOM     20  C   UNL     1      -0.715  -2.888   0.000  0.00  0.00    +0.052 C 
ATOM     21  C   UNL     1      -0.302  -3.602   0.000  0.00  0.00    +0.008 C 
ATOM     22  C   UNL     1      -1.127  -2.173   0.000  0.00  0.00    +0.008 C 
ATOM     23  C   UNL     1      -1.429  -3.300   0.000  0.00  0.00    +0.008 C 
ENDBRANCH   3  20
TORSDOF 4
