REMARK  Name = 
REMARK  3 active torsions:
REMARK  status: ('A' for Active; 'I' for Inactive)
REMARK    1  A    between atoms: N_4  and  C_10
REMARK    2  A    between atoms: C_10  and  C_12
REMARK    3  A    between atoms: C_12  and  C_13
REMARK                            x       y       z     vdW  Elec       q    Type
REMARK                         _______ _______ _______ _____ _____    ______ ____
ROOT
ATOM      1  C   UNL     1       1.924  -0.284   0.000  0.00  0.00    +0.173 A 
ATOM      2  N   UNL     1       1.139  -0.029   0.000  0.00  0.00    -0.217 NA
ATOM      3  C   UNL     1       0.651  -0.697   0.000  0.00  0.00    +0.180 A 
ATOM      4  N   UNL     1       1.139  -1.365   0.000  0.00  0.00    -0.292 N 
ATOM      5  C   UNL     1       0.885  -2.153   0.000  0.00  0.00    +0.134 C 
ATOM      6  C   UNL     1       2.642   0.129   0.000  0.00  0.00    +0.283 A 
ATOM      7  O   UNL     1       2.642   0.956   0.000  0.00  0.00    -0.265 OA
ATOM      8  N   UNL     1       3.355  -0.284   0.000  0.00  0.00    -0.274 N 
ATOM      9  C   UNL     1       3.355  -1.110   0.000  0.00  0.00    +0.182 A 
ATOM     10  N   UNL     1       2.642  -1.523   0.000  0.00  0.00    -0.206 NA
ATOM     11  C   UNL     1       1.924  -1.110   0.000  0.00  0.00    +0.169 A 
ENDROOT
BRANCH   8  12
ATOM     12  C   UNL     1       4.073   0.129   0.000  0.00  0.00    +0.143 C 
BRANCH  12  13
ATOM     13  C   UNL     1       4.073   0.956   0.000  0.00  0.00    +0.174 C 
ATOM     14  O   UNL     1       3.355   1.369   0.000  0.00  0.00    -0.221 OA
BRANCH  13  15
ATOM     15  C   UNL     1       4.787   1.369   0.000  0.00  0.00    +0.032 C 
ATOM     16  C   UNL     1       5.000   2.166   0.000  0.00  0.00    +0.003 C 
ATOM     17  C   UNL     1       5.797   1.953   0.000  0.00  0.00    +0.000 C 
ATOM     18  C   UNL     1       5.584   1.156   0.000  0.00  0.00    +0.003 C 
ENDBRANCH  13  15
ENDBRANCH  12  13
ENDBRANCH   8  12
TORSDOF 3
