REMARK  Name = 
REMARK  4 active torsions:
REMARK  status: ('A' for Active; 'I' for Inactive)
REMARK    1  A    between atoms: C_2  and  C_5
REMARK    2  A    between atoms: C_8  and  N_9
REMARK    3  A    between atoms: N_12  and  C_13
REMARK    4  A    between atoms: N_16  and  C_19
REMARK                            x       y       z     vdW  Elec       q    Type
REMARK                         _______ _______ _______ _____ _____    ______ ____
ROOT
ATOM      1  N   UNL     1       0.000   7.553   0.000  0.00  0.00    -0.158 NA
ATOM      2  C   UNL     1       0.000   6.728   0.000  0.00  0.00    +0.344 C 
ATOM      3  N   UNL     1       0.715   6.315   0.000  0.00  0.00    -0.189 NA
ATOM      4  O   UNL     1      -0.715   6.315   0.000  0.00  0.00    -0.249 OA
ENDROOT
BRANCH   1   8
ATOM      5  C   UNL     1      -2.143   8.790   0.000  0.00  0.00    +0.138 A 
ATOM      6  N   UNL     1      -2.143   7.965   0.000  0.00  0.00    -0.228 NA
ATOM      7  C   UNL     1      -1.429   7.553   0.000  0.00  0.00    +0.118 A 
ATOM      8  C   UNL     1      -0.715   7.965   0.000  0.00  0.00    +0.113 A 
ATOM      9  C   UNL     1      -0.715   8.790   0.000  0.00  0.00    +0.118 A 
ATOM     10  N   UNL     1      -1.429   9.203   0.000  0.00  0.00    -0.228 NA
BRANCH   5  12
ATOM     11  C   UNL     1      -3.572   9.615   0.000  0.00  0.00    +0.008 C 
ATOM     12  C   UNL     1      -2.858   9.203   0.000  0.00  0.00    +0.052 C 
ATOM     13  C   UNL     1      -2.445   9.917   0.000  0.00  0.00    +0.008 C 
ATOM     14  C   UNL     1      -3.270   8.488   0.000  0.00  0.00    +0.008 C 
ENDBRANCH   5  12
ENDBRANCH   1   8
BRANCH   3  15
ATOM     15  C   UNL     1       0.715   5.490   0.000  0.00  0.00    +0.100 C 
ATOM     16  C   UNL     1       0.000   5.078   0.000  0.00  0.00    +0.039 C 
ATOM     17  C   UNL     1       0.000   4.253   0.000  0.00  0.00    +0.074 C 
ATOM     18  N   UNL     1       0.715   3.840   0.000  0.00  0.00    -0.274 NA
ATOM     19  C   UNL     1       1.429   4.253   0.000  0.00  0.00    +0.074 C 
ATOM     20  C   UNL     1       1.429   5.078   0.000  0.00  0.00    +0.039 C 
BRANCH  18  21
ATOM     21  C   UNL     1       0.715   3.015   0.000  0.00  0.00    +0.058 C 
ATOM     22  C   UNL     1       0.302   2.301   0.000  0.00  0.00    +0.017 C 
ATOM     23  C   UNL     1       1.127   2.301   0.000  0.00  0.00    +0.017 C 
ENDBRANCH  18  21
ENDBRANCH   3  15
TORSDOF 4
