REMARK  Name = 
REMARK  5 active torsions:
REMARK  status: ('A' for Active; 'I' for Inactive)
REMARK    1  A    between atoms: C_2  and  N_4
REMARK    2  A    between atoms: C_7  and  N_10
REMARK    3  A    between atoms: N_10  and  C_11
REMARK    4  A    between atoms: C_11  and  C_12
REMARK    5  A    between atoms: C_12  and  C_13
REMARK                            x       y       z     vdW  Elec       q    Type
REMARK                         _______ _______ _______ _____ _____    ______ ____
ROOT
ATOM      1  N   UNL     1       2.858  -2.475   0.000  0.00  0.00    -0.274 NA
ATOM      2  C   UNL     1       2.143  -2.888   0.000  0.00  0.00    +0.073 C 
ATOM      3  C   UNL     1       2.143  -3.712   0.000  0.00  0.00    +0.035 C 
ATOM      4  C   UNL     1       2.858  -4.125   0.000  0.00  0.00    +0.076 C 
ATOM      5  C   UNL     1       3.572  -3.712   0.000  0.00  0.00    +0.035 C 
ATOM      6  C   UNL     1       3.572  -2.888   0.000  0.00  0.00    +0.073 C 
ENDROOT
BRANCH   1   8
ATOM      7  C   UNL     1       2.143  -1.238   0.000  0.00  0.00    +0.017 C 
ATOM      8  C   UNL     1       2.858  -1.650   0.000  0.00  0.00    +0.058 C 
ATOM      9  C   UNL     1       3.572  -1.238   0.000  0.00  0.00    +0.017 C 
ENDBRANCH   1   8
BRANCH   4  10
ATOM     10  N   UNL     1       2.858  -4.950   0.000  0.00  0.00    -0.219 NA
BRANCH  10  11
ATOM     11  C   UNL     1       2.143  -5.362   0.000  0.00  0.00    +0.095 C 
BRANCH  11  12
ATOM     12  C   UNL     1       2.143  -6.188   0.000  0.00  0.00    +0.065 C 
BRANCH  12  13
ATOM     13  C   UNL     1       1.429  -6.600   0.000  0.00  0.00    +0.060 A 
ATOM     14  N   UNL     1       0.715  -6.188   0.000  0.00  0.00    -0.248 NA
ATOM     15  C   UNL     1       0.000  -6.600   0.000  0.00  0.00    +0.098 A 
ATOM     16  C   UNL     1       0.000  -7.425   0.000  0.00  0.00    +0.021 A 
ATOM     17  C   UNL     1       0.715  -7.838   0.000  0.00  0.00    +0.003 A 
ATOM     18  C   UNL     1       1.429  -7.425   0.000  0.00  0.00    +0.015 A 
ENDBRANCH  12  13
ENDBRANCH  11  12
ENDBRANCH  10  11
ENDBRANCH   4  10
TORSDOF 5
