REMARK  Name = 
REMARK  3 active torsions:
REMARK  status: ('A' for Active; 'I' for Inactive)
REMARK    1  A    between atoms: C_8  and  C_9
REMARK    2  A    between atoms: C_9  and  C_11
REMARK    3  A    between atoms: C_11  and  N_12
REMARK                            x       y       z     vdW  Elec       q    Type
REMARK                         _______ _______ _______ _____ _____    ______ ____
ROOT
ATOM      1  C   UNL     1       0.000  -2.475   0.000  0.00  0.00    +0.197 C 
ATOM      2  O   UNL     1       0.000  -1.650   0.000  0.00  0.00    -0.216 OA
ENDROOT
BRANCH   1   5
ATOM      3  C   UNL     1       1.429  -1.650   0.000  0.00  0.00    +0.031 C 
ATOM      4  C   UNL     1       1.429  -2.475   0.000  0.00  0.00    -0.021 A 
ATOM      5  C   UNL     1       0.715  -2.888   0.000  0.00  0.00    +0.006 A 
ATOM      6  C   UNL     1       0.715  -3.712   0.000  0.00  0.00    +0.000 A 
ATOM      7  C   UNL     1       1.429  -4.125   0.000  0.00  0.00    +0.029 A 
ATOM      8  C   UNL     1       2.143  -3.712   0.000  0.00  0.00    +0.140 A 
ATOM      9  F   UNL     1       2.858  -4.125   0.000  0.00  0.00    -0.204 F 
ATOM     10  C   UNL     1       2.143  -2.888   0.000  0.00  0.00    +0.025 A 
ENDBRANCH   1   5
BRANCH   1  11
ATOM     11  C   UNL     1      -0.715  -2.888   0.000  0.00  0.00    +0.148 C 
BRANCH  11  12
ATOM     12  N   UNL     1      -1.429  -2.475   0.000  0.00  0.00    -0.275 N 
ATOM     13  C   UNL     1      -1.429  -1.650   0.000  0.00  0.00    +0.259 A 
ATOM     14  O   UNL     1      -0.715  -1.238   0.000  0.00  0.00    -0.267 OA
ATOM     15  C   UNL     1      -2.143  -1.238   0.000  0.00  0.00    +0.048 A 
ATOM     16  C   UNL     1      -2.143  -0.412   0.000  0.00  0.00    +0.037 C 
ATOM     17  C   UNL     1      -2.858  -1.650   0.000  0.00  0.00    +0.062 A 
ATOM     18  C   UNL     1      -3.572  -1.238   0.000  0.00  0.00    +0.052 C 
ATOM     19  N   UNL     1      -2.858  -2.475   0.000  0.00  0.00    -0.230 NA
ATOM     20  C   UNL     1      -2.143  -2.888   0.000  0.00  0.00    +0.181 A 
ENDBRANCH  11  12
ENDBRANCH   1  11
TORSDOF 3
