REMARK  Name = 
REMARK  4 active torsions:
REMARK  status: ('A' for Active; 'I' for Inactive)
REMARK    1  A    between atoms: C_3  and  C_5
REMARK    2  A    between atoms: N_10  and  C_11
REMARK    3  A    between atoms: C_11  and  C_12
REMARK    4  A    between atoms: N_14  and  C_15
REMARK                            x       y       z     vdW  Elec       q    Type
REMARK                         _______ _______ _______ _____ _____    ______ ____
ROOT
ATOM      1  C   UNL     1      -4.117  -1.839   0.000  0.00  0.00    +0.196 C 
ENDROOT
BRANCH   1   4
ATOM      2  C   UNL     1      -2.688  -0.189   0.000  0.00  0.00    +0.072 A 
ATOM      3  C   UNL     1      -3.403  -0.602   0.000  0.00  0.00    +0.083 A 
ATOM      4  N   UNL     1      -3.403  -1.427   0.000  0.00  0.00    -0.285 N 
ATOM      5  C   UNL     1      -2.688  -1.839   0.000  0.00  0.00    +0.261 A 
ATOM      6  O   UNL     1      -2.688  -2.664   0.000  0.00  0.00    -0.267 OA
ATOM      7  C   UNL     1      -1.974  -1.427   0.000  0.00  0.00    +0.061 A 
ATOM      8  C   UNL     1      -1.974  -0.602   0.000  0.00  0.00    +0.011 A 
BRANCH   2  11
ATOM      9  C   UNL     1      -1.974   1.873   0.000  0.00  0.00    +0.139 C 
ATOM     10  N   UNL     1      -1.974   1.048   0.000  0.00  0.00    -0.200 NA
ATOM     11  C   UNL     1      -2.688   0.636   0.000  0.00  0.00    +0.266 C 
ATOM     12  O   UNL     1      -3.403   1.048   0.000  0.00  0.00    -0.268 OA
ENDBRANCH   2  11
ENDBRANCH   1   4
BRANCH   1  13
ATOM     13  C   UNL     1      -4.832  -1.427   0.000  0.00  0.00    +0.264 C 
ATOM     14  N   UNL     1      -5.546  -1.839   0.000  0.00  0.00    -0.206 NA
ATOM     15  O   UNL     1      -4.832  -0.602   0.000  0.00  0.00    -0.271 OA
BRANCH  14  16
ATOM     16  C   UNL     1      -5.546  -2.664   0.000  0.00  0.00    +0.095 C 
ATOM     17  C   UNL     1      -6.309  -2.980   0.000  0.00  0.00    +0.022 C 
ATOM     18  C   UNL     1      -6.624  -3.742   0.000  0.00  0.00    +0.002 C 
ATOM     19  C   UNL     1      -6.309  -4.504   0.000  0.00  0.00    +0.000 C 
ATOM     20  C   UNL     1      -5.546  -4.820   0.000  0.00  0.00    +0.000 C 
ATOM     21  C   UNL     1      -4.784  -4.504   0.000  0.00  0.00    +0.000 C 
ATOM     22  C   UNL     1      -4.468  -3.742   0.000  0.00  0.00    +0.002 C 
ATOM     23  C   UNL     1      -4.784  -2.980   0.000  0.00  0.00    +0.022 C 
ENDBRANCH  14  16
ENDBRANCH   1  13
TORSDOF 4
