REMARK  Name = 
REMARK  2 active torsions:
REMARK  status: ('A' for Active; 'I' for Inactive)
REMARK    1  A    between atoms: C_7  and  N_8
REMARK    2  A    between atoms: N_11  and  C_12
REMARK                            x       y       z     vdW  Elec       q    Type
REMARK                         _______ _______ _______ _____ _____    ______ ____
ROOT
ATOM      1  N   UNL     1       1.429  -2.475   0.000  0.00  0.00    -0.189 NA
ATOM      2  C   UNL     1       1.429  -1.650   0.000  0.00  0.00    +0.344 C 
ATOM      3  N   UNL     1       0.715  -1.238   0.000  0.00  0.00    -0.156 NA
ATOM      4  O   UNL     1       2.143  -1.238   0.000  0.00  0.00    -0.249 OA
ENDROOT
BRANCH   3   5
ATOM      5  C   UNL     1       0.715  -0.412   0.000  0.00  0.00    +0.131 A 
ATOM      6  C   UNL     1       1.429   0.000   0.000  0.00  0.00    +0.276 A 
ATOM      7  O   UNL     1       2.143  -0.412   0.000  0.00  0.00    -0.266 OA
ATOM      8  N   UNL     1       1.429   0.825   0.000  0.00  0.00    -0.291 N 
ATOM      9  C   UNL     1       2.143   1.238   0.000  0.00  0.00    +0.134 C 
ATOM     10  C   UNL     1       0.715   1.238   0.000  0.00  0.00    +0.078 A 
ATOM     11  C   UNL     1       0.000   0.825   0.000  0.00  0.00    +0.020 A 
ATOM     12  C   UNL     1       0.000   0.000   0.000  0.00  0.00    +0.023 A 
ENDBRANCH   3   5
BRANCH   1  15
ATOM     13  C   UNL     1       2.858  -1.650   0.000  0.00  0.00    +0.002 C 
ATOM     14  C   UNL     1       2.858  -2.475   0.000  0.00  0.00    +0.020 C 
ATOM     15  C   UNL     1       2.143  -2.888   0.000  0.00  0.00    +0.097 C 
ATOM     16  C   UNL     1       2.143  -3.712   0.000  0.00  0.00    +0.022 C 
ATOM     17  C   UNL     1       2.858  -4.125   0.000  0.00  0.00    +0.002 C 
ATOM     18  C   UNL     1       3.572  -3.712   0.000  0.00  0.00    +0.000 C 
ATOM     19  C   UNL     1       3.572  -2.888   0.000  0.00  0.00    +0.002 C 
ENDBRANCH   1  15
TORSDOF 2
