REMARK  Name = 
REMARK  5 active torsions:
REMARK  status: ('A' for Active; 'I' for Inactive)
REMARK    1  A    between atoms: C_3  and  C_5
REMARK    2  A    between atoms: C_5  and  C_6
REMARK    3  A    between atoms: C_8  and  C_9
REMARK    4  A    between atoms: C_9  and  C_10
REMARK    5  A    between atoms: C_10  and  C_11
REMARK                            x       y       z     vdW  Elec       q    Type
REMARK                         _______ _______ _______ _____ _____    ______ ____
ROOT
ATOM      1  C   UNL     1       2.318  -1.961   0.000  0.00  0.00    +0.097 A 
ATOM      2  S   UNL     1       1.651  -2.446   0.000  0.00  0.00    -0.070 S 
ATOM      3  C   UNL     1       1.906  -3.231   0.000  0.00  0.00    +0.051 A 
ATOM      4  C   UNL     1       2.731  -3.231   0.000  0.00  0.00    +0.066 A 
ATOM      5  N   UNL     1       2.986  -2.446   0.000  0.00  0.00    -0.247 NA
ENDROOT
BRANCH   1   6
ATOM      6  C   UNL     1       2.318  -1.136   0.000  0.00  0.00    +0.139 C 
BRANCH   6   9
ATOM      7  C   UNL     1       0.889   0.514   0.000  0.00  0.00    +0.139 C 
ATOM      8  N   UNL     1       1.604   0.101   0.000  0.00  0.00    -0.203 NA
ATOM      9  C   UNL     1       1.604  -0.724   0.000  0.00  0.00    +0.248 C 
ATOM     10  O   UNL     1       0.889  -1.136   0.000  0.00  0.00    -0.273 OA
ENDBRANCH   6   9
ENDBRANCH   1   6
BRANCH   4  11
ATOM     11  C   UNL     1       3.216  -3.898   0.000  0.00  0.00    +0.046 C 
BRANCH  11  12
ATOM     12  C   UNL     1       4.036  -3.812   0.000  0.00  0.00    +0.006 C 
BRANCH  12  13
ATOM     13  C   UNL     1       4.521  -4.479   0.000  0.00  0.00    +0.000 C 
ATOM     14  C   UNL     1       4.266  -5.264   0.000  0.00  0.00    +0.000 C 
ATOM     15  C   UNL     1       4.934  -5.749   0.000  0.00  0.00    +0.000 C 
ATOM     16  C   UNL     1       5.601  -5.264   0.000  0.00  0.00    +0.000 C 
ATOM     17  C   UNL     1       5.346  -4.479   0.000  0.00  0.00    +0.000 C 
ENDBRANCH  12  13
ENDBRANCH  11  12
ENDBRANCH   4  11
TORSDOF 5
