REMARK  Name = 
REMARK  3 active torsions:
REMARK  status: ('A' for Active; 'I' for Inactive)
REMARK    1  A    between atoms: C_2  and  S_3
REMARK    2  A    between atoms: S_3  and  C_4
REMARK    3  A    between atoms: C_8  and  N_9
REMARK                            x       y       z     vdW  Elec       q    Type
REMARK                         _______ _______ _______ _____ _____    ______ ____
ROOT
ATOM      1  N   UNL     1       2.143  -1.841   0.000  0.00  0.00    -0.188 NA
ATOM      2  C   UNL     1       1.971  -1.034   0.000  0.00  0.00    +0.345 C 
ATOM      3  N   UNL     1       1.187  -0.779   0.000  0.00  0.00    -0.136 NA
ATOM      4  C   UNL     1       1.015   0.028   0.000  0.00  0.00    +0.187 A 
ATOM      5  S   UNL     1       1.567   0.641   0.000  0.00  0.00    -0.049 S 
ATOM      6  C   UNL     1       1.155   1.355   0.000  0.00  0.00    +0.059 A 
ATOM      7  C   UNL     1       0.348   1.184   0.000  0.00  0.00    +0.108 A 
ATOM      8  N   UNL     1       0.262   0.363   0.000  0.00  0.00    -0.221 NA
ATOM      9  O   UNL     1       2.584  -0.482   0.000  0.00  0.00    -0.249 OA
ENDROOT
BRANCH   1  11
ATOM     10  C   UNL     1       3.595  -1.611   0.000  0.00  0.00    +0.068 C 
ATOM     11  C   UNL     1       2.928  -2.096   0.000  0.00  0.00    +0.107 C 
ATOM     12  C   UNL     1       3.182  -2.881   0.000  0.00  0.00    +0.023 C 
ATOM     13  C   UNL     1       4.007  -2.881   0.000  0.00  0.00    +0.003 C 
ATOM     14  C   UNL     1       4.262  -2.096   0.000  0.00  0.00    +0.013 C 
BRANCH  10  15
ATOM     15  S   UNL     1       3.595  -0.786   0.000  0.00  0.00    -0.139 S 
BRANCH  15  17
ATOM     16  C   UNL     1       4.309   0.451   0.000  0.00  0.00    +0.013 C 
ATOM     17  C   UNL     1       4.309  -0.374   0.000  0.00  0.00    +0.058 C 
ENDBRANCH  15  17
ENDBRANCH  10  15
ENDBRANCH   1  11
TORSDOF 3
