REMARK  Name = 
REMARK  2 active torsions:
REMARK  status: ('A' for Active; 'I' for Inactive)
REMARK    1  A    between atoms: C_2  and  C_4
REMARK    2  A    between atoms: C_4  and  C_7
REMARK                            x       y       z     vdW  Elec       q    Type
REMARK                         _______ _______ _______ _____ _____    ______ ____
ROOT
ATOM      1  C   UNL     1       0.715   1.238   0.000  0.00  0.00    +0.126 A 
ATOM      2  C   UNL     1       0.000   0.825   0.000  0.00  0.00    +0.286 A 
ATOM      3  O   UNL     1      -0.715   1.238   0.000  0.00  0.00    -0.265 OA
ATOM      4  N   UNL     1       0.000   0.000   0.000  0.00  0.00    -0.152 NA
ATOM      5  C   UNL     1       0.715  -0.412   0.000  0.00  0.00    +0.371 A 
ATOM      6  O   UNL     1       0.715  -1.238   0.000  0.00  0.00    -0.243 OA
ATOM      7  N   UNL     1       1.429   0.000   0.000  0.00  0.00    -0.189 NA
ATOM      8  C   UNL     1       1.429   0.825   0.000  0.00  0.00    +0.110 A 
ENDROOT
BRANCH   1   9
ATOM      9  C   UNL     1       0.715   2.062   0.000  0.00  0.00    +0.379 C 
ATOM     10  F   UNL     1       1.540   2.062   0.000  0.00  0.00    -0.187 F 
ATOM     11  F   UNL     1      -0.111   2.062   0.000  0.00  0.00    -0.187 F 
BRANCH   9  13
ATOM     12  O   UNL     1       0.000   3.300   0.000  0.00  0.00    -0.239 OA
ATOM     13  C   UNL     1       0.715   2.888   0.000  0.00  0.00    +0.429 C 
ATOM     14  O   UNL     1       1.429   3.300   0.000  0.00  0.00    -0.239 OA
ENDBRANCH   9  13
ENDBRANCH   1   9
TORSDOF 2
