REMARK  Name = 
REMARK  5 active torsions:
REMARK  status: ('A' for Active; 'I' for Inactive)
REMARK    1  A    between atoms: C_2  and  C_3
REMARK    2  A    between atoms: C_3  and  C_4
REMARK    3  A    between atoms: C_3  and  C_6
REMARK    4  A    between atoms: C_8  and  N_12
REMARK    5  A    between atoms: N_15  and  C_16
REMARK                            x       y       z     vdW  Elec       q    Type
REMARK                         _______ _______ _______ _____ _____    ______ ____
ROOT
ATOM      1  N   UNL     1       4.287  -4.125   0.000  0.00  0.00    -0.189 NA
ATOM      2  C   UNL     1       4.287  -4.950   0.000  0.00  0.00    +0.344 C 
ATOM      3  N   UNL     1       5.001  -5.362   0.000  0.00  0.00    -0.156 NA
ATOM      4  O   UNL     1       3.572  -5.362   0.000  0.00  0.00    -0.249 OA
ENDROOT
BRANCH   3   5
ATOM      5  C   UNL     1       5.001  -6.188   0.000  0.00  0.00    +0.127 A 
ATOM      6  C   UNL     1       4.287  -6.600   0.000  0.00  0.00    +0.276 A 
ATOM      7  O   UNL     1       3.572  -6.188   0.000  0.00  0.00    -0.266 OA
ATOM      8  N   UNL     1       4.287  -7.425   0.000  0.00  0.00    -0.291 N 
ATOM      9  C   UNL     1       3.572  -7.838   0.000  0.00  0.00    +0.134 C 
ATOM     10  C   UNL     1       5.001  -7.838   0.000  0.00  0.00    +0.078 A 
ATOM     11  C   UNL     1       5.716  -7.425   0.000  0.00  0.00    +0.016 A 
ATOM     12  C   UNL     1       5.716  -6.600   0.000  0.00  0.00    -0.000 A 
ATOM     13  C   UNL     1       6.430  -6.188   0.000  0.00  0.00    +0.033 C 
ENDBRANCH   3   5
BRANCH   1  18
ATOM     14  C   UNL     1       2.858  -2.475   0.000  0.00  0.00    +0.117 C 
ATOM     15  O   UNL     1       2.143  -2.888   0.000  0.00  0.00    -0.356 OA
ATOM     16  C   UNL     1       2.143  -3.712   0.000  0.00  0.00    +0.144 C 
ATOM     17  C   UNL     1       2.858  -4.125   0.000  0.00  0.00    +0.054 C 
ATOM     18  C   UNL     1       3.572  -3.712   0.000  0.00  0.00    +0.102 C 
ATOM     19  C   UNL     1       3.572  -2.888   0.000  0.00  0.00    +0.051 C 
BRANCH  14  20
ATOM     20  C   UNL     1       2.858  -1.650   0.000  0.00  0.00    +0.027 C 
BRANCH  20  22
ATOM     21  C   UNL     1       2.143  -0.412   0.000  0.00  0.00    +0.000 C 
ATOM     22  C   UNL     1       2.143  -1.238   0.000  0.00  0.00    +0.002 C 
ENDBRANCH  20  22
BRANCH  20  23
ATOM     23  C   UNL     1       3.572  -1.238   0.000  0.00  0.00    +0.002 C 
ATOM     24  C   UNL     1       4.287  -1.650   0.000  0.00  0.00    +0.000 C 
ENDBRANCH  20  23
ENDBRANCH  14  20
ENDBRANCH   1  18
TORSDOF 5
