REMARK  Name = 
REMARK  3 active torsions:
REMARK  status: ('A' for Active; 'I' for Inactive)
REMARK    1  A    between atoms: C_2  and  C_3
REMARK    2  A    between atoms: C_3  and  N_4
REMARK    3  A    between atoms: N_7  and  C_8
REMARK                            x       y       z     vdW  Elec       q    Type
REMARK                         _______ _______ _______ _____ _____    ______ ____
ROOT
ATOM      1  N   UNL     1       0.715  -6.188   0.000  0.00  0.00    -0.177 NA
ATOM      2  C   UNL     1       1.429  -5.775   0.000  0.00  0.00    +0.344 C 
ATOM      3  N   UNL     1       2.143  -6.188   0.000  0.00  0.00    -0.159 NA
ATOM      4  O   UNL     1       1.429  -4.950   0.000  0.00  0.00    -0.249 OA
ENDROOT
BRANCH   3   5
ATOM      5  C   UNL     1       2.858  -5.775   0.000  0.00  0.00    +0.094 A 
ATOM      6  C   UNL     1       3.572  -6.188   0.000  0.00  0.00    +0.117 A 
ATOM      7  N   UNL     1       4.287  -5.775   0.000  0.00  0.00    -0.228 NA
ATOM      8  C   UNL     1       4.287  -4.950   0.000  0.00  0.00    +0.132 A 
ATOM      9  N   UNL     1       5.001  -4.537   0.000  0.00  0.00    -0.288 N 
ATOM     10  C   UNL     1       5.716  -4.950   0.000  0.00  0.00    +0.124 C 
ATOM     11  C   UNL     1       6.430  -4.537   0.000  0.00  0.00    +0.164 C 
ATOM     12  O   UNL     1       6.430  -3.712   0.000  0.00  0.00    -0.350 OA
ATOM     13  C   UNL     1       5.716  -3.300   0.000  0.00  0.00    +0.164 C 
ATOM     14  C   UNL     1       5.001  -3.712   0.000  0.00  0.00    +0.124 C 
ATOM     15  C   UNL     1       3.572  -4.537   0.000  0.00  0.00    +0.036 A 
ATOM     16  C   UNL     1       2.858  -4.950   0.000  0.00  0.00    +0.021 A 
ENDBRANCH   3   5
BRANCH   1  17
ATOM     17  C   UNL     1       0.000  -5.775   0.000  0.00  0.00    +0.201 C 
BRANCH  17  19
ATOM     18  O   UNL     1      -0.715  -7.013   0.000  0.00  0.00    -0.273 OA
ATOM     19  C   UNL     1      -0.715  -6.188   0.000  0.00  0.00    +0.248 C 
ATOM     20  N   UNL     1      -1.429  -5.775   0.000  0.00  0.00    -0.278 N 
ATOM     21  C   UNL     1      -1.515  -4.955   0.000  0.00  0.00    +0.094 C 
ATOM     22  C   UNL     1      -2.322  -4.783   0.000  0.00  0.00    +0.023 C 
ATOM     23  C   UNL     1      -2.735  -5.497   0.000  0.00  0.00    +0.023 C 
ATOM     24  C   UNL     1      -2.183  -6.111   0.000  0.00  0.00    +0.094 C 
ENDBRANCH  17  19
ENDBRANCH   1  17
TORSDOF 3
