REMARK  Name = 
REMARK  5 active torsions:
REMARK  status: ('A' for Active; 'I' for Inactive)
REMARK    1  A    between atoms: N_4  and  S_9
REMARK    2  A    between atoms: S_9  and  N_12
REMARK    3  A    between atoms: N_12  and  C_13
REMARK    4  A    between atoms: C_13  and  C_14
REMARK    5  A    between atoms: C_14  and  C_15
REMARK                            x       y       z     vdW  Elec       q    Type
REMARK                         _______ _______ _______ _____ _____    ______ ____
ROOT
ATOM      1  S   UNL     1       5.001  -4.537   0.000  0.00  0.00    +0.116 S 
ATOM      2  O   UNL     1       5.414  -3.823   0.000  0.00  0.00    -0.140 OA
ATOM      3  O   UNL     1       4.589  -5.252   0.000  0.00  0.00    -0.140 OA
ENDROOT
BRANCH   1  10
ATOM      4  C   UNL     1       3.572  -2.062   0.000  0.00  0.00    +0.034 C 
ATOM      5  C   UNL     1       3.572  -2.888   0.000  0.00  0.00    +0.133 C 
ATOM      6  O   UNL     1       2.858  -3.300   0.000  0.00  0.00    -0.356 OA
ATOM      7  C   UNL     1       2.858  -4.125   0.000  0.00  0.00    +0.133 C 
ATOM      8  C   UNL     1       2.143  -4.537   0.000  0.00  0.00    +0.034 C 
ATOM      9  C   UNL     1       3.572  -4.537   0.000  0.00  0.00    +0.126 C 
ATOM     10  N   UNL     1       4.287  -4.125   0.000  0.00  0.00    -0.139 NA
ATOM     11  C   UNL     1       4.287  -3.300   0.000  0.00  0.00    +0.126 C 
ENDBRANCH   1  10
BRANCH   1  12
ATOM     12  N   UNL     1       5.716  -4.950   0.000  0.00  0.00    -0.066 NA
BRANCH  12  13
ATOM     13  C   UNL     1       5.716  -5.775   0.000  0.00  0.00    +0.121 C 
BRANCH  13  14
ATOM     14  C   UNL     1       6.430  -6.188   0.000  0.00  0.00    +0.049 C 
BRANCH  14  15
ATOM     15  C   UNL     1       6.430  -7.013   0.000  0.00  0.00    -0.002 A 
ATOM     16  C   UNL     1       5.716  -7.425   0.000  0.00  0.00    +0.095 A 
ATOM     17  N   UNL     1       5.716  -8.250   0.000  0.00  0.00    -0.243 NA
ATOM     18  C   UNL     1       6.430  -8.662   0.000  0.00  0.00    +0.099 A 
ATOM     19  C   UNL     1       7.145  -8.250   0.000  0.00  0.00    +0.020 A 
ATOM     20  C   UNL     1       7.145  -7.425   0.000  0.00  0.00    -0.001 A 
ENDBRANCH  14  15
ENDBRANCH  13  14
ENDBRANCH  12  13
ENDBRANCH   1  12
TORSDOF 5
