REMARK  Name = 
REMARK  2 active torsions:
REMARK  status: ('A' for Active; 'I' for Inactive)
REMARK    1  A    between atoms: C_5  and  C_6
REMARK    2  A    between atoms: C_6  and  C_7
REMARK                            x       y       z     vdW  Elec       q    Type
REMARK                         _______ _______ _______ _____ _____    ______ ____
ROOT
ATOM      1 CL   UNL     1       0.000   0.000   0.000  0.00  0.00    +0.000 Cl
ENDROOT
TORSDOF 0
REMARK  Name = 
REMARK  2 active torsions:
REMARK  status: ('A' for Active; 'I' for Inactive)
REMARK    1  A    between atoms: C_5  and  C_6
REMARK    2  A    between atoms: C_6  and  C_7
REMARK                            x       y       z     vdW  Elec       q    Type
REMARK                         _______ _______ _______ _____ _____    ______ ____
ROOT
ATOM      1  C   UNL     1       2.553   2.010   0.000  0.00  0.00    +0.076 C 
ATOM      2  C   UNL     1       2.553   1.185   0.000  0.00  0.00    +0.162 A 
ATOM      3  N   UNL     1       1.886   0.701   0.000  0.00  0.00    -0.132 NA
ATOM      4  N   UNL     1       2.141  -0.084   0.000  0.00  0.00    -0.132 NA
ATOM      5  C   UNL     1       2.966  -0.084   0.000  0.00  0.00    +0.164 A 
ATOM      6  N   UNL     1       3.221   0.701   0.000  0.00  0.00    -0.212 NA
ENDROOT
BRANCH   5   7
ATOM      7  C   UNL     1       3.451  -0.751   0.000  0.00  0.00    +0.088 C 
BRANCH   7   8
ATOM      8  C   UNL     1       3.115  -1.505   0.000  0.00  0.00    +0.117 C 
ATOM      9  N   UNL     1       3.600  -2.173   0.000  0.00  0.00    -0.131 NA
ENDBRANCH   7   8
ENDBRANCH   5   7
TORSDOF 2
