REMARK  Name = 
REMARK  5 active torsions:
REMARK  status: ('A' for Active; 'I' for Inactive)
REMARK    1  A    between atoms: C_6  and  O_7
REMARK    2  A    between atoms: O_7  and  C_8
REMARK    3  A    between atoms: C_8  and  C_9
REMARK    4  A    between atoms: C_9  and  C_11
REMARK    5  A    between atoms: C_11  and  N_12
REMARK                            x       y       z     vdW  Elec       q    Type
REMARK                         _______ _______ _______ _____ _____    ______ ____
ROOT
ATOM      1  C   UNL     1       2.143  -2.888   0.000  0.00  0.00    +0.218 C 
ATOM      2  O   UNL     1       2.143  -3.712   0.000  0.00  0.00    -0.217 OA
ENDROOT
BRANCH   1   3
ATOM      3  C   UNL     1       1.429  -2.475   0.000  0.00  0.00    +0.240 C 
BRANCH   3   4
ATOM      4  O   UNL     1       0.715  -2.888   0.000  0.00  0.00    -0.473 OA
BRANCH   4   8
ATOM      5  C   UNL     1      -2.143  -2.888   0.000  0.00  0.00    +0.031 C 
ATOM      6  C   UNL     1      -1.429  -2.475   0.000  0.00  0.00    -0.019 A 
ATOM      7  C   UNL     1      -0.715  -2.888   0.000  0.00  0.00    +0.033 A 
ATOM      8  C   UNL     1       0.000  -2.475   0.000  0.00  0.00    +0.138 A 
ATOM      9  C   UNL     1       0.000  -1.650   0.000  0.00  0.00    +0.037 A 
ATOM     10  C   UNL     1      -0.715  -1.238   0.000  0.00  0.00    +0.003 A 
ATOM     11  C   UNL     1      -1.429  -1.650   0.000  0.00  0.00    -0.004 A 
ENDBRANCH   4   8
ENDBRANCH   3   4
ENDBRANCH   1   3
BRANCH   1  12
ATOM     12  C   UNL     1       2.858  -2.475   0.000  0.00  0.00    +0.147 C 
BRANCH  12  13
ATOM     13  N   UNL     1       3.572  -2.888   0.000  0.00  0.00    -0.276 N 
ATOM     14  C   UNL     1       3.572  -3.712   0.000  0.00  0.00    +0.259 A 
ATOM     15  O   UNL     1       2.858  -4.125   0.000  0.00  0.00    -0.267 OA
ATOM     16  C   UNL     1       4.287  -4.125   0.000  0.00  0.00    +0.048 A 
ATOM     17  C   UNL     1       4.287  -4.950   0.000  0.00  0.00    +0.037 C 
ATOM     18  C   UNL     1       5.001  -3.712   0.000  0.00  0.00    +0.062 A 
ATOM     19  C   UNL     1       5.716  -4.125   0.000  0.00  0.00    +0.052 C 
ATOM     20  N   UNL     1       5.001  -2.888   0.000  0.00  0.00    -0.230 NA
ATOM     21  C   UNL     1       4.287  -2.475   0.000  0.00  0.00    +0.181 A 
ENDBRANCH  12  13
ENDBRANCH   1  12
TORSDOF 5
