REMARK  Name = 
REMARK  5 active torsions:
REMARK  status: ('A' for Active; 'I' for Inactive)
REMARK    1  A    between atoms: N_2  and  C_4
REMARK    2  A    between atoms: N_6  and  C_7
REMARK    3  A    between atoms: C_7  and  C_8
REMARK    4  A    between atoms: N_10  and  C_11
REMARK    5  A    between atoms: C_11  and  C_12
REMARK                            x       y       z     vdW  Elec       q    Type
REMARK                         _______ _______ _______ _____ _____    ______ ____
ROOT
ATOM      1  C   UNL     1      -1.869  -2.939   0.000  0.00  0.00    +0.264 C 
ATOM      2  N   UNL     1      -1.272  -2.370   0.000  0.00  0.00    -0.204 NA
ATOM      3  O   UNL     1      -1.674  -3.741   0.000  0.00  0.00    -0.271 OA
ENDROOT
BRANCH   1   4
ATOM      4  C   UNL     1      -2.661  -2.707   0.000  0.00  0.00    +0.194 C 
BRANCH   4  10
ATOM      5  C   UNL     1      -4.646  -3.614   0.000  0.00  0.00    +0.345 A 
ATOM      6  C   UNL     1      -4.451  -4.415   0.000  0.00  0.00    +0.267 A 
ATOM      7  O   UNL     1      -5.048  -4.985   0.000  0.00  0.00    -0.280 OA
ATOM      8  C   UNL     1      -3.660  -4.648   0.000  0.00  0.00    +0.067 A 
ATOM      9  C   UNL     1      -3.063  -4.078   0.000  0.00  0.00    +0.080 A 
ATOM     10  N   UNL     1      -3.258  -3.276   0.000  0.00  0.00    -0.311 N 
ATOM     11  C   UNL     1      -4.049  -3.044   0.000  0.00  0.00    +0.156 A 
BRANCH   5  13
ATOM     12  O   UNL     1      -6.035  -3.951   0.000  0.00  0.00    -0.576 OA
ATOM     13  N   UNL     1      -5.438  -3.382   0.000  0.00  0.00    +0.086 N 
ATOM     14  O   UNL     1      -5.633  -2.580   0.000  0.00  0.00    +0.042 OA
ENDBRANCH   5  13
ENDBRANCH   4  10
ENDBRANCH   1   4
BRANCH   2  15
ATOM     15  C   UNL     1      -0.481  -2.602   0.000  0.00  0.00    +0.115 C 
BRANCH  15  16
ATOM     16  C   UNL     1       0.116  -2.032   0.000  0.00  0.00    +0.022 C 
ATOM     17  C   UNL     1       0.566  -1.242   0.000  0.00  0.00    +0.002 C 
ATOM     18  C   UNL     1       0.566  -0.494   0.000  0.00  0.00    +0.000 C 
ATOM     19  C   UNL     1       1.301  -0.121   0.000  0.00  0.00    +0.000 C 
ATOM     20  C   UNL     1       0.852  -0.911   0.000  0.00  0.00    +0.000 C 
ATOM     21  C   UNL     1       2.037  -0.494   0.000  0.00  0.00    +0.000 C 
ATOM     22  C   UNL     1       2.037  -1.242   0.000  0.00  0.00    +0.000 C 
ATOM     23  C   UNL     1       1.587  -2.032   0.000  0.00  0.00    +0.000 C 
ATOM     24  C   UNL     1       1.301  -1.616   0.000  0.00  0.00    +0.000 C 
ATOM     25  C   UNL     1       0.852  -1.659   0.000  0.00  0.00    +0.002 C 
ENDBRANCH  15  16
ENDBRANCH   2  15
TORSDOF 5
