REMARK  Name = 
REMARK  4 active torsions:
REMARK  status: ('A' for Active; 'I' for Inactive)
REMARK    1  A    between atoms: N_2  and  C_12
REMARK    2  A    between atoms: C_5  and  N_6
REMARK    3  A    between atoms: C_12  and  C_13
REMARK    4  A    between atoms: C_13  and  C_19
REMARK                            x       y       z     vdW  Elec       q    Type
REMARK                         _______ _______ _______ _____ _____    ______ ____
ROOT
ATOM      1  C   UNL     1       2.562   3.300   0.000  0.00  0.00    +0.149 A 
ATOM      2  C   UNL     1       3.275   3.712   0.000  0.00  0.00    +0.154 A 
ATOM      3  N   UNL     1       3.992   3.300   0.000  0.00  0.00    -0.207 NA
ATOM      4  C   UNL     1       3.992   2.475   0.000  0.00  0.00    +0.201 A 
ATOM      5  N   UNL     1       3.275   2.062   0.000  0.00  0.00    -0.205 NA
ATOM      6  N   UNL     1       1.779   3.558   0.000  0.00  0.00    -0.219 NA
ATOM      7  C   UNL     1       1.292   2.892   0.000  0.00  0.00    +0.180 A 
ATOM      8  N   UNL     1       1.779   2.221   0.000  0.00  0.00    -0.294 N 
ATOM      9  C   UNL     1       2.562   2.475   0.000  0.00  0.00    +0.167 A 
ENDROOT
BRANCH   2  10
ATOM     10  N   UNL     1       3.275   4.533   0.000  0.00  0.00    -0.292 N 
ATOM     11  C   UNL     1       3.992   4.950   0.000  0.00  0.00    +0.092 C 
ATOM     12  C   UNL     1       3.992   5.775   0.000  0.00  0.00    +0.022 C 
ATOM     13  C   UNL     1       3.275   6.188   0.000  0.00  0.00    +0.003 C 
ATOM     14  C   UNL     1       3.275   7.013   0.000  0.00  0.00    +0.000 C 
ATOM     15  C   UNL     1       2.562   5.775   0.000  0.00  0.00    +0.018 C 
ATOM     16  C   UNL     1       1.850   5.358   0.000  0.00  0.00    +0.002 C 
ATOM     17  C   UNL     1       1.133   5.775   0.000  0.00  0.00    +0.000 C 
ATOM     18  C   UNL     1       1.133   6.596   0.000  0.00  0.00    +0.000 C 
ATOM     19  C   UNL     1       1.850   7.013   0.000  0.00  0.00    +0.000 C 
ATOM     20  C   UNL     1       2.562   6.596   0.000  0.00  0.00    +0.002 C 
ATOM     21  C   UNL     1       2.562   4.950   0.000  0.00  0.00    +0.092 C 
ENDBRANCH   2  10
BRANCH   8  22
ATOM     22  C   UNL     1       1.521   1.438   0.000  0.00  0.00    +0.112 C 
BRANCH  22  23
ATOM     23  C   UNL     1       2.075   0.825   0.000  0.00  0.00    +0.056 C 
ATOM     24  C   UNL     1       2.583   1.475   0.000  0.00  0.00    +0.037 C 
ATOM     25  C   UNL     1       3.400   1.358   0.000  0.00  0.00    +0.142 C 
ATOM     26  O   UNL     1       3.708   0.596   0.000  0.00  0.00    -0.354 OA
ATOM     27  C   UNL     1       3.200  -0.054   0.000  0.00  0.00    +0.142 C 
ATOM     28  C   UNL     1       2.383   0.058   0.000  0.00  0.00    +0.037 C 
BRANCH  23  29
ATOM     29  C   UNL     1       1.375   0.388   0.000  0.00  0.00    +0.184 C 
ATOM     30  O   UNL     1       1.404  -0.438   0.000  0.00  0.00    -0.220 OA
ENDBRANCH  23  29
ENDBRANCH  22  23
ENDBRANCH   8  22
TORSDOF 4
