REMARK  Name = 
REMARK  6 active torsions:
REMARK  status: ('A' for Active; 'I' for Inactive)
REMARK    1  A    between atoms: N_3  and  C_15
REMARK    2  A    between atoms: N_4  and  C_16
REMARK    3  A    between atoms: C_12  and  C_16
REMARK    4  A    between atoms: C_15  and  C_17
REMARK    5  A    between atoms: C_17  and  C_24
REMARK    6  A    between atoms: C_17  and  C_25
REMARK                            x       y       z     vdW  Elec       q    Type
REMARK                         _______ _______ _______ _____ _____    ______ ____
ROOT
ATOM      1  N   UNL     1       2.638   0.954   0.000  0.00  0.00    -0.266 N 
ATOM      2  C   UNL     1       3.304   1.438   0.000  0.00  0.00    +0.180 C 
ATOM      3  C   UNL     1       3.050   2.225   0.000  0.00  0.00    +0.247 C 
ATOM      4  N   UNL     1       2.225   2.225   0.000  0.00  0.00    -0.253 N 
ATOM      5  O   UNL     1       3.533   2.892   0.000  0.00  0.00    -0.273 OA
ATOM      6  C   UNL     1       1.967   1.438   0.000  0.00  0.00    +0.192 C 
ATOM      7  C   UNL     1       2.638   0.129   0.000  0.00  0.00    +0.156 A 
ATOM      8  N   UNL     1       3.350  -0.283   0.000  0.00  0.00    -0.207 NA
ATOM      9  C   UNL     1       3.350  -1.108   0.000  0.00  0.00    +0.201 A 
ATOM     10  N   UNL     1       2.638  -1.521   0.000  0.00  0.00    -0.205 NA
ATOM     11  C   UNL     1       1.921  -1.108   0.000  0.00  0.00    +0.167 A 
ATOM     12  N   UNL     1       1.137  -1.363   0.000  0.00  0.00    -0.294 N 
ATOM     13  C   UNL     1       0.650  -0.696   0.000  0.00  0.00    +0.180 A 
ATOM     14  N   UNL     1       1.137  -0.029   0.000  0.00  0.00    -0.219 NA
ATOM     15  C   UNL     1       1.921  -0.283   0.000  0.00  0.00    +0.149 A 
ENDROOT
BRANCH   4  16
ATOM     16  C   UNL     1       1.738   2.892   0.000  0.00  0.00    +0.199 C 
BRANCH  16  17
ATOM     17  C   UNL     1       2.075   3.646   0.000  0.00  0.00    +0.416 C 
ATOM     18  F   UNL     1       2.408   4.396   0.000  0.00  0.00    -0.168 F 
ATOM     19  F   UNL     1       2.829   3.308   0.000  0.00  0.00    -0.168 F 
ATOM     20  F   UNL     1       1.321   3.979   0.000  0.00  0.00    -0.168 F 
ENDBRANCH  16  17
ENDBRANCH   4  16
BRANCH  12  21
ATOM     21  C   UNL     1       0.883  -2.150   0.000  0.00  0.00    +0.112 C 
BRANCH  21  22
ATOM     22  C   UNL     1       1.433  -2.763   0.000  0.00  0.00    +0.058 C 
BRANCH  22  23
ATOM     23  C   UNL     1       1.179  -3.546   0.000  0.00  0.00    +0.037 C 
ATOM     24  C   UNL     1       1.663  -4.213   0.000  0.00  0.00    +0.035 C 
ATOM     25  C   UNL     1       1.179  -4.879   0.000  0.00  0.00    +0.142 C 
ATOM     26  O   UNL     1       0.396  -4.625   0.000  0.00  0.00    -0.354 OA
ATOM     27  C   UNL     1       0.396  -3.800   0.000  0.00  0.00    +0.142 C 
ENDBRANCH  22  23
BRANCH  22  28
ATOM     28  C   UNL     1       2.242  -2.587   0.000  0.00  0.00    +0.184 C 
ATOM     29  O   UNL     1       2.792  -3.204   0.000  0.00  0.00    -0.220 OA
ENDBRANCH  22  28
ENDBRANCH  21  22
ENDBRANCH  12  21
TORSDOF 6
