REMARK  Name = 
REMARK  1 active torsions:
REMARK  status: ('A' for Active; 'I' for Inactive)
REMARK    1  A    between atoms: C_7  and  N_8
REMARK                            x       y       z     vdW  Elec       q    Type
REMARK                         _______ _______ _______ _____ _____    ______ ____
ROOT
ATOM      1  N   UNL     1       1.322   0.763   0.000  0.00  0.00    -0.131 NA
ATOM      2  C   UNL     1       2.037   1.176   0.000  0.00  0.00    +0.114 C 
ATOM      3  C   UNL     1       2.751   0.763   0.000  0.00  0.00    +0.123 C 
ATOM      4  C   UNL     1       3.466   1.176   0.000  0.00  0.00    +0.026 C 
ATOM      5  C   UNL     1       3.466   2.001   0.000  0.00  0.00    +0.002 C 
ATOM      6  C   UNL     1       2.751   2.413   0.000  0.00  0.00    +0.002 C 
ATOM      7  C   UNL     1       2.037   2.001   0.000  0.00  0.00    +0.021 C 
ENDROOT
BRANCH   3   8
ATOM      8  N   UNL     1       2.751  -0.062   0.000  0.00  0.00    -0.250 N 
ATOM      9  N   UNL     1       2.084  -0.546   0.000  0.00  0.00    -0.168 NA
ATOM     10  C   UNL     1       2.339  -1.331   0.000  0.00  0.00    +0.122 A 
ATOM     11  C   UNL     1       3.164  -1.331   0.000  0.00  0.00    +0.043 A 
ATOM     12  C   UNL     1       3.419  -0.546   0.000  0.00  0.00    +0.097 A 
ENDBRANCH   3   8
TORSDOF 1
