REMARK  Name = 
REMARK  5 active torsions:
REMARK  status: ('A' for Active; 'I' for Inactive)
REMARK    1  A    between atoms: C_2  and  C_3
REMARK    2  A    between atoms: C_2  and  N_9
REMARK    3  A    between atoms: C_3  and  N_4
REMARK    4  A    between atoms: N_9  and  C_10
REMARK    5  A    between atoms: C_10  and  C_11
REMARK                            x       y       z     vdW  Elec       q    Type
REMARK                         _______ _______ _______ _____ _____    ______ ____
ROOT
ATOM      1  C   UNL     1       2.858  -2.475   0.000  0.00  0.00    +0.089 C 
ENDROOT
BRANCH   1   2
ATOM      2  C   UNL     1       3.572  -2.888   0.000  0.00  0.00    +0.021 C 
ATOM      3  C   UNL     1       3.572  -3.712   0.000  0.00  0.00    +0.023 C 
ATOM      4  C   UNL     1       4.287  -4.125   0.000  0.00  0.00    +0.093 C 
ATOM      5  N   UNL     1       5.001  -3.712   0.000  0.00  0.00    -0.280 N 
ATOM      6  C   UNL     1       5.716  -4.125   0.000  0.00  0.00    +0.226 C 
ATOM      7  C   UNL     1       5.716  -4.950   0.000  0.00  0.00    +0.095 C 
ATOM      8  O   UNL     1       6.430  -3.712   0.000  0.00  0.00    -0.275 OA
ATOM      9  C   UNL     1       5.001  -2.888   0.000  0.00  0.00    +0.093 C 
ATOM     10  C   UNL     1       4.287  -2.475   0.000  0.00  0.00    +0.023 C 
ENDBRANCH   1   2
BRANCH   1  11
ATOM     11  N   UNL     1       2.143  -2.888   0.000  0.00  0.00    -0.217 NA
BRANCH  11  13
ATOM     12  C   UNL     1       1.429  -1.650   0.000  0.00  0.00    +0.021 C 
ATOM     13  C   UNL     1       1.429  -2.475   0.000  0.00  0.00    +0.097 C 
BRANCH  13  14
ATOM     14  C   UNL     1       0.715  -2.888   0.000  0.00  0.00    +0.145 C 
BRANCH  14  15
ATOM     15  N   UNL     1       0.000  -2.475   0.000  0.00  0.00    -0.248 N 
ATOM     16  N   UNL     1      -0.086  -1.655   0.000  0.00  0.00    -0.168 NA
ATOM     17  C   UNL     1      -0.893  -1.483   0.000  0.00  0.00    +0.122 A 
ATOM     18  C   UNL     1      -1.306  -2.197   0.000  0.00  0.00    +0.043 A 
ATOM     19  C   UNL     1      -0.754  -2.811   0.000  0.00  0.00    +0.097 A 
ENDBRANCH  14  15
ENDBRANCH  13  14
ENDBRANCH  11  13
ENDBRANCH   1  11
TORSDOF 5
