REMARK  Name = 
REMARK  3 active torsions:
REMARK  status: ('A' for Active; 'I' for Inactive)
REMARK    1  A    between atoms: O_2  and  C_3
REMARK    2  A    between atoms: C_8  and  N_9
REMARK    3  A    between atoms: N_12  and  C_13
REMARK                            x       y       z     vdW  Elec       q    Type
REMARK                         _______ _______ _______ _____ _____    ______ ____
ROOT
ATOM      1  C   UNL     1       0.715  -0.412   0.000  0.00  0.00    +0.241 A 
ATOM      2  C   UNL     1       1.429   0.000   0.000  0.00  0.00    +0.128 A 
ATOM      3  C   UNL     1       1.429   0.825   0.000  0.00  0.00    +0.023 A 
ATOM      4  C   UNL     1       0.715   1.238   0.000  0.00  0.00    +0.022 A 
ATOM      5  C   UNL     1       0.000   0.825   0.000  0.00  0.00    +0.102 A 
ATOM      6  N   UNL     1       0.000   0.000   0.000  0.00  0.00    -0.209 NA
ENDROOT
BRANCH   2   7
ATOM      7  N   UNL     1       2.143  -0.412   0.000  0.00  0.00    -0.156 NA
ATOM      8  C   UNL     1       2.143  -1.238   0.000  0.00  0.00    +0.344 C 
ATOM      9  N   UNL     1       2.858  -1.650   0.000  0.00  0.00    -0.189 NA
ATOM     10  O   UNL     1       1.429  -1.650   0.000  0.00  0.00    -0.249 OA
BRANCH   9  11
ATOM     11  C   UNL     1       2.858  -2.475   0.000  0.00  0.00    +0.097 C 
ATOM     12  C   UNL     1       2.445  -3.189   0.000  0.00  0.00    +0.023 C 
ATOM     13  C   UNL     1       3.270  -3.189   0.000  0.00  0.00    +0.023 C 
ENDBRANCH   9  11
ENDBRANCH   2   7
BRANCH   1  15
ATOM     14  C   UNL     1       0.000  -1.650   0.000  0.00  0.00    +0.254 C 
ATOM     15  O   UNL     1       0.715  -1.238   0.000  0.00  0.00    -0.455 OA
ENDBRANCH   1  15
TORSDOF 3
