REMARK  Name = 
REMARK  4 active torsions:
REMARK  status: ('A' for Active; 'I' for Inactive)
REMARK    1  A    between atoms: C_2  and  C_4
REMARK    2  A    between atoms: C_2  and  C_16
REMARK    3  A    between atoms: C_4  and  N_5
REMARK    4  A    between atoms: C_7  and  C_12
REMARK                            x       y       z     vdW  Elec       q    Type
REMARK                         _______ _______ _______ _____ _____    ______ ____
ROOT
ATOM      1  N   UNL     1       0.715   1.238   0.000  0.00  0.00    -0.291 N 
ATOM      2  C   UNL     1       0.000   0.825   0.000  0.00  0.00    +0.261 A 
ATOM      3  O   UNL     1      -0.715   1.238   0.000  0.00  0.00    -0.267 OA
ATOM      4  C   UNL     1       0.000   0.000   0.000  0.00  0.00    +0.061 A 
ATOM      5  C   UNL     1       0.715  -0.412   0.000  0.00  0.00    +0.010 A 
ATOM      6  C   UNL     1       1.429   0.000   0.000  0.00  0.00    +0.089 A 
ATOM      7  C   UNL     1       1.429   0.825   0.000  0.00  0.00    +0.082 A 
ENDROOT
BRANCH   6   8
ATOM      8  C   UNL     1       2.143  -0.412   0.000  0.00  0.00    +0.420 C 
ATOM      9  F   UNL     1       1.731  -1.127   0.000  0.00  0.00    -0.166 F 
ATOM     10  F   UNL     1       2.556   0.302   0.000  0.00  0.00    -0.166 F 
ATOM     11  F   UNL     1       2.858  -0.825   0.000  0.00  0.00    -0.166 F 
ENDBRANCH   6   8
BRANCH   1  12
ATOM     12  C   UNL     1       0.715   2.062   0.000  0.00  0.00    +0.150 C 
BRANCH  12  14
ATOM     13  C   UNL     1       1.841   1.760   0.000  0.00  0.00    +0.047 C 
ATOM     14  C   UNL     1       1.429   2.475   0.000  0.00  0.00    +0.239 C 
ATOM     15  O   UNL     1       1.016   3.189   0.000  0.00  0.00    -0.212 OA
BRANCH  14  16
ATOM     16  C   UNL     1       2.143   2.888   0.000  0.00  0.00    +0.394 C 
ATOM     17  O   UNL     1       2.858   2.475   0.000  0.00  0.00    -0.243 OA
ATOM     18  O   UNL     1       2.143   3.712   0.000  0.00  0.00    -0.243 OA
ENDBRANCH  14  16
ENDBRANCH  12  14
ENDBRANCH   1  12
TORSDOF 4
