REMARK  Name = 
REMARK  6 active torsions:
REMARK  status: ('A' for Active; 'I' for Inactive)
REMARK    1  A    between atoms: C_2  and  C_3
REMARK    2  A    between atoms: C_9  and  C_11
REMARK    3  A    between atoms: C_11  and  N_12
REMARK    4  A    between atoms: N_12  and  C_13
REMARK    5  A    between atoms: C_13  and  C_15
REMARK    6  A    between atoms: C_15  and  N_16
REMARK                            x       y       z     vdW  Elec       q    Type
REMARK                         _______ _______ _______ _____ _____    ______ ____
ROOT
ATOM      1  C   UNL     1       0.000   0.825   0.000  0.00  0.00    +0.174 C 
ENDROOT
BRANCH   1   7
ATOM      2  C   UNL     1      -2.858   0.825   0.000  0.00  0.00    +0.135 C 
ATOM      3  O   UNL     1      -2.858   0.000   0.000  0.00  0.00    -0.353 OA
ATOM      4  C   UNL     1      -2.143  -0.412   0.000  0.00  0.00    +0.164 C 
ATOM      5  C   UNL     1      -1.429   0.000   0.000  0.00  0.00    +0.126 C 
ATOM      6  N   UNL     1      -1.429   0.825   0.000  0.00  0.00    -0.273 N 
ATOM      7  C   UNL     1      -0.715   1.238   0.000  0.00  0.00    +0.244 C 
ATOM      8  O   UNL     1      -0.715   2.062   0.000  0.00  0.00    -0.273 OA
ATOM      9  C   UNL     1      -2.143   1.238   0.000  0.00  0.00    +0.123 C 
BRANCH   2  11
ATOM     10  C   UNL     1      -4.287   0.825   0.000  0.00  0.00    +0.003 C 
ATOM     11  C   UNL     1      -3.572   1.238   0.000  0.00  0.00    +0.031 C 
ENDBRANCH   2  11
ENDBRANCH   1   7
BRANCH   1  12
ATOM     12  N   UNL     1       0.715   1.238   0.000  0.00  0.00    -0.208 NA
BRANCH  12  13
ATOM     13  C   UNL     1       1.429   0.825   0.000  0.00  0.00    +0.098 C 
ATOM     14  C   UNL     1       1.429   0.000   0.000  0.00  0.00    +0.021 C 
BRANCH  13  15
ATOM     15  C   UNL     1       2.143   1.238   0.000  0.00  0.00    +0.145 C 
BRANCH  15  16
ATOM     16  N   UNL     1       2.858   0.825   0.000  0.00  0.00    -0.248 N 
ATOM     17  N   UNL     1       2.944   0.004   0.000  0.00  0.00    -0.168 NA
ATOM     18  C   UNL     1       3.751  -0.167   0.000  0.00  0.00    +0.117 A 
ATOM     19  C   UNL     1       4.164   0.547   0.000  0.00  0.00    +0.018 A 
ATOM     20  C   UNL     1       4.984   0.634   0.000  0.00  0.00    +0.034 C 
ATOM     21  C   UNL     1       3.612   1.161   0.000  0.00  0.00    +0.092 A 
ENDBRANCH  15  16
ENDBRANCH  13  15
ENDBRANCH  12  13
ENDBRANCH   1  12
TORSDOF 6
