REMARK  Name = 
REMARK  5 active torsions:
REMARK  status: ('A' for Active; 'I' for Inactive)
REMARK    1  A    between atoms: C_2  and  C_3
REMARK    2  A    between atoms: C_3  and  N_4
REMARK    3  A    between atoms: N_4  and  S_5
REMARK    4  A    between atoms: S_5  and  C_8
REMARK    5  A    between atoms: C_8  and  C_9
REMARK                            x       y       z     vdW  Elec       q    Type
REMARK                         _______ _______ _______ _____ _____    ______ ____
ROOT
ATOM      1  S   UNL     1      -0.147   2.352   0.000  0.00  0.00    +0.063 S 
ATOM      2  O   UNL     1       0.266   3.066   0.000  0.00  0.00    -0.156 OA
ATOM      3  O   UNL     1      -0.559   1.637   0.000  0.00  0.00    -0.156 OA
ENDROOT
BRANCH   1   4
ATOM      4  N   UNL     1      -0.861   2.764   0.000  0.00  0.00    -0.080 NA
BRANCH   4   5
ATOM      5  C   UNL     1      -0.861   3.589   0.000  0.00  0.00    +0.136 C 
BRANCH   5   7
ATOM      6  N   UNL     1      -1.576   4.827   0.000  0.00  0.00    -0.130 NA
ATOM      7  C   UNL     1      -1.576   4.002   0.000  0.00  0.00    +0.130 C 
ENDBRANCH   5   7
ENDBRANCH   4   5
ENDBRANCH   1   4
BRANCH   1   8
ATOM      8  C   UNL     1       0.568   1.939   0.000  0.00  0.00    +0.219 C 
BRANCH   8   9
ATOM      9  C   UNL     1       0.568   1.114   0.000  0.00  0.00    +0.126 A 
ATOM     10  N   UNL     1      -0.100   0.629   0.000  0.00  0.00    -0.079 NA
ATOM     11  O   UNL     1       0.155  -0.155   0.000  0.00  0.00    -0.350 OA
ATOM     12  C   UNL     1       0.980  -0.155   0.000  0.00  0.00    +0.214 A 
ATOM     13  C   UNL     1       1.235   0.629   0.000  0.00  0.00    +0.063 A 
ENDBRANCH   8   9
ENDBRANCH   1   8
TORSDOF 5
