REMARK  Name = 
REMARK  5 active torsions:
REMARK  status: ('A' for Active; 'I' for Inactive)
REMARK    1  A    between atoms: N_2  and  C_11
REMARK    2  A    between atoms: N_4  and  C_6
REMARK    3  A    between atoms: C_11  and  C_14
REMARK    4  A    between atoms: C_14  and  C_18
REMARK    5  A    between atoms: C_17  and  C_26
REMARK                            x       y       z     vdW  Elec       q    Type
REMARK                         _______ _______ _______ _____ _____    ______ ____
ROOT
ATOM      1  C   UNL     1      -1.004  -1.608   0.000  0.00  0.00    +0.149 A 
ATOM      2  C   UNL     1      -0.287  -1.196   0.000  0.00  0.00    +0.154 A 
ATOM      3  N   UNL     1       0.425  -1.608   0.000  0.00  0.00    -0.207 NA
ATOM      4  C   UNL     1       0.425  -2.433   0.000  0.00  0.00    +0.201 A 
ATOM      5  N   UNL     1      -0.287  -2.846   0.000  0.00  0.00    -0.205 NA
ATOM      6  N   UNL     1      -1.788  -1.350   0.000  0.00  0.00    -0.219 NA
ATOM      7  C   UNL     1      -2.275  -2.021   0.000  0.00  0.00    +0.180 A 
ATOM      8  N   UNL     1      -1.788  -2.688   0.000  0.00  0.00    -0.292 N 
ATOM      9  C   UNL     1      -1.004  -2.433   0.000  0.00  0.00    +0.167 A 
ENDROOT
BRANCH   2  10
ATOM     10  N   UNL     1      -0.287  -0.371   0.000  0.00  0.00    -0.287 N 
ATOM     11  C   UNL     1       0.425   0.042   0.000  0.00  0.00    +0.122 C 
ATOM     12  C   UNL     1       0.425   0.867   0.000  0.00  0.00    +0.135 C 
ATOM     13  O   UNL     1      -0.287   1.279   0.000  0.00  0.00    -0.355 OA
ATOM     14  C   UNL     1      -1.004   0.867   0.000  0.00  0.00    +0.140 C 
ATOM     15  C   UNL     1      -1.092   1.688   0.000  0.00  0.00    +0.171 C 
ATOM     16  O   UNL     1      -1.896   1.863   0.000  0.00  0.00    -0.351 OA
ATOM     17  C   UNL     1      -2.308   1.146   0.000  0.00  0.00    +0.145 C 
ATOM     18  C   UNL     1      -1.758   0.533   0.000  0.00  0.00    +0.063 C 
ATOM     19  C   UNL     1      -1.004   0.042   0.000  0.00  0.00    +0.122 C 
BRANCH  12  20
ATOM     20  C   UNL     1       1.142   1.279   0.000  0.00  0.00    +0.031 C 
ATOM     21  C   UNL     1       1.142   2.104   0.000  0.00  0.00    +0.003 C 
ENDBRANCH  12  20
ENDBRANCH   2  10
BRANCH   8  22
ATOM     22  C   UNL     1      -2.042  -3.471   0.000  0.00  0.00    +0.144 C 
BRANCH  22  23
ATOM     23  C   UNL     1      -1.492  -4.083   0.000  0.00  0.00    +0.201 C 
ATOM     24  O   UNL     1      -0.683  -3.913   0.000  0.00  0.00    -0.218 OA
BRANCH  23  25
ATOM     25  C   UNL     1      -1.746  -4.867   0.000  0.00  0.00    +0.147 C 
ATOM     26  C   UNL     1      -1.262  -5.537   0.000  0.00  0.00    +0.035 C 
ATOM     27  C   UNL     1      -1.746  -6.204   0.000  0.00  0.00    +0.035 C 
ATOM     28  C   UNL     1      -2.529  -5.950   0.000  0.00  0.00    +0.142 C 
ATOM     29  O   UNL     1      -2.529  -5.125   0.000  0.00  0.00    -0.354 OA
ENDBRANCH  23  25
ENDBRANCH  22  23
ENDBRANCH   8  22
TORSDOF 5
