REMARK  Name = 
REMARK  4 active torsions:
REMARK  status: ('A' for Active; 'I' for Inactive)
REMARK    1  A    between atoms: C_2  and  C_4
REMARK    2  A    between atoms: C_7  and  N_8
REMARK    3  A    between atoms: N_11  and  C_12
REMARK    4  A    between atoms: C_16  and  C_18
REMARK                            x       y       z     vdW  Elec       q    Type
REMARK                         _______ _______ _______ _____ _____    ______ ____
ROOT
ATOM      1  N   UNL     1      -1.429  -4.950   0.000  0.00  0.00    -0.159 NA
ATOM      2  C   UNL     1      -0.715  -5.362   0.000  0.00  0.00    +0.343 C 
ATOM      3  N   UNL     1      -0.715  -6.188   0.000  0.00  0.00    -0.189 NA
ATOM      4  O   UNL     1       0.000  -4.950   0.000  0.00  0.00    -0.249 OA
ENDROOT
BRANCH   1   8
ATOM      5  C   UNL     1      -1.429  -2.475   0.000  0.00  0.00    +0.138 A 
ATOM      6  N   UNL     1      -2.143  -2.888   0.000  0.00  0.00    -0.238 NA
ATOM      7  C   UNL     1      -2.143  -3.712   0.000  0.00  0.00    +0.116 A 
ATOM      8  C   UNL     1      -1.429  -4.125   0.000  0.00  0.00    +0.094 A 
ATOM      9  C   UNL     1      -0.715  -3.712   0.000  0.00  0.00    +0.020 A 
ATOM     10  C   UNL     1      -0.715  -2.888   0.000  0.00  0.00    +0.025 A 
BRANCH   5  12
ATOM     11  N   UNL     1      -2.143  -1.238   0.000  0.00  0.00    -0.082 NA
ATOM     12  C   UNL     1      -1.429  -1.650   0.000  0.00  0.00    +0.302 C 
ATOM     13  O   UNL     1      -0.715  -1.238   0.000  0.00  0.00    -0.265 OA
ENDBRANCH   5  12
ENDBRANCH   1   8
BRANCH   3  14
ATOM     14  C   UNL     1       0.000  -6.600   0.000  0.00  0.00    +0.097 C 
ATOM     15  C   UNL     1       0.000  -7.425   0.000  0.00  0.00    +0.030 C 
ATOM     16  C   UNL     1       0.715  -7.838   0.000  0.00  0.00    +0.097 C 
ATOM     17  C   UNL     1       1.429  -7.425   0.000  0.00  0.00    +0.009 C 
ATOM     18  C   UNL     1       1.429  -6.600   0.000  0.00  0.00    +0.002 C 
ATOM     19  C   UNL     1       0.715  -6.188   0.000  0.00  0.00    +0.022 C 
BRANCH  16  20
ATOM     20  C   UNL     1       0.715  -8.662   0.000  0.00  0.00    +0.398 C 
ATOM     21  F   UNL     1       1.540  -8.662   0.000  0.00  0.00    -0.170 F 
ATOM     22  F   UNL     1      -0.111  -8.662   0.000  0.00  0.00    -0.170 F 
ATOM     23  F   UNL     1       0.715  -9.488   0.000  0.00  0.00    -0.170 F 
ENDBRANCH  16  20
ENDBRANCH   3  14
TORSDOF 4
