REMARK  Name = 
REMARK  4 active torsions:
REMARK  status: ('A' for Active; 'I' for Inactive)
REMARK    1  A    between atoms: C_6  and  N_7
REMARK    2  A    between atoms: N_10  and  C_11
REMARK    3  A    between atoms: C_11  and  C_12
REMARK    4  A    between atoms: C_12  and  C_13
REMARK                            x       y       z     vdW  Elec       q    Type
REMARK                         _______ _______ _______ _____ _____    ______ ____
ROOT
ATOM      1  N   UNL     1       0.589  -4.462   0.000  0.00  0.00    -0.142 NA
ATOM      2  C   UNL     1       1.304  -4.050   0.000  0.00  0.00    +0.345 C 
ATOM      3  N   UNL     1       2.018  -4.462   0.000  0.00  0.00    -0.186 NA
ATOM      4  O   UNL     1       1.304  -3.225   0.000  0.00  0.00    -0.249 OA
ENDROOT
BRANCH   1   8
ATOM      5  C   UNL     1      -2.268  -4.462   0.000  0.00  0.00    +0.052 C 
ATOM      6  C   UNL     1      -1.554  -4.050   0.000  0.00  0.00    +0.061 A 
ATOM      7  N   UNL     1      -0.840  -4.462   0.000  0.00  0.00    -0.233 NA
ATOM      8  C   UNL     1      -0.125  -4.050   0.000  0.00  0.00    +0.156 A 
ATOM      9  C   UNL     1      -0.125  -3.225   0.000  0.00  0.00    +0.036 A 
ATOM     10  C   UNL     1      -0.840  -2.812   0.000  0.00  0.00    +0.004 A 
ATOM     11  C   UNL     1      -1.554  -3.225   0.000  0.00  0.00    +0.015 A 
ENDBRANCH   1   8
BRANCH   3  12
ATOM     12  C   UNL     1       2.733  -4.050   0.000  0.00  0.00    +0.126 C 
BRANCH  12  13
ATOM     13  C   UNL     1       3.447  -4.462   0.000  0.00  0.00    +0.109 C 
BRANCH  13  14
ATOM     14  C   UNL     1       4.162  -4.050   0.000  0.00  0.00    +0.227 C 
ATOM     15  N   UNL     1       4.876  -4.462   0.000  0.00  0.00    -0.279 N 
ATOM     16  C   UNL     1       4.814  -5.285   0.000  0.00  0.00    +0.093 C 
ATOM     17  C   UNL     1       5.419  -5.846   0.000  0.00  0.00    +0.022 C 
ATOM     18  C   UNL     1       6.235  -5.723   0.000  0.00  0.00    +0.002 C 
ATOM     19  C   UNL     1       6.648  -5.008   0.000  0.00  0.00    +0.002 C 
ATOM     20  C   UNL     1       6.346  -4.240   0.000  0.00  0.00    +0.022 C 
ATOM     21  C   UNL     1       5.558  -3.997   0.000  0.00  0.00    +0.093 C 
ATOM     22  O   UNL     1       4.162  -3.225   0.000  0.00  0.00    -0.275 OA
ENDBRANCH  13  14
ENDBRANCH  12  13
ENDBRANCH   3  12
TORSDOF 4
