REMARK  Name = 
REMARK  3 active torsions:
REMARK  status: ('A' for Active; 'I' for Inactive)
REMARK    1  A    between atoms: C_2  and  S_3
REMARK    2  A    between atoms: S_3  and  C_4
REMARK    3  A    between atoms: C_8  and  N_10
REMARK                            x       y       z     vdW  Elec       q    Type
REMARK                         _______ _______ _______ _____ _____    ______ ____
ROOT
ATOM      1  N   UNL     1       3.572   6.766   0.000  0.00  0.00    -0.189 NA
ATOM      2  C   UNL     1       3.572   5.941   0.000  0.00  0.00    +0.345 C 
ATOM      3  N   UNL     1       2.858   5.529   0.000  0.00  0.00    -0.140 NA
ATOM      4  C   UNL     1       2.858   4.704   0.000  0.00  0.00    +0.177 A 
ATOM      5  N   UNL     1       2.190   4.219   0.000  0.00  0.00    -0.152 NA
ATOM      6  N   UNL     1       2.445   3.434   0.000  0.00  0.00    -0.246 N 
ATOM      7  C   UNL     1       1.960   2.767   0.000  0.00  0.00    +0.154 C 
ATOM      8  C   UNL     1       3.270   3.434   0.000  0.00  0.00    +0.098 A 
ATOM      9  C   UNL     1       3.525   4.219   0.000  0.00  0.00    +0.058 A 
ATOM     10  O   UNL     1       4.287   5.529   0.000  0.00  0.00    -0.249 OA
ENDROOT
BRANCH   1  13
ATOM     11  C   UNL     1       5.001   8.416   0.000  0.00  0.00    +0.049 C 
ATOM     12  C   UNL     1       4.287   8.004   0.000  0.00  0.00    +0.032 C 
ATOM     13  C   UNL     1       4.287   7.179   0.000  0.00  0.00    +0.098 C 
ATOM     14  C   UNL     1       5.001   6.766   0.000  0.00  0.00    +0.022 C 
ATOM     15  C   UNL     1       5.716   7.179   0.000  0.00  0.00    +0.003 C 
ATOM     16  C   UNL     1       5.716   8.004   0.000  0.00  0.00    +0.011 C 
BRANCH  11  17
ATOM     17  S   UNL     1       5.001   9.241   0.000  0.00  0.00    -0.141 S 
BRANCH  17  19
ATOM     18  C   UNL     1       5.716  10.479   0.000  0.00  0.00    +0.013 C 
ATOM     19  C   UNL     1       5.716   9.654   0.000  0.00  0.00    +0.058 C 
ENDBRANCH  17  19
ENDBRANCH  11  17
ENDBRANCH   1  13
TORSDOF 3
