REMARK  Name = 
REMARK  6 active torsions:
REMARK  status: ('A' for Active; 'I' for Inactive)
REMARK    1  A    between atoms: N_1  and  C_12
REMARK    2  A    between atoms: N_2  and  C_14
REMARK    3  A    between atoms: C_4  and  C_13
REMARK    4  A    between atoms: N_6  and  C_15
REMARK    5  A    between atoms: C_12  and  C_13
REMARK    6  A    between atoms: C_15  and  C_17
REMARK                            x       y       z     vdW  Elec       q    Type
REMARK                         _______ _______ _______ _____ _____    ______ ____
ROOT
ATOM      1  C   UNL     1       3.146  -4.326   0.000  0.00  0.00    +0.183 C 
ENDROOT
BRANCH   1   2
ATOM      2  N   UNL     1       3.630  -4.992   0.000  0.00  0.00    -0.239 N 
ATOM      3  C   UNL     1       4.451  -4.905   0.000  0.00  0.00    +0.294 A 
ATOM      4  O   UNL     1       4.788  -4.151   0.000  0.00  0.00    -0.264 OA
ATOM      5  C   UNL     1       4.934  -5.572   0.000  0.00  0.00    +0.213 A 
ATOM      6  C   UNL     1       4.601  -6.326   0.000  0.00  0.00    +0.116 A 
ATOM      7  N   UNL     1       3.780  -6.413   0.000  0.00  0.00    -0.255 N 
ATOM      8  F   UNL     1       5.755  -5.488   0.000  0.00  0.00    -0.198 F 
ATOM      9  C   UNL     1       3.296  -5.747   0.000  0.00  0.00    +0.336 A 
ATOM     10  O   UNL     1       2.475  -5.830   0.000  0.00  0.00    -0.246 OA
BRANCH   7  11
ATOM     11  C   UNL     1       3.442  -7.168   0.000  0.00  0.00    +0.208 C 
ATOM     12  C   UNL     1       3.855  -7.880   0.000  0.00  0.00    +0.057 C 
ATOM     13  C   UNL     1       3.305  -8.493   0.000  0.00  0.00    +0.037 C 
ATOM     14  C   UNL     1       2.550  -8.159   0.000  0.00  0.00    +0.144 C 
ATOM     15  O   UNL     1       2.638  -7.338   0.000  0.00  0.00    -0.335 OA
ENDBRANCH   7  11
ENDBRANCH   1   2
BRANCH   1  16
ATOM     16  C   UNL     1       2.325  -4.409   0.000  0.00  0.00    +0.197 C 
ATOM     17  O   UNL     1       1.988  -5.163   0.000  0.00  0.00    -0.289 OA
BRANCH  16  18
ATOM     18  C   UNL     1       1.838  -3.742   0.000  0.00  0.00    +0.049 A 
ATOM     19  C   UNL     1       2.096  -2.959   0.000  0.00  0.00    +0.017 A 
ATOM     20  C   UNL     1       1.425  -2.475   0.000  0.00  0.00    +0.038 A 
ATOM     21  N   UNL     1       0.758  -2.959   0.000  0.00  0.00    -0.327 N 
ATOM     22  C   UNL     1       1.425  -1.650   0.000  0.00  0.00    +0.050 C 
ATOM     23  C   UNL     1       1.013  -3.742   0.000  0.00  0.00    +0.040 A 
ATOM     24  C   UNL     1       0.529  -4.409   0.000  0.00  0.00    +0.050 C 
BRANCH  21  25
ATOM     25  C   UNL     1      -0.025  -2.705   0.000  0.00  0.00    +0.170 C 
BRANCH  25  26
ATOM     26  C   UNL     1      -0.196  -1.896   0.000  0.00  0.00    +0.146 A 
ATOM     27  C   UNL     1      -0.950  -1.563   0.000  0.00  0.00    +0.038 A 
ATOM     28  C   UNL     1      -0.863  -0.742   0.000  0.00  0.00    +0.043 A 
ATOM     29  C   UNL     1      -0.058  -0.567   0.000  0.00  0.00    +0.179 A 
ATOM     30  O   UNL     1       0.354  -1.284   0.000  0.00  0.00    -0.453 OA
ENDBRANCH  25  26
ENDBRANCH  21  25
ENDBRANCH  16  18
ENDBRANCH   1  16
TORSDOF 6
