REMARK  Name = 
REMARK  1 active torsions:
REMARK  status: ('A' for Active; 'I' for Inactive)
REMARK    1  A    between atoms: C_5  and  N_11
REMARK                            x       y       z     vdW  Elec       q    Type
REMARK                         _______ _______ _______ _____ _____    ______ ____
ROOT
ATOM      1  N   UNL     1       4.287  -4.125   0.000  0.00  0.00    -0.189 NA
ATOM      2  C   UNL     1       4.287  -4.950   0.000  0.00  0.00    +0.345 C 
ATOM      3  N   UNL     1       5.001  -5.362   0.000  0.00  0.00    -0.142 NA
ATOM      4  C   UNL     1       5.001  -6.188   0.000  0.00  0.00    +0.156 A 
ATOM      5  N   UNL     1       4.287  -6.600   0.000  0.00  0.00    -0.225 NA
ATOM      6  C   UNL     1       4.287  -7.425   0.000  0.00  0.00    +0.130 A 
ATOM      7  C   UNL     1       5.001  -7.838   0.000  0.00  0.00    +0.159 A 
ATOM      8  F   UNL     1       5.001  -8.662   0.000  0.00  0.00    -0.203 F 
ATOM      9  C   UNL     1       5.716  -7.425   0.000  0.00  0.00    +0.034 A 
ATOM     10  C   UNL     1       5.716  -6.600   0.000  0.00  0.00    +0.039 A 
ATOM     11  O   UNL     1       3.572  -5.362   0.000  0.00  0.00    -0.249 OA
ENDROOT
BRANCH   1  19
ATOM     12  C   UNL     1       3.388  -1.843   0.000  0.00  0.00    +0.017 C 
ATOM     13  C   UNL     1       2.858  -2.475   0.000  0.00  0.00    +0.061 C 
ATOM     14  N   UNL     1       2.143  -2.888   0.000  0.00  0.00    -0.223 NA
ATOM     15  C   UNL     1       2.143  -3.712   0.000  0.00  0.00    +0.061 C 
ATOM     16  C   UNL     1       1.331  -3.569   0.000  0.00  0.00    +0.017 C 
ATOM     17  C   UNL     1       1.861  -4.488   0.000  0.00  0.00    +0.017 C 
ATOM     18  C   UNL     1       2.858  -4.125   0.000  0.00  0.00    +0.038 C 
ATOM     19  C   UNL     1       3.572  -3.712   0.000  0.00  0.00    +0.100 C 
ATOM     20  C   UNL     1       3.572  -2.888   0.000  0.00  0.00    +0.038 C 
ATOM     21  C   UNL     1       2.328  -1.843   0.000  0.00  0.00    +0.017 C 
ENDBRANCH   1  19
TORSDOF 1
