REMARK  Name = 
REMARK  4 active torsions:
REMARK  status: ('A' for Active; 'I' for Inactive)
REMARK    1  A    between atoms: C_5  and  N_9
REMARK    2  A    between atoms: N_9  and  C_10
REMARK    3  A    between atoms: C_10  and  C_11
REMARK    4  A    between atoms: C_11  and  C_14
REMARK                            x       y       z     vdW  Elec       q    Type
REMARK                         _______ _______ _______ _____ _____    ______ ____
ROOT
ATOM      1  C   UNL     1       1.429   7.179   0.000  0.00  0.00    +0.123 C 
ENDROOT
BRANCH   1   2
ATOM      2  C   UNL     1       1.429   6.354   0.000  0.00  0.00    +0.164 C 
ATOM      3  O   UNL     1       2.254   6.354   0.000  0.00  0.00    -0.220 OA
ATOM      4  C   UNL     1       0.604   6.354   0.000  0.00  0.00    +0.039 C 
BRANCH   2   5
ATOM      5  C   UNL     1       1.429   5.529   0.000  0.00  0.00    +0.046 A 
ATOM      6  C   UNL     1       0.761   5.044   0.000  0.00  0.00    +0.095 A 
ATOM      7  N   UNL     1       1.016   4.259   0.000  0.00  0.00    -0.248 N 
ATOM      8  C   UNL     1       0.531   3.592   0.000  0.00  0.00    +0.154 C 
ATOM      9  N   UNL     1       1.841   4.259   0.000  0.00  0.00    -0.168 NA
ATOM     10  C   UNL     1       2.096   5.044   0.000  0.00  0.00    +0.120 A 
ENDBRANCH   2   5
ENDBRANCH   1   2
BRANCH   1  11
ATOM     11  N   UNL     1       2.143   7.591   0.000  0.00  0.00    -0.217 NA
BRANCH  11  17
ATOM     12  C   UNL     1       2.143  10.891   0.000  0.00  0.00    +0.000 C 
ATOM     13  C   UNL     1       2.143  10.066   0.000  0.00  0.00    +0.000 C 
ATOM     14  C   UNL     1       1.429   9.654   0.000  0.00  0.00    +0.001 C 
ATOM     15  C   UNL     1       0.715  10.066   0.000  0.00  0.00    +0.000 C 
ATOM     16  C   UNL     1       1.429   8.829   0.000  0.00  0.00    +0.017 C 
ATOM     17  C   UNL     1       2.143   8.416   0.000  0.00  0.00    +0.073 C 
ATOM     18  C   UNL     1       2.858   8.829   0.000  0.00  0.00    +0.017 C 
ATOM     19  C   UNL     1       2.858   9.654   0.000  0.00  0.00    +0.001 C 
ENDBRANCH  11  17
ENDBRANCH   1  11
TORSDOF 4
