REMARK  Name = 
REMARK  3 active torsions:
REMARK  status: ('A' for Active; 'I' for Inactive)
REMARK    1  A    between atoms: N_1  and  C1*_2
REMARK    2  A    between atoms: C_3  and  C_11
REMARK    3  A    between atoms: C4*_10  and  C5*_16
REMARK                            x       y       z     vdW  Elec       q    Type
REMARK                         _______ _______ _______ _____ _____    ______ ____
ROOT
ATOM      1  C1* UNL     1       0.358  -2.942   0.000  0.00  0.00    +0.256 C 
ATOM      2  O4* UNL     1       0.613  -3.725   0.000  0.00  0.00    -0.330 OA
ATOM      3  C4* UNL     1      -0.054  -4.208   0.000  0.00  0.00    +0.183 C 
ATOM      4  C3* UNL     1      -0.725  -3.725   0.000  0.00  0.00    +0.216 C 
ATOM      5  O3* UNL     1      -1.508  -3.979   0.000  0.00  0.00    -0.218 OA
ATOM      6  C2* UNL     1      -0.467  -2.942   0.000  0.00  0.00    +0.235 C 
ATOM      7  O2* UNL     1      -0.954  -2.271   0.000  0.00  0.00    -0.215 OA
ENDROOT
BRANCH   1   8
ATOM      8  N   UNL     1       0.842  -2.271   0.000  0.00  0.00    -0.202 N 
ATOM      9  C   UNL     1       1.667  -2.271   0.000  0.00  0.00    +0.199 A 
ATOM     10  N   UNL     1       1.921  -1.488   0.000  0.00  0.00    -0.199 NA
ATOM     11  C   UNL     1       1.254  -1.004   0.000  0.00  0.00    +0.240 A 
ATOM     12  N   UNL     1       0.588  -1.488   0.000  0.00  0.00    -0.141 NA
BRANCH  11  13
ATOM     13  C   UNL     1       1.254  -0.179   0.000  0.00  0.00    +0.322 C 
ATOM     14  N   UNL     1       1.971   0.233   0.000  0.00  0.00    -0.081 NA
ATOM     15  O   UNL     1       0.542   0.233   0.000  0.00  0.00    -0.263 OA
ENDBRANCH  11  13
ENDBRANCH   1   8
BRANCH   3  16
ATOM     16  C5* UNL     1      -0.054  -5.033   0.000  0.00  0.00    +0.214 C 
ATOM     17  O5* UNL     1       0.658  -5.446   0.000  0.00  0.00    -0.218 OA
ENDBRANCH   3  16
TORSDOF 3
