REMARK  Name = 
REMARK  2 active torsions:
REMARK  status: ('A' for Active; 'I' for Inactive)
REMARK    1  A    between atoms: S_2  and  C_3
REMARK    2  A    between atoms: N_10  and  C_11
REMARK                            x       y       z     vdW  Elec       q    Type
REMARK                         _______ _______ _______ _____ _____    ______ ____
ROOT
ATOM      1  C   UNL     1       2.194   8.173   0.000  0.00  0.00    +0.199 A 
ATOM      2  N   UNL     1       1.387   8.001   0.000  0.00  0.00    -0.196 NA
ATOM      3  C   UNL     1       1.301   7.181   0.000  0.00  0.00    +0.207 A 
ATOM      4  N   UNL     1       0.586   6.768   0.000  0.00  0.00    -0.135 NA
ATOM      5  C   UNL     1       0.586   5.943   0.000  0.00  0.00    +0.345 C 
ATOM      6  N   UNL     1      -0.128   5.531   0.000  0.00  0.00    -0.189 NA
ATOM      7  O   UNL     1       1.301   5.531   0.000  0.00  0.00    -0.249 OA
ATOM      8  S   UNL     1       2.054   6.845   0.000  0.00  0.00    +0.052 S 
ATOM      9  N   UNL     1       2.606   7.458   0.000  0.00  0.00    -0.181 NA
ENDROOT
BRANCH   6  10
ATOM     10  C   UNL     1      -0.128   4.706   0.000  0.00  0.00    +0.097 C 
ATOM     11  C   UNL     1      -0.541   3.991   0.000  0.00  0.00    +0.022 C 
ATOM     12  C   UNL     1      -1.255   3.579   0.000  0.00  0.00    +0.002 C 
ATOM     13  C   UNL     1       0.284   3.991   0.000  0.00  0.00    +0.023 C 
ENDBRANCH   6  10
BRANCH   1  15
ATOM     14  C   UNL     1       3.350   9.013   0.000  0.00  0.00    +0.077 C 
ATOM     15  S   UNL     1       2.529   8.926   0.000  0.00  0.00    -0.074 S 
ENDBRANCH   1  15
TORSDOF 2
