REMARK  Name = 
REMARK  5 active torsions:
REMARK  status: ('A' for Active; 'I' for Inactive)
REMARK    1  A    between atoms: O_2  and  C_3
REMARK    2  A    between atoms: C_3  and  C_4
REMARK    3  A    between atoms: C_4  and  N_5
REMARK    4  A    between atoms: C_6  and  C_14
REMARK    5  A    between atoms: C_17  and  O_18
REMARK                            x       y       z     vdW  Elec       q    Type
REMARK                         _______ _______ _______ _____ _____    ______ ____
ROOT
ATOM      1  N   UNL     1       1.139  -1.365   0.000  0.00  0.00    -0.309 N 
ATOM      2  C   UNL     1       1.923  -1.110   0.000  0.00  0.00    +0.079 A 
ATOM      3  C   UNL     1       1.923  -0.285   0.000  0.00  0.00    +0.099 A 
ATOM      4  C   UNL     1       2.638   0.127   0.000  0.00  0.00    +0.021 A 
ATOM      5  C   UNL     1       3.352  -0.285   0.000  0.00  0.00    +0.002 A 
ATOM      6  C   UNL     1       3.352  -1.110   0.000  0.00  0.00    +0.002 A 
ATOM      7  N   UNL     1       1.139  -0.030   0.000  0.00  0.00    -0.227 NA
ATOM      8  C   UNL     1       2.638  -1.523   0.000  0.00  0.00    +0.019 A 
ATOM      9  C   UNL     1       0.654  -0.698   0.000  0.00  0.00    +0.144 A 
ENDROOT
BRANCH   9  10
ATOM     10  C   UNL     1      -0.171  -0.698   0.000  0.00  0.00    +0.038 A 
ATOM     11  C   UNL     1      -0.584   0.017   0.000  0.00  0.00    +0.048 A 
ATOM     12  C   UNL     1      -1.409   0.017   0.000  0.00  0.00    +0.229 A 
ATOM     13  O   UNL     1      -1.821   0.731   0.000  0.00  0.00    -0.283 OA
ATOM     14  C   UNL     1      -1.821  -0.698   0.000  0.00  0.00    +0.177 A 
ATOM     15  C   UNL     1      -1.409  -1.412   0.000  0.00  0.00    +0.040 A 
ATOM     16  C   UNL     1      -0.584  -1.412   0.000  0.00  0.00    +0.006 A 
BRANCH  14  17
ATOM     17  O   UNL     1      -2.646  -0.698   0.000  0.00  0.00    -0.468 OA
ATOM     18  C   UNL     1      -3.059  -1.412   0.000  0.00  0.00    +0.253 C 
ENDBRANCH  14  17
ENDBRANCH   9  10
BRANCH   1  19
ATOM     19  C   UNL     1       0.884  -2.150   0.000  0.00  0.00    +0.139 C 
BRANCH  19  20
ATOM     20  C   UNL     1       1.436  -2.763   0.000  0.00  0.00    +0.167 C 
BRANCH  20  22
ATOM     21  C   UNL     1       1.733  -4.161   0.000  0.00  0.00    +0.174 C 
ATOM     22  O   UNL     1       1.181  -3.548   0.000  0.00  0.00    -0.349 OA
ENDBRANCH  20  22
ENDBRANCH  19  20
ENDBRANCH   1  19
TORSDOF 5
