REMARK  Name = 
REMARK  5 active torsions:
REMARK  status: ('A' for Active; 'I' for Inactive)
REMARK    1  A    between atoms: C_4  and  C_5
REMARK    2  A    between atoms: N_7  and  C_8
REMARK    3  A    between atoms: C_8  and  C_9
REMARK    4  A    between atoms: C_9  and  C_10
REMARK    5  A    between atoms: C_12  and  C_15
REMARK                            x       y       z     vdW  Elec       q    Type
REMARK                         _______ _______ _______ _____ _____    ______ ____
ROOT
ATOM      1  C   UNL     1       3.530  -1.996   0.000  0.00  0.00    +0.076 C 
ENDROOT
BRANCH   1   2
ATOM      2  C   UNL     1       4.245  -2.408   0.000  0.00  0.00    +0.090 A 
ATOM      3  S   UNL     1       4.331  -3.229   0.000  0.00  0.00    -0.071 S 
ATOM      4  C   UNL     1       5.138  -3.400   0.000  0.00  0.00    +0.051 A 
ATOM      5  C   UNL     1       5.551  -2.686   0.000  0.00  0.00    +0.065 A 
ATOM      6  N   UNL     1       4.999  -2.073   0.000  0.00  0.00    -0.247 NA
BRANCH   5   7
ATOM      7  C   UNL     1       6.371  -2.599   0.000  0.00  0.00    +0.036 C 
ATOM      8  C   UNL     1       6.285  -1.779   0.000  0.00  0.00    +0.006 C 
ATOM      9  C   UNL     1       6.457  -3.420   0.000  0.00  0.00    +0.006 C 
ATOM     10  C   UNL     1       7.192  -2.513   0.000  0.00  0.00    +0.006 C 
ENDBRANCH   5   7
ENDBRANCH   1   2
BRANCH   1  11
ATOM     11  C   UNL     1       2.816  -2.408   0.000  0.00  0.00    +0.122 C 
BRANCH  11  13
ATOM     12  C   UNL     1       1.387  -2.408   0.000  0.00  0.00    +0.241 C 
ATOM     13  N   UNL     1       2.102  -1.996   0.000  0.00  0.00    -0.205 NA
ATOM     14  O   UNL     1       1.387  -3.233   0.000  0.00  0.00    -0.273 OA
BRANCH  12  17
ATOM     15  C   UNL     1      -0.867  -2.408   0.000  0.00  0.00    +0.001 C 
ATOM     16  C   UNL     1      -0.152  -1.996   0.000  0.00  0.00    +0.009 C 
ATOM     17  C   UNL     1       0.672  -1.996   0.000  0.00  0.00    +0.078 C 
ATOM     18  C   UNL     1       0.260  -1.281   0.000  0.00  0.00    +0.010 C 
ENDBRANCH  12  17
ENDBRANCH  11  13
ENDBRANCH   1  11
TORSDOF 5
