REMARK  Name = 
REMARK  2 active torsions:
REMARK  status: ('A' for Active; 'I' for Inactive)
REMARK    1  A    between atoms: C_4  and  C_5
REMARK    2  A    between atoms: C_7  and  C_10
REMARK                            x       y       z     vdW  Elec       q    Type
REMARK                         _______ _______ _______ _____ _____    ______ ____
ROOT
ATOM      1 CL   UNL     1       0.000   0.000   0.000  0.00  0.00    +0.000 Cl
ENDROOT
TORSDOF 0
REMARK  Name = 
REMARK  2 active torsions:
REMARK  status: ('A' for Active; 'I' for Inactive)
REMARK    1  A    between atoms: C_4  and  C_5
REMARK    2  A    between atoms: C_7  and  C_10
REMARK                            x       y       z     vdW  Elec       q    Type
REMARK                         _______ _______ _______ _____ _____    ______ ____
ROOT
ATOM      1  C   UNL     1       4.560  -1.088   0.000  0.00  0.00    +0.236 A 
ATOM      2  O   UNL     1       5.227  -0.603   0.000  0.00  0.00    -0.337 OA
ATOM      3  N   UNL     1       4.973   0.182   0.000  0.00  0.00    -0.061 NA
ATOM      4  C   UNL     1       4.147   0.182   0.000  0.00  0.00    +0.181 A 
ATOM      5  N   UNL     1       3.893  -0.603   0.000  0.00  0.00    -0.195 NA
ENDROOT
BRANCH   4   6
ATOM      6  C   UNL     1       3.663   0.849   0.000  0.00  0.00    +0.079 C 
ATOM      7  C   UNL     1       3.998   1.603   0.000  0.00  0.00    +0.096 C 
ATOM      8  N   UNL     1       3.513   2.270   0.000  0.00  0.00    -0.218 NA
ATOM      9  C   UNL     1       2.693   2.184   0.000  0.00  0.00    +0.089 C 
ATOM     10  C   UNL     1       2.357   1.430   0.000  0.00  0.00    +0.019 C 
ATOM     11  C   UNL     1       2.842   0.763   0.000  0.00  0.00    +0.011 C 
ENDBRANCH   4   6
BRANCH   1  13
ATOM     12  C   UNL     1       4.973  -2.627   0.000  0.00  0.00    +0.010 C 
ATOM     13  C   UNL     1       4.560  -1.913   0.000  0.00  0.00    +0.079 C 
ATOM     14  C   UNL     1       4.147  -2.627   0.000  0.00  0.00    +0.010 C 
ENDBRANCH   1  13
TORSDOF 2
