REMARK  Name = 
REMARK  3 active torsions:
REMARK  status: ('A' for Active; 'I' for Inactive)
REMARK    1  A    between atoms: C_5  and  N_6
REMARK    2  A    between atoms: N_6  and  C_7
REMARK    3  A    between atoms: C_7  and  C_8
REMARK                            x       y       z     vdW  Elec       q    Type
REMARK                         _______ _______ _______ _____ _____    ______ ____
ROOT
ATOM      1  C   UNL     1      -0.715   9.241   0.000  0.00  0.00    +0.157 C 
ATOM      2  N   UNL     1      -0.715   8.416   0.000  0.00  0.00    -0.214 N 
ATOM      3  C   UNL     1      -1.429   8.004   0.000  0.00  0.00    +0.288 A 
ATOM      4  O   UNL     1      -2.143   8.416   0.000  0.00  0.00    -0.265 OA
ATOM      5  C   UNL     1      -1.429   7.179   0.000  0.00  0.00    +0.131 A 
ATOM      6 CL   UNL     1      -2.143   6.766   0.000  0.00  0.00    -0.076 Cl
ATOM      7  C   UNL     1      -0.715   6.766   0.000  0.00  0.00    +0.101 A 
ATOM      8  C   UNL     1       0.000   7.179   0.000  0.00  0.00    +0.137 A 
ATOM      9  N   UNL     1       0.000   8.004   0.000  0.00  0.00    -0.164 NA
ENDROOT
BRANCH   7  10
ATOM     10  N   UNL     1      -0.715   5.941   0.000  0.00  0.00    -0.232 NA
BRANCH  10  11
ATOM     11  C   UNL     1       0.000   5.529   0.000  0.00  0.00    +0.142 C 
BRANCH  11  12
ATOM     12  C   UNL     1       0.000   4.704   0.000  0.00  0.00    +0.137 C 
ATOM     13  O   UNL     1      -0.667   4.219   0.000  0.00  0.00    -0.354 OA
ATOM     14  C   UNL     1      -0.412   3.434   0.000  0.00  0.00    +0.142 C 
ATOM     15  C   UNL     1       0.412   3.434   0.000  0.00  0.00    +0.035 C 
ATOM     16  C   UNL     1       0.667   4.219   0.000  0.00  0.00    +0.034 C 
ENDBRANCH  11  12
ENDBRANCH  10  11
ENDBRANCH   7  10
TORSDOF 3
