REMARK  Name = 
REMARK  1 active torsions:
REMARK  status: ('A' for Active; 'I' for Inactive)
REMARK    1  A    between atoms: N_4  and  C_10
REMARK                            x       y       z     vdW  Elec       q    Type
REMARK                         _______ _______ _______ _____ _____    ______ ____
ROOT
ATOM      1  C   UNL     1       2.143  -2.888   0.000  0.00  0.00    +0.034 C 
ATOM      2  C   UNL     1       1.429  -2.475   0.000  0.00  0.00    +0.135 C 
ATOM      3  O   UNL     1       1.429  -1.650   0.000  0.00  0.00    -0.358 OA
ATOM      4  C   UNL     1       0.715  -1.238   0.000  0.00  0.00    +0.111 C 
ATOM      5  C   UNL     1       1.245  -0.606   0.000  0.00  0.00    +0.031 C 
ATOM      6  C   UNL     1       0.184  -0.606   0.000  0.00  0.00    +0.031 C 
ATOM      7  C   UNL     1       0.000  -1.650   0.000  0.00  0.00    +0.118 C 
ATOM      8  N   UNL     1       0.000  -2.475   0.000  0.00  0.00    -0.301 N 
ATOM      9  C   UNL     1       0.715  -2.888   0.000  0.00  0.00    +0.121 C 
ENDROOT
BRANCH   8  10
ATOM     10  C   UNL     1      -0.715  -2.888   0.000  0.00  0.00    +0.085 A 
ATOM     11  C   UNL     1      -1.429  -2.475   0.000  0.00  0.00    +0.132 A 
ATOM     12 CL   UNL     1      -1.429  -1.650   0.000  0.00  0.00    -0.076 Cl
ATOM     13  C   UNL     1      -2.143  -2.888   0.000  0.00  0.00    +0.309 A 
ATOM     14  O   UNL     1      -2.858  -2.475   0.000  0.00  0.00    -0.263 OA
ATOM     15  N   UNL     1      -2.143  -3.712   0.000  0.00  0.00    -0.105 NA
ATOM     16  N   UNL     1      -1.429  -4.125   0.000  0.00  0.00    -0.142 NA
ATOM     17  C   UNL     1      -0.715  -3.712   0.000  0.00  0.00    +0.138 A 
ENDBRANCH   8  10
TORSDOF 1
