REMARK  Name = 
REMARK  5 active torsions:
REMARK  status: ('A' for Active; 'I' for Inactive)
REMARK    1  A    between atoms: C_3  and  C_5
REMARK    2  A    between atoms: N_10  and  C_11
REMARK    3  A    between atoms: C_11  and  C_12
REMARK    4  A    between atoms: N_14  and  C_15
REMARK    5  A    between atoms: C_15  and  C_16
REMARK                            x       y       z     vdW  Elec       q    Type
REMARK                         _______ _______ _______ _____ _____    ______ ____
ROOT
ATOM      1  C   UNL     1       0.715  -0.412   0.000  0.00  0.00    +0.072 A 
ATOM      2  C   UNL     1       1.429   0.000   0.000  0.00  0.00    +0.083 A 
ATOM      3  N   UNL     1       1.429   0.825   0.000  0.00  0.00    -0.285 N 
ATOM      4  C   UNL     1       0.715   1.238   0.000  0.00  0.00    +0.261 A 
ATOM      5  O   UNL     1       0.715   2.062   0.000  0.00  0.00    -0.267 OA
ATOM      6  C   UNL     1       0.000   0.825   0.000  0.00  0.00    +0.061 A 
ATOM      7  C   UNL     1       0.000   0.000   0.000  0.00  0.00    +0.011 A 
ENDROOT
BRANCH   1  10
ATOM      8  C   UNL     1       0.000  -2.475   0.000  0.00  0.00    +0.139 C 
ATOM      9  N   UNL     1       0.000  -1.650   0.000  0.00  0.00    -0.200 NA
ATOM     10  C   UNL     1       0.715  -1.238   0.000  0.00  0.00    +0.266 C 
ATOM     11  O   UNL     1       1.429  -1.650   0.000  0.00  0.00    -0.268 OA
ENDBRANCH   1  10
BRANCH   3  12
ATOM     12  C   UNL     1       2.143   1.238   0.000  0.00  0.00    +0.196 C 
BRANCH  12  13
ATOM     13  C   UNL     1       2.858   0.825   0.000  0.00  0.00    +0.265 C 
ATOM     14  N   UNL     1       3.572   1.238   0.000  0.00  0.00    -0.189 NA
ATOM     15  O   UNL     1       2.858   0.000   0.000  0.00  0.00    -0.271 OA
BRANCH  14  16
ATOM     16  C   UNL     1       4.287   0.825   0.000  0.00  0.00    +0.191 C 
BRANCH  16  17
ATOM     17  C   UNL     1       5.001   1.238   0.000  0.00  0.00    -0.054 C 
ATOM     18  C   UNL     1       5.716   1.650   0.000  0.00  0.00    -0.012 C 
ENDBRANCH  16  17
ENDBRANCH  14  16
ENDBRANCH  12  13
ENDBRANCH   3  12
TORSDOF 5
