REMARK  Name = 
REMARK  5 active torsions:
REMARK  status: ('A' for Active; 'I' for Inactive)
REMARK    1  A    between atoms: C_2  and  C_3
REMARK    2  A    between atoms: C_3  and  C_5
REMARK    3  A    between atoms: N_7  and  C_8
REMARK    4  A    between atoms: C_8  and  C_9
REMARK    5  A    between atoms: C_14  and  N_15
REMARK                            x       y       z     vdW  Elec       q    Type
REMARK                         _______ _______ _______ _____ _____    ______ ____
ROOT
ATOM      1  C   UNL     1       8.574  -0.825   0.000  0.00  0.00    +0.031 A 
ATOM      2  C   UNL     1       9.288  -1.238   0.000  0.00  0.00    +0.129 A 
ATOM      3  N   UNL     1      10.003  -0.825   0.000  0.00  0.00    -0.229 NA
ATOM      4  C   UNL     1      10.003   0.000   0.000  0.00  0.00    +0.100 A 
ATOM      5  C   UNL     1       9.288   0.412   0.000  0.00  0.00    +0.021 A 
ATOM      6  C   UNL     1       8.574   0.000   0.000  0.00  0.00    +0.002 A 
ENDROOT
BRANCH   2   7
ATOM      7  N   UNL     1       9.288  -2.062   0.000  0.00  0.00    -0.288 N 
ATOM      8  C   UNL     1       8.574  -2.475   0.000  0.00  0.00    +0.124 C 
ATOM      9  C   UNL     1       8.574  -3.300   0.000  0.00  0.00    +0.164 C 
ATOM     10  O   UNL     1       9.288  -3.712   0.000  0.00  0.00    -0.350 OA
ATOM     11  C   UNL     1      10.003  -3.300   0.000  0.00  0.00    +0.164 C 
ATOM     12  C   UNL     1      10.003  -2.475   0.000  0.00  0.00    +0.124 C 
ENDBRANCH   2   7
BRANCH   1  13
ATOM     13  C   UNL     1       7.859  -1.238   0.000  0.00  0.00    +0.144 C 
BRANCH  13  15
ATOM     14  C   UNL     1       6.430  -1.238   0.000  0.00  0.00    +0.241 C 
ATOM     15  N   UNL     1       7.145  -0.825   0.000  0.00  0.00    -0.200 NA
ATOM     16  O   UNL     1       6.430  -2.062   0.000  0.00  0.00    -0.273 OA
BRANCH  14  17
ATOM     17  C   UNL     1       5.716  -0.825   0.000  0.00  0.00    +0.078 C 
ATOM     18  C   UNL     1       5.716   0.000   0.000  0.00  0.00    +0.010 C 
BRANCH  17  20
ATOM     19  C   UNL     1       4.287  -0.825   0.000  0.00  0.00    +0.001 C 
ATOM     20  C   UNL     1       5.001  -1.238   0.000  0.00  0.00    +0.009 C 
ENDBRANCH  17  20
ENDBRANCH  14  17
ENDBRANCH  13  15
ENDBRANCH   1  13
TORSDOF 5
