REMARK  Name = 
REMARK  3 active torsions:
REMARK  status: ('A' for Active; 'I' for Inactive)
REMARK    1  A    between atoms: C_7  and  N_8
REMARK    2  A    between atoms: N_11  and  C_12
REMARK    3  A    between atoms: N_15  and  C_18
REMARK                            x       y       z     vdW  Elec       q    Type
REMARK                         _______ _______ _______ _____ _____    ______ ____
ROOT
ATOM      1  C   UNL     1       0.715  -2.888   0.000  0.00  0.00    +0.100 C 
ATOM      2  C   UNL     1       1.429  -2.475   0.000  0.00  0.00    +0.039 C 
ATOM      3  C   UNL     1       1.429  -1.650   0.000  0.00  0.00    +0.074 C 
ATOM      4  N   UNL     1       0.715  -1.238   0.000  0.00  0.00    -0.274 NA
ATOM      5  C   UNL     1       0.000  -1.650   0.000  0.00  0.00    +0.074 C 
ATOM      6  C   UNL     1       0.000  -2.475   0.000  0.00  0.00    +0.039 C 
ENDROOT
BRANCH   4   7
ATOM      7  C   UNL     1       0.715  -0.412   0.000  0.00  0.00    +0.058 C 
ATOM      8  C   UNL     1       1.429   0.000   0.000  0.00  0.00    +0.016 C 
ATOM      9  C   UNL     1       1.429   0.825   0.000  0.00  0.00    +0.001 C 
ATOM     10  C   UNL     1       0.715   1.238   0.000  0.00  0.00    +0.000 C 
ATOM     11  C   UNL     1       0.000   0.825   0.000  0.00  0.00    +0.001 C 
ATOM     12  C   UNL     1       0.000   0.000   0.000  0.00  0.00    +0.016 C 
ENDBRANCH   4   7
BRANCH   1  15
ATOM     13  N   UNL     1       1.429  -4.950   0.000  0.00  0.00    -0.161 NA
ATOM     14  C   UNL     1       1.429  -4.125   0.000  0.00  0.00    +0.343 C 
ATOM     15  N   UNL     1       0.715  -3.712   0.000  0.00  0.00    -0.189 NA
ATOM     16  O   UNL     1       2.143  -3.712   0.000  0.00  0.00    -0.249 OA
BRANCH  13  19
ATOM     17  C   UNL     1       2.858  -4.125   0.000  0.00  0.00    +0.034 C 
ATOM     18  C   UNL     1       2.858  -4.950   0.000  0.00  0.00    +0.013 A 
ATOM     19  C   UNL     1       2.143  -5.362   0.000  0.00  0.00    +0.074 A 
ATOM     20  C   UNL     1       2.143  -6.188   0.000  0.00  0.00    +0.037 A 
ATOM     21  C   UNL     1       2.858  -6.600   0.000  0.00  0.00    +0.100 A 
ATOM     22  N   UNL     1       3.572  -6.188   0.000  0.00  0.00    -0.243 NA
ATOM     23  C   UNL     1       3.572  -5.362   0.000  0.00  0.00    +0.096 A 
ENDBRANCH  13  19
ENDBRANCH   1  15
TORSDOF 3
