REMARK  Name = 
REMARK  4 active torsions:
REMARK  status: ('A' for Active; 'I' for Inactive)
REMARK    1  A    between atoms: N_1  and  C_7
REMARK    2  A    between atoms: N_2  and  C_8
REMARK    3  A    between atoms: C_7  and  C_9
REMARK    4  A    between atoms: C_9  and  C_12
REMARK                            x       y       z     vdW  Elec       q    Type
REMARK                         _______ _______ _______ _____ _____    ______ ____
ROOT
ATOM      1  N   UNL     1      -1.325  -1.708   0.000  0.00  0.00    -0.239 N 
ATOM      2  C   UNL     1      -0.608  -1.296   0.000  0.00  0.00    +0.294 A 
ATOM      3  O   UNL     1      -0.608  -0.471   0.000  0.00  0.00    -0.264 OA
ATOM      4  C   UNL     1       0.104  -1.708   0.000  0.00  0.00    +0.213 A 
ATOM      5  F   UNL     1       0.821  -1.296   0.000  0.00  0.00    -0.198 F 
ATOM      6  C   UNL     1       0.104  -2.533   0.000  0.00  0.00    +0.116 A 
ATOM      7  N   UNL     1      -0.608  -2.946   0.000  0.00  0.00    -0.255 N 
ATOM      8  C   UNL     1      -1.325  -2.533   0.000  0.00  0.00    +0.336 A 
ATOM      9  O   UNL     1      -2.038  -2.946   0.000  0.00  0.00    -0.246 OA
ENDROOT
BRANCH   7  10
ATOM     10  C   UNL     1      -0.608  -3.771   0.000  0.00  0.00    +0.208 C 
ATOM     11  C   UNL     1       0.058  -4.258   0.000  0.00  0.00    +0.057 C 
ATOM     12  C   UNL     1      -0.196  -5.042   0.000  0.00  0.00    +0.037 C 
ATOM     13  C   UNL     1      -1.021  -5.042   0.000  0.00  0.00    +0.144 C 
ATOM     14  O   UNL     1      -1.279  -4.258   0.000  0.00  0.00    -0.335 OA
ENDBRANCH   7  10
BRANCH   1  15
ATOM     15  C   UNL     1      -2.038  -1.296   0.000  0.00  0.00    +0.183 C 
BRANCH  15  16
ATOM     16  C   UNL     1      -2.754  -1.708   0.000  0.00  0.00    +0.196 C 
ATOM     17  O   UNL     1      -2.754  -2.533   0.000  0.00  0.00    -0.289 OA
BRANCH  16  18
ATOM     18  C   UNL     1      -3.467  -1.296   0.000  0.00  0.00    +0.037 A 
ATOM     19  C   UNL     1      -3.467  -0.471   0.000  0.00  0.00    +0.003 A 
ATOM     20  C   UNL     1      -4.183  -0.058   0.000  0.00  0.00    +0.007 A 
ATOM     21  C   UNL     1      -4.896  -0.471   0.000  0.00  0.00    +0.035 A 
ATOM     22  C   UNL     1      -4.896  -1.296   0.000  0.00  0.00    +0.007 A 
ATOM     23 BR   UNL     1      -5.612  -0.058   0.000  0.00  0.00    -0.049 Br
ATOM     24  C   UNL     1      -4.183  -1.708   0.000  0.00  0.00    +0.003 A 
ENDBRANCH  16  18
ENDBRANCH  15  16
ENDBRANCH   1  15
TORSDOF 4
