REMARK  Name = 
REMARK  4 active torsions:
REMARK  status: ('A' for Active; 'I' for Inactive)
REMARK    1  A    between atoms: C_2  and  C_3
REMARK    2  A    between atoms: N_7  and  C_8
REMARK    3  A    between atoms: C_8  and  C_9
REMARK    4  A    between atoms: C_9  and  N_10
REMARK                            x       y       z     vdW  Elec       q    Type
REMARK                         _______ _______ _______ _____ _____    ______ ____
ROOT
ATOM      1  N   UNL     1       0.204  -1.954   0.000  0.00  0.00    -0.186 NA
ATOM      2  C   UNL     1       0.918  -2.366   0.000  0.00  0.00    +0.323 C 
ATOM      3  N   UNL     1       1.633  -1.954   0.000  0.00  0.00    -0.263 N 
ATOM      4  C   UNL     1       2.315  -2.418   0.000  0.00  0.00    +0.095 C 
ATOM      5  C   UNL     1       3.103  -2.175   0.000  0.00  0.00    +0.022 C 
ATOM      6  C   UNL     1       3.404  -1.407   0.000  0.00  0.00    +0.002 C 
ATOM      7  C   UNL     1       4.227  -1.346   0.000  0.00  0.00    +0.000 C 
ATOM      8  C   UNL     1       2.992  -0.693   0.000  0.00  0.00    +0.002 C 
ATOM      9  C   UNL     1       2.176  -0.570   0.000  0.00  0.00    +0.022 C 
ATOM     10  C   UNL     1       1.571  -1.131   0.000  0.00  0.00    +0.095 C 
ATOM     11  O   UNL     1       0.918  -3.191   0.000  0.00  0.00    -0.251 OA
ENDROOT
BRANCH   1  12
ATOM     12  C   UNL     1      -0.510  -2.366   0.000  0.00  0.00    +0.141 C 
BRANCH  12  13
ATOM     13  C   UNL     1      -1.225  -1.954   0.000  0.00  0.00    +0.132 C 
BRANCH  13  15
ATOM     14  C   UNL     1      -2.026  -3.187   0.000  0.00  0.00    +0.143 A 
ATOM     15  N   UNL     1      -1.939  -2.366   0.000  0.00  0.00    -0.294 N 
ATOM     16  C   UNL     1      -2.693  -2.031   0.000  0.00  0.00    +0.202 A 
ATOM     17  N   UNL     1      -3.245  -2.644   0.000  0.00  0.00    -0.126 NA
ATOM     18  N   UNL     1      -2.833  -3.358   0.000  0.00  0.00    -0.133 NA
BRANCH  14  20
ATOM     19  C   UNL     1      -1.584  -4.546   0.000  0.00  0.00    +0.008 C 
ATOM     20  C   UNL     1      -1.413  -3.739   0.000  0.00  0.00    +0.066 C 
ENDBRANCH  14  20
ENDBRANCH  13  15
ENDBRANCH  12  13
ENDBRANCH   1  12
TORSDOF 4
