REMARK  Name = 
REMARK  4 active torsions:
REMARK  status: ('A' for Active; 'I' for Inactive)
REMARK    1  A    between atoms: N_4  and  C_5
REMARK    2  A    between atoms: C_5  and  C_6
REMARK    3  A    between atoms: C_6  and  C_8
REMARK    4  A    between atoms: C_16  and  C_17
REMARK                            x       y       z     vdW  Elec       q    Type
REMARK                         _______ _______ _______ _____ _____    ______ ____
ROOT
ATOM      1  C   UNL     1       1.429  -1.650   0.000  0.00  0.00    +0.054 C 
ATOM      2  C   UNL     1       1.429  -2.475   0.000  0.00  0.00    +0.076 A 
ATOM      3  C   UNL     1       0.715  -2.888   0.000  0.00  0.00    +0.008 A 
ATOM      4  C   UNL     1       0.000  -2.475   0.000  0.00  0.00    +0.033 C 
ATOM      5  C   UNL     1       0.715  -3.712   0.000  0.00  0.00    +0.123 A 
ATOM      6  C   UNL     1       1.429  -4.125   0.000  0.00  0.00    +0.286 A 
ATOM      7  O   UNL     1       1.429  -4.950   0.000  0.00  0.00    -0.265 OA
ATOM      8  N   UNL     1       2.143  -3.712   0.000  0.00  0.00    -0.213 N 
ATOM      9  N   UNL     1       2.143  -2.888   0.000  0.00  0.00    -0.171 NA
ENDROOT
BRANCH   5  10
ATOM     10  C   UNL     1       0.000  -4.125   0.000  0.00  0.00    +0.105 C 
ATOM     11  N   UNL     1      -0.715  -4.537   0.000  0.00  0.00    -0.191 NA
ENDBRANCH   5  10
BRANCH   8  12
ATOM     12  C   UNL     1       2.858  -4.125   0.000  0.00  0.00    +0.168 C 
BRANCH  12  13
ATOM     13  C   UNL     1       3.572  -3.712   0.000  0.00  0.00    +0.199 C 
ATOM     14  O   UNL     1       3.572  -2.888   0.000  0.00  0.00    -0.216 OA
BRANCH  13  15
ATOM     15  C   UNL     1       4.287  -4.125   0.000  0.00  0.00    +0.010 A 
ATOM     16  C   UNL     1       4.287  -4.950   0.000  0.00  0.00    -0.002 A 
ATOM     17  C   UNL     1       5.001  -5.362   0.000  0.00  0.00    -0.000 A 
ATOM     18  C   UNL     1       5.716  -4.950   0.000  0.00  0.00    -0.000 A 
ATOM     19  C   UNL     1       5.716  -4.125   0.000  0.00  0.00    -0.000 A 
ATOM     20  C   UNL     1       5.001  -3.712   0.000  0.00  0.00    -0.002 A 
ENDBRANCH  13  15
ENDBRANCH  12  13
ENDBRANCH   8  12
TORSDOF 4
