REMARK  Name = 
REMARK  2 active torsions:
REMARK  status: ('A' for Active; 'I' for Inactive)
REMARK    1  A    between atoms: N_3  and  C_4
REMARK    2  A    between atoms: C_4  and  C_5
REMARK                            x       y       z     vdW  Elec       q    Type
REMARK                         _______ _______ _______ _____ _____    ______ ____
ROOT
ATOM      1  C   UNL     1       1.429  -3.300   0.000  0.00  0.00    +0.148 C 
ENDROOT
BRANCH   1  11
ATOM      2  O   UNL     1       2.858  -4.125   0.000  0.00  0.00    -0.249 OA
ATOM      3  C   UNL     1       2.858  -3.300   0.000  0.00  0.00    +0.345 C 
ATOM      4  N   UNL     1       3.572  -2.888   0.000  0.00  0.00    -0.142 NA
ATOM      5  C   UNL     1       4.287  -3.300   0.000  0.00  0.00    +0.156 A 
ATOM      6  N   UNL     1       4.287  -4.125   0.000  0.00  0.00    -0.227 NA
ATOM      7  C   UNL     1       5.001  -4.537   0.000  0.00  0.00    +0.100 A 
ATOM      8  C   UNL     1       5.716  -4.125   0.000  0.00  0.00    +0.021 A 
ATOM      9  C   UNL     1       5.716  -3.300   0.000  0.00  0.00    +0.005 A 
ATOM     10  C   UNL     1       5.001  -2.888   0.000  0.00  0.00    +0.036 A 
ATOM     11  N   UNL     1       2.143  -2.888   0.000  0.00  0.00    -0.184 NA
ENDBRANCH   1  11
BRANCH   1  12
ATOM     12  C   UNL     1       0.715  -2.888   0.000  0.00  0.00    +0.153 C 
ATOM     13  O   UNL     1       0.715  -2.062   0.000  0.00  0.00    -0.352 OA
ATOM     14  C   UNL     1       0.000  -1.650   0.000  0.00  0.00    +0.158 C 
ATOM     15  C   UNL     1      -0.715  -2.062   0.000  0.00  0.00    +0.087 C 
ATOM     16  N   UNL     1      -0.715  -2.888   0.000  0.00  0.00    -0.270 NA
ATOM     17  C   UNL     1      -1.429  -3.300   0.000  0.00  0.00    +0.072 C 
ATOM     18  C   UNL     1      -2.143  -2.888   0.000  0.00  0.00    +0.017 C 
ATOM     19  C   UNL     1      -2.143  -2.062   0.000  0.00  0.00    +0.003 C 
ATOM     20  C   UNL     1      -1.429  -1.650   0.000  0.00  0.00    +0.019 C 
ATOM     21  C   UNL     1       0.000  -3.300   0.000  0.00  0.00    +0.104 C 
ENDBRANCH   1  12
TORSDOF 2
