REMARK  Name = 
REMARK  6 active torsions:
REMARK  status: ('A' for Active; 'I' for Inactive)
REMARK    1  A    between atoms: N_5  and  C_6
REMARK    2  A    between atoms: C_6  and  C_7
REMARK    3  A    between atoms: C_7  and  N_8
REMARK    4  A    between atoms: N_8  and  C_9
REMARK    5  A    between atoms: C_9  and  C_10
REMARK    6  A    between atoms: N_12  and  C_13
REMARK                            x       y       z     vdW  Elec       q    Type
REMARK                         _______ _______ _______ _____ _____    ______ ____
ROOT
ATOM      1  C   UNL     1       3.447  -4.462   0.000  0.00  0.00    +0.259 C 
ATOM      2  N   UNL     1       4.162  -4.050   0.000  0.00  0.00    -0.197 NA
ATOM      3  O   UNL     1       3.447  -5.287   0.000  0.00  0.00    -0.272 OA
ENDROOT
BRANCH   2   4
ATOM      4  C   UNL     1       4.876  -4.462   0.000  0.00  0.00    +0.173 C 
ATOM      5  C   UNL     1       4.814  -5.285   0.000  0.00  0.00    +0.261 C 
ATOM      6  O   UNL     1       4.046  -5.586   0.000  0.00  0.00    -0.271 OA
ATOM      7  N   UNL     1       5.419  -5.846   0.000  0.00  0.00    -0.204 NA
ATOM      8  C   UNL     1       6.235  -5.723   0.000  0.00  0.00    +0.115 C 
ATOM      9  C   UNL     1       6.648  -5.008   0.000  0.00  0.00    +0.024 C 
ATOM     10  C   UNL     1       6.346  -4.240   0.000  0.00  0.00    +0.004 C 
ATOM     11  C   UNL     1       5.558  -3.997   0.000  0.00  0.00    +0.031 C 
ENDBRANCH   2   4
BRANCH   1  12
ATOM     12  C   UNL     1       2.733  -4.050   0.000  0.00  0.00    +0.175 C 
BRANCH  12  13
ATOM     13  N   UNL     1       2.018  -4.462   0.000  0.00  0.00    -0.206 NA
BRANCH  13  14
ATOM     14  C   UNL     1       1.304  -4.050   0.000  0.00  0.00    +0.116 C 
BRANCH  14  15
ATOM     15  C   UNL     1       0.589  -4.462   0.000  0.00  0.00    +0.146 C 
BRANCH  15  19
ATOM     16  C   UNL     1      -2.251  -3.858   0.000  0.00  0.00    +0.034 C 
ATOM     17  C   UNL     1      -1.431  -3.772   0.000  0.00  0.00    +0.018 A 
ATOM     18  C   UNL     1      -0.879  -4.385   0.000  0.00  0.00    +0.092 A 
ATOM     19  N   UNL     1      -0.125  -4.050   0.000  0.00  0.00    -0.248 N 
ATOM     20  N   UNL     1      -0.211  -3.229   0.000  0.00  0.00    -0.168 NA
ATOM     21  C   UNL     1      -1.018  -3.058   0.000  0.00  0.00    +0.117 A 
ENDBRANCH  15  19
ENDBRANCH  14  15
ENDBRANCH  13  14
ENDBRANCH  12  13
ENDBRANCH   1  12
TORSDOF 6
