REMARK  Name = 
REMARK  3 active torsions:
REMARK  status: ('A' for Active; 'I' for Inactive)
REMARK    1  A    between atoms: O_2  and  C_3
REMARK    2  A    between atoms: C_9  and  N_10
REMARK    3  A    between atoms: N_13  and  C_14
REMARK                            x       y       z     vdW  Elec       q    Type
REMARK                         _______ _______ _______ _____ _____    ______ ____
ROOT
ATOM      1  C   UNL     1       7.782   2.470   0.000  0.00  0.00    +0.172 A 
ATOM      2  C   UNL     1       7.198   1.887   0.000  0.00  0.00    +0.190 A 
ATOM      3  N   UNL     1       7.412   1.090   0.000  0.00  0.00    -0.230 NA
ATOM      4  C   UNL     1       8.209   0.876   0.000  0.00  0.00    +0.061 A 
ATOM      5  C   UNL     1       8.422   0.079   0.000  0.00  0.00    +0.052 C 
ATOM      6  C   UNL     1       8.792   1.460   0.000  0.00  0.00    +0.018 A 
ATOM      7  C   UNL     1       8.579   2.256   0.000  0.00  0.00    +0.041 A 
ENDROOT
BRANCH   2   8
ATOM      8  N   UNL     1       6.401   2.100   0.000  0.00  0.00    -0.139 NA
ATOM      9  C   UNL     1       5.818   1.517   0.000  0.00  0.00    +0.345 C 
ATOM     10  N   UNL     1       5.021   1.730   0.000  0.00  0.00    -0.190 NA
ATOM     11  O   UNL     1       6.032   0.720   0.000  0.00  0.00    -0.249 OA
BRANCH  10  12
ATOM     12  C   UNL     1       4.438   1.147   0.000  0.00  0.00    +0.080 C 
ATOM     13  C   UNL     1       3.854   0.564   0.000  0.00  0.00    +0.020 C 
ATOM     14  C   UNL     1       4.438  -0.020   0.000  0.00  0.00    +0.003 C 
ATOM     15  C   UNL     1       5.021   0.564   0.000  0.00  0.00    +0.020 C 
ATOM     16  C   UNL     1       3.854   1.730   0.000  0.00  0.00    +0.022 C 
ENDBRANCH  10  12
ENDBRANCH   2   8
BRANCH   1  18
ATOM     17  C   UNL     1       8.152   3.850   0.000  0.00  0.00    +0.253 C 
ATOM     18  O   UNL     1       7.568   3.267   0.000  0.00  0.00    -0.469 OA
ENDBRANCH   1  18
TORSDOF 3
