REMARK  Name = 
REMARK  3 active torsions:
REMARK  status: ('A' for Active; 'I' for Inactive)
REMARK    1  A    between atoms: N_1  and  C_9
REMARK    2  A    between atoms: N_2  and  C_12
REMARK    3  A    between atoms: C_8  and  C_9
REMARK                            x       y       z     vdW  Elec       q    Type
REMARK                         _______ _______ _______ _____ _____    ______ ____
ROOT
ATOM      1  C   UNL     1       2.658  -0.879   0.000  0.00  0.00    +0.199 C 
ENDROOT
BRANCH   1   2
ATOM      2  C   UNL     1       3.446  -0.633   0.000  0.00  0.00    +0.253 C 
ATOM      3  O   UNL     1       4.050  -1.196   0.000  0.00  0.00    -0.272 OA
ATOM      4  N   UNL     1       3.629   0.171   0.000  0.00  0.00    -0.257 N 
ATOM      5  C   UNL     1       4.433   0.354   0.000  0.00  0.00    +0.099 C 
ATOM      6  C   UNL     1       4.792   1.096   0.000  0.00  0.00    +0.033 C 
ATOM      7  C   UNL     1       4.433   1.837   0.000  0.00  0.00    +0.054 C 
ATOM      8  S   UNL     1       3.629   2.025   0.000  0.00  0.00    -0.113 S 
ATOM      9  C   UNL     1       2.983   1.508   0.000  0.00  0.00    +0.039 A 
ATOM     10  C   UNL     1       2.271   1.921   0.000  0.00  0.00    +0.007 A 
ATOM     11  C   UNL     1       1.554   1.508   0.000  0.00  0.00    +0.001 A 
ATOM     12  C   UNL     1       1.554   0.683   0.000  0.00  0.00    +0.001 A 
ATOM     13  C   UNL     1       2.271   0.271   0.000  0.00  0.00    +0.015 A 
ATOM     14  C   UNL     1       4.950   2.483   0.000  0.00  0.00    +0.012 C 
ATOM     15  C   UNL     1       2.983   0.683   0.000  0.00  0.00    +0.059 A 
ENDBRANCH   1   2
BRANCH   1  16
ATOM     16  N   UNL     1       2.475  -1.683   0.000  0.00  0.00    -0.238 N 
ATOM     17  C   UNL     1       3.079  -2.242   0.000  0.00  0.00    +0.294 A 
ATOM     18  O   UNL     1       3.867  -2.000   0.000  0.00  0.00    -0.264 OA
ATOM     19  C   UNL     1       2.896  -3.050   0.000  0.00  0.00    +0.213 A 
ATOM     20  C   UNL     1       2.108  -3.292   0.000  0.00  0.00    +0.116 A 
ATOM     21  N   UNL     1       1.500  -2.729   0.000  0.00  0.00    -0.255 N 
ATOM     22  F   UNL     1       3.500  -3.608   0.000  0.00  0.00    -0.198 F 
ATOM     23  C   UNL     1       1.688  -1.925   0.000  0.00  0.00    +0.336 A 
ATOM     24  O   UNL     1       1.079  -1.363   0.000  0.00  0.00    -0.246 OA
BRANCH  21  25
ATOM     25  C   UNL     1       0.713  -2.975   0.000  0.00  0.00    +0.208 C 
ATOM     26  C   UNL     1       0.446  -3.754   0.000  0.00  0.00    +0.057 C 
ATOM     27  C   UNL     1      -0.379  -3.742   0.000  0.00  0.00    +0.037 C 
ATOM     28  C   UNL     1      -0.621  -2.954   0.000  0.00  0.00    +0.144 C 
ATOM     29  O   UNL     1       0.054  -2.479   0.000  0.00  0.00    -0.335 OA
ENDBRANCH  21  25
ENDBRANCH   1  16
TORSDOF 3
