REMARK  Name = 
REMARK  5 active torsions:
REMARK  status: ('A' for Active; 'I' for Inactive)
REMARK    1  A    between atoms: N_5  and  C_6
REMARK    2  A    between atoms: C_6  and  C_7
REMARK    3  A    between atoms: N_9  and  C_10
REMARK    4  A    between atoms: C_10  and  C_11
REMARK    5  A    between atoms: C_11  and  C_12
REMARK                            x       y       z     vdW  Elec       q    Type
REMARK                         _______ _______ _______ _____ _____    ______ ____
ROOT
ATOM      1  C   UNL     1       2.858  -4.125   0.000  0.00  0.00    +0.265 C 
ATOM      2  N   UNL     1       3.572  -3.712   0.000  0.00  0.00    -0.203 NA
ATOM      3  O   UNL     1       2.858  -4.950   0.000  0.00  0.00    -0.271 OA
ENDROOT
BRANCH   1   4
ATOM      4  C   UNL     1       2.143  -3.712   0.000  0.00  0.00    +0.196 C 
BRANCH   4  10
ATOM      5  C   UNL     1      -0.715  -5.362   0.000  0.00  0.00    +0.031 C 
ATOM      6  C   UNL     1       0.000  -4.950   0.000  0.00  0.00    -0.016 A 
ATOM      7  C   UNL     1       0.715  -5.362   0.000  0.00  0.00    +0.057 A 
ATOM      8  C   UNL     1       1.429  -4.950   0.000  0.00  0.00    +0.261 A 
ATOM      9  O   UNL     1       2.143  -5.362   0.000  0.00  0.00    -0.267 OA
ATOM     10  N   UNL     1       1.429  -4.125   0.000  0.00  0.00    -0.285 N 
ATOM     11  C   UNL     1       0.715  -3.712   0.000  0.00  0.00    +0.078 A 
ATOM     12  C   UNL     1       0.000  -4.125   0.000  0.00  0.00    +0.015 A 
ENDBRANCH   4  10
ENDBRANCH   1   4
BRANCH   2  13
ATOM     13  C   UNL     1       4.287  -4.125   0.000  0.00  0.00    +0.120 C 
BRANCH  13  14
ATOM     14  C   UNL     1       5.001  -3.712   0.000  0.00  0.00    +0.045 C 
BRANCH  14  15
ATOM     15  C   UNL     1       5.716  -4.125   0.000  0.00  0.00    -0.047 C 
ATOM     16  C   UNL     1       5.716  -4.950   0.000  0.00  0.00    +0.022 C 
ATOM     17  C   UNL     1       6.430  -5.362   0.000  0.00  0.00    +0.005 C 
ATOM     18  C   UNL     1       7.145  -4.950   0.000  0.00  0.00    +0.005 C 
ATOM     19  C   UNL     1       7.145  -4.125   0.000  0.00  0.00    +0.025 C 
ATOM     20  C   UNL     1       6.430  -3.712   0.000  0.00  0.00    -0.035 C 
ENDBRANCH  14  15
ENDBRANCH  13  14
ENDBRANCH   2  13
TORSDOF 5
