REMARK  Name = 
REMARK  4 active torsions:
REMARK  status: ('A' for Active; 'I' for Inactive)
REMARK    1  A    between atoms: C_12  and  N_13
REMARK    2  A    between atoms: N_16  and  C_17
REMARK    3  A    between atoms: C_17  and  C_18
REMARK    4  A    between atoms: C_17  and  C_21
REMARK                            x       y       z     vdW  Elec       q    Type
REMARK                         _______ _______ _______ _____ _____    ______ ____
ROOT
ATOM      1  C   UNL     1      -0.715  12.915   0.000  0.00  0.00    +0.034 C 
ATOM      2  C   UNL     1      -1.429  12.503   0.000  0.00  0.00    +0.135 C 
ATOM      3  O   UNL     1      -2.143  12.915   0.000  0.00  0.00    -0.355 OA
ATOM      4  C   UNL     1      -2.858  12.503   0.000  0.00  0.00    +0.135 C 
ATOM      5  C   UNL     1      -3.572  12.915   0.000  0.00  0.00    +0.034 C 
ATOM      6  C   UNL     1      -2.858  11.678   0.000  0.00  0.00    +0.122 C 
ATOM      7  N   UNL     1      -2.143  11.265   0.000  0.00  0.00    -0.288 N 
ATOM      8  C   UNL     1      -2.143  10.440   0.000  0.00  0.00    +0.132 A 
ATOM      9  N   UNL     1      -2.858  10.028   0.000  0.00  0.00    -0.228 NA
ATOM     10  C   UNL     1      -2.858   9.203   0.000  0.00  0.00    +0.117 A 
ATOM     11  C   UNL     1      -2.143   8.790   0.000  0.00  0.00    +0.094 A 
ATOM     12  C   UNL     1      -1.429   9.203   0.000  0.00  0.00    +0.021 A 
ATOM     13  C   UNL     1      -1.429  10.028   0.000  0.00  0.00    +0.036 A 
ATOM     14  C   UNL     1      -1.429  11.678   0.000  0.00  0.00    +0.122 C 
ENDROOT
BRANCH  11  15
ATOM     15  N   UNL     1      -2.143   7.965   0.000  0.00  0.00    -0.159 NA
ATOM     16  C   UNL     1      -1.429   7.553   0.000  0.00  0.00    +0.343 C 
ATOM     17  N   UNL     1      -1.429   6.728   0.000  0.00  0.00    -0.189 NA
ATOM     18  O   UNL     1      -0.715   7.965   0.000  0.00  0.00    -0.249 OA
BRANCH  17  19
ATOM     19  C   UNL     1      -0.715   6.315   0.000  0.00  0.00    +0.097 C 
BRANCH  19  20
ATOM     20  C   UNL     1       0.000   6.728   0.000  0.00  0.00    +0.020 C 
ATOM     21  C   UNL     1       0.825   6.728   0.000  0.00  0.00    +0.002 C 
ATOM     22  C   UNL     1       0.412   7.442   0.000  0.00  0.00    +0.002 C 
ENDBRANCH  19  20
BRANCH  19  23
ATOM     23  C   UNL     1      -0.715   5.490   0.000  0.00  0.00    +0.020 C 
ATOM     24  C   UNL     1      -1.127   4.776   0.000  0.00  0.00    +0.002 C 
ATOM     25  C   UNL     1      -0.302   4.776   0.000  0.00  0.00    +0.002 C 
ENDBRANCH  19  23
ENDBRANCH  17  19
ENDBRANCH  11  15
TORSDOF 4
