REMARK  Name = 
REMARK  4 active torsions:
REMARK  status: ('A' for Active; 'I' for Inactive)
REMARK    1  A    between atoms: N_9  and  C_10
REMARK    2  A    between atoms: C_10  and  C_11
REMARK    3  A    between atoms: C_11  and  C_12
REMARK    4  A    between atoms: N_14  and  C_15
REMARK                            x       y       z     vdW  Elec       q    Type
REMARK                         _______ _______ _______ _____ _____    ______ ____
ROOT
ATOM      1  C   UNL     1       2.282  -6.066   0.000  0.00  0.00    +0.061 C 
ATOM      2  C   UNL     1       2.618  -5.312   0.000  0.00  0.00    +0.113 A 
ATOM      3  S   UNL     1       3.425  -5.141   0.000  0.00  0.00    -0.033 S 
ATOM      4  C   UNL     1       3.511  -4.321   0.000  0.00  0.00    +0.209 A 
ATOM      5  N   UNL     1       4.225  -3.908   0.000  0.00  0.00    -0.134 NA
ATOM      6  C   UNL     1       4.940  -4.321   0.000  0.00  0.00    +0.345 C 
ATOM      7  N   UNL     1       5.654  -3.908   0.000  0.00  0.00    -0.186 NA
ATOM      8  O   UNL     1       4.940  -5.146   0.000  0.00  0.00    -0.249 OA
ATOM      9  N   UNL     1       2.757  -3.985   0.000  0.00  0.00    -0.124 NA
ATOM     10  N   UNL     1       2.205  -4.598   0.000  0.00  0.00    -0.144 NA
ENDROOT
BRANCH   7  11
ATOM     11  C   UNL     1       6.369  -4.321   0.000  0.00  0.00    +0.126 C 
BRANCH  11  12
ATOM     12  C   UNL     1       7.083  -3.908   0.000  0.00  0.00    +0.110 C 
BRANCH  12  13
ATOM     13  C   UNL     1       7.798  -4.321   0.000  0.00  0.00    +0.243 C 
ATOM     14  N   UNL     1       8.512  -3.908   0.000  0.00  0.00    -0.207 NA
ATOM     15  O   UNL     1       7.798  -5.146   0.000  0.00  0.00    -0.273 OA
BRANCH  14  16
ATOM     16  C   UNL     1       9.227  -4.321   0.000  0.00  0.00    +0.095 C 
ATOM     17  C   UNL     1       9.313  -5.141   0.000  0.00  0.00    +0.022 C 
ATOM     18  C   UNL     1      10.120  -5.312   0.000  0.00  0.00    +0.002 C 
ATOM     19  C   UNL     1      10.532  -4.598   0.000  0.00  0.00    +0.002 C 
ATOM     20  C   UNL     1       9.980  -3.985   0.000  0.00  0.00    +0.022 C 
ENDBRANCH  14  16
ENDBRANCH  12  13
ENDBRANCH  11  12
ENDBRANCH   7  11
TORSDOF 4
