REMARK  Name = 
REMARK  1 active torsions:
REMARK  status: ('A' for Active; 'I' for Inactive)
REMARK    1  A    between atoms: C_1  and  C_2
REMARK                            x       y       z     vdW  Elec       q    Type
REMARK                         _______ _______ _______ _____ _____    ______ ____
ROOT
ATOM      1  C   UNL     1       1.649  -0.689   0.000  0.00  0.00    +0.180 C 
ATOM      2  C   UNL     1       0.981  -1.173   0.000  0.00  0.00    +0.125 C 
ATOM      3  N   UNL     1       1.235  -1.958   0.000  0.00  0.00    -0.215 NA
ATOM      4  C   UNL     1       2.062  -1.958   0.000  0.00  0.00    +0.092 C 
ATOM      5  O   UNL     1       1.093  -0.075   0.000  0.00  0.00    -0.218 OA
ATOM      6  C   UNL     1       2.316  -1.173   0.000  0.00  0.00    +0.057 C 
ENDROOT
BRANCH   1   7
ATOM      7  C   UNL     1       2.200  -0.075   0.000  0.00  0.00    +0.111 A 
ATOM      8  C   UNL     1       2.028   0.735   0.000  0.00  0.00    +0.041 A 
ATOM      9  C   UNL     1       2.746   1.148   0.000  0.00  0.00    +0.123 A 
ATOM     10  N   UNL     1       3.360   0.597   0.000  0.00  0.00    -0.147 NA
ATOM     11  N   UNL     1       3.022  -0.159   0.000  0.00  0.00    -0.150 NA
ENDBRANCH   1   7
TORSDOF 1
