REMARK  Name = 
REMARK  6 active torsions:
REMARK  status: ('A' for Active; 'I' for Inactive)
REMARK    1  A    between atoms: C_2  and  C_3
REMARK    2  A    between atoms: C_8  and  N_9
REMARK    3  A    between atoms: N_9  and  C_10
REMARK    4  A    between atoms: C_10  and  C_11
REMARK    5  A    between atoms: C_11  and  O_12
REMARK    6  A    between atoms: O_12  and  C_13
REMARK                            x       y       z     vdW  Elec       q    Type
REMARK                         _______ _______ _______ _____ _____    ______ ____
ROOT
ATOM      1  C   UNL     1       0.883  -2.684   0.000  0.00  0.00    +0.146 C 
ENDROOT
BRANCH   1   2
ATOM      2  N   UNL     1       0.168  -3.097   0.000  0.00  0.00    -0.216 NA
BRANCH   2   4
ATOM      3  C   UNL     1      -1.261  -3.097   0.000  0.00  0.00    +0.182 A 
ATOM      4  C   UNL     1      -0.546  -2.684   0.000  0.00  0.00    +0.175 A 
ATOM      5  N   UNL     1      -0.546  -1.859   0.000  0.00  0.00    -0.224 NA
ATOM      6  C   UNL     1      -1.261  -1.447   0.000  0.00  0.00    +0.121 A 
ATOM      7  C   UNL     1      -1.975  -1.859   0.000  0.00  0.00    +0.120 A 
ATOM      8  N   UNL     1      -1.975  -2.684   0.000  0.00  0.00    -0.229 NA
BRANCH   3  10
ATOM      9  N   UNL     1      -1.261  -4.747   0.000  0.00  0.00    -0.189 NA
ATOM     10  C   UNL     1      -1.261  -3.922   0.000  0.00  0.00    +0.123 C 
ENDBRANCH   3  10
ENDBRANCH   2   4
ENDBRANCH   1   2
BRANCH   1  11
ATOM     11  C   UNL     1       1.597  -3.097   0.000  0.00  0.00    +0.165 C 
BRANCH  11  12
ATOM     12  O   UNL     1       2.312  -2.684   0.000  0.00  0.00    -0.354 OA
BRANCH  12  13
ATOM     13  C   UNL     1       3.026  -3.097   0.000  0.00  0.00    +0.115 C 
ATOM     14  C   UNL     1       2.964  -3.919   0.000  0.00  0.00    +0.030 C 
ATOM     15  C   UNL     1       3.569  -4.481   0.000  0.00  0.00    +0.002 C 
ATOM     16  C   UNL     1       4.385  -4.357   0.000  0.00  0.00    +0.000 C 
ATOM     17  C   UNL     1       4.797  -3.643   0.000  0.00  0.00    +0.000 C 
ATOM     18  C   UNL     1       4.496  -2.875   0.000  0.00  0.00    +0.002 C 
ATOM     19  C   UNL     1       3.708  -2.632   0.000  0.00  0.00    +0.030 C 
ENDBRANCH  12  13
ENDBRANCH  11  12
ENDBRANCH   1  11
TORSDOF 6
