REMARK  Name = 
REMARK  4 active torsions:
REMARK  status: ('A' for Active; 'I' for Inactive)
REMARK    1  A    between atoms: C_2  and  C_11
REMARK    2  A    between atoms: N_3  and  C_4
REMARK    3  A    between atoms: C_4  and  C_5
REMARK    4  A    between atoms: C_5  and  N_6
REMARK                            x       y       z     vdW  Elec       q    Type
REMARK                         _______ _______ _______ _____ _____    ______ ____
ROOT
ATOM      1  O   UNL     1       0.715  -2.888   0.000  0.00  0.00    -0.273 OA
ATOM      2  C   UNL     1       0.715  -2.062   0.000  0.00  0.00    +0.241 C 
ATOM      3  N   UNL     1       1.429  -1.650   0.000  0.00  0.00    -0.203 NA
ENDROOT
BRANCH   2   4
ATOM      4  C   UNL     1       0.000  -1.650   0.000  0.00  0.00    +0.083 C 
ATOM      5  C   UNL     1       0.000  -0.825   0.000  0.00  0.00    +0.035 C 
ATOM      6  C   UNL     1      -0.715  -0.412   0.000  0.00  0.00    -0.030 C 
ATOM      7  C   UNL     1      -1.429  -0.825   0.000  0.00  0.00    -0.031 C 
ATOM      8  C   UNL     1      -1.429  -1.650   0.000  0.00  0.00    +0.026 C 
ATOM      9  C   UNL     1      -0.715  -2.062   0.000  0.00  0.00    +0.014 C 
ENDBRANCH   2   4
BRANCH   3  10
ATOM     10  C   UNL     1       2.143  -2.062   0.000  0.00  0.00    +0.140 C 
BRANCH  10  11
ATOM     11  C   UNL     1       2.858  -1.650   0.000  0.00  0.00    +0.131 C 
BRANCH  11  12
ATOM     12  N   UNL     1       3.572  -2.062   0.000  0.00  0.00    -0.306 N 
ATOM     13  C   UNL     1       3.659  -2.883   0.000  0.00  0.00    +0.179 A 
ATOM     14  N   UNL     1       4.466  -3.054   0.000  0.00  0.00    -0.222 NA
ATOM     15  C   UNL     1       4.878  -2.340   0.000  0.00  0.00    +0.119 A 
ATOM     16  C   UNL     1       4.326  -1.727   0.000  0.00  0.00    +0.098 A 
ENDBRANCH  11  12
ENDBRANCH  10  11
ENDBRANCH   3  10
TORSDOF 4
