REMARK  Name = 
REMARK  5 active torsions:
REMARK  status: ('A' for Active; 'I' for Inactive)
REMARK    1  A    between atoms: C_2  and  C_3
REMARK    2  A    between atoms: C_3  and  N_4
REMARK    3  A    between atoms: C_5  and  C_7
REMARK    4  A    between atoms: N_11  and  C_12
REMARK    5  A    between atoms: C_12  and  C_13
REMARK                            x       y       z     vdW  Elec       q    Type
REMARK                         _______ _______ _______ _____ _____    ______ ____
ROOT
ATOM      1  C   UNL     1       5.001  -7.838   0.000  0.00  0.00    +0.074 A 
ATOM      2  C   UNL     1       5.001  -8.662   0.000  0.00  0.00    +0.105 A 
ATOM      3  N   UNL     1       5.716  -9.075   0.000  0.00  0.00    -0.228 NA
ATOM      4  C   UNL     1       6.430  -8.662   0.000  0.00  0.00    +0.148 A 
ATOM      5  N   UNL     1       7.145  -9.075   0.000  0.00  0.00    -0.218 NA
ATOM      6  C   UNL     1       6.430  -7.838   0.000  0.00  0.00    +0.036 A 
ATOM      7  C   UNL     1       5.716  -7.425   0.000  0.00  0.00    +0.009 A 
ENDROOT
BRANCH   1   9
ATOM      8  N   UNL     1       3.572  -7.838   0.000  0.00  0.00    -0.197 NA
ATOM      9  C   UNL     1       4.287  -7.425   0.000  0.00  0.00    +0.267 C 
ATOM     10  O   UNL     1       4.287  -6.600   0.000  0.00  0.00    -0.268 OA
BRANCH   8  11
ATOM     11  C   UNL     1       2.858  -7.425   0.000  0.00  0.00    +0.142 C 
BRANCH  11  13
ATOM     12  C   UNL     1       1.429  -7.425   0.000  0.00  0.00    -0.003 C 
ATOM     13  C   UNL     1       2.143  -7.838   0.000  0.00  0.00    -0.003 C 
ENDBRANCH  11  13
ENDBRANCH   8  11
ENDBRANCH   1   9
BRANCH   5  14
ATOM     14  C   UNL     1       7.859  -8.662   0.000  0.00  0.00    +0.145 C 
BRANCH  14  15
ATOM     15  C   UNL     1       8.574  -9.075   0.000  0.00  0.00    +0.153 C 
ATOM     16  O   UNL     1       8.574  -9.900   0.000  0.00  0.00    -0.352 OA
ATOM     17  C   UNL     1       9.288 -10.312   0.000  0.00  0.00    +0.158 C 
ATOM     18  C   UNL     1      10.003  -9.900   0.000  0.00  0.00    +0.087 C 
ATOM     19  N   UNL     1      10.003  -9.075   0.000  0.00  0.00    -0.270 NA
ATOM     20  C   UNL     1      10.717  -8.662   0.000  0.00  0.00    +0.072 C 
ATOM     21  C   UNL     1      11.431  -9.075   0.000  0.00  0.00    +0.017 C 
ATOM     22  C   UNL     1      11.431  -9.900   0.000  0.00  0.00    +0.003 C 
ATOM     23  C   UNL     1      10.717 -10.312   0.000  0.00  0.00    +0.019 C 
ATOM     24  C   UNL     1       9.288  -8.662   0.000  0.00  0.00    +0.104 C 
ENDBRANCH  14  15
ENDBRANCH   5  14
TORSDOF 5
