REMARK  Name = 
REMARK  7 active torsions:
REMARK  status: ('A' for Active; 'I' for Inactive)
REMARK    1  A    between atoms: C_2  and  O_3
REMARK    2  A    between atoms: O_3  and  C_4
REMARK    3  A    between atoms: C_4  and  C_5
REMARK    4  A    between atoms: C_5  and  N_6
REMARK    5  A    between atoms: C_7  and  C_8
REMARK    6  A    between atoms: C_8  and  N_9
REMARK    7  A    between atoms: C_10  and  C_12
REMARK                            x       y       z     vdW  Elec       q    Type
REMARK                         _______ _______ _______ _____ _____    ______ ____
ROOT
ATOM      1  N   UNL     1       6.054   0.163   0.000  0.00  0.00    -0.311 N 
ATOM      2  C   UNL     1       6.141  -0.657   0.000  0.00  0.00    +0.079 A 
ATOM      3  C   UNL     1       6.947  -0.829   0.000  0.00  0.00    +0.098 A 
ATOM      4  C   UNL     1       7.202  -1.613   0.000  0.00  0.00    +0.021 A 
ATOM      5  C   UNL     1       6.650  -2.227   0.000  0.00  0.00    +0.002 A 
ATOM      6  C   UNL     1       5.843  -2.055   0.000  0.00  0.00    +0.002 A 
ATOM      7  N   UNL     1       7.360  -0.114   0.000  0.00  0.00    -0.229 NA
ATOM      8  C   UNL     1       5.588  -1.270   0.000  0.00  0.00    +0.019 A 
ATOM      9  C   UNL     1       6.808   0.499   0.000  0.00  0.00    +0.143 A 
ENDROOT
BRANCH   1  10
ATOM     10  C   UNL     1       5.340   0.576   0.000  0.00  0.00    +0.139 C 
BRANCH  10  11
ATOM     11  C   UNL     1       4.625   0.163   0.000  0.00  0.00    +0.167 C 
BRANCH  11  12
ATOM     12  O   UNL     1       3.911   0.576   0.000  0.00  0.00    -0.352 OA
BRANCH  12  14
ATOM     13  C   UNL     1       2.482   0.576   0.000  0.00  0.00    +0.035 C 
ATOM     14  C   UNL     1       3.196   0.163   0.000  0.00  0.00    +0.142 C 
ENDBRANCH  12  14
ENDBRANCH  11  12
ENDBRANCH  10  11
ENDBRANCH   1  10
BRANCH   9  15
ATOM     15  C   UNL     1       6.979   1.306   0.000  0.00  0.00    +0.179 C 
BRANCH  15  16
ATOM     16  N   UNL     1       7.764   1.561   0.000  0.00  0.00    -0.191 NA
ATOM     17  C   UNL     1       7.936   2.368   0.000  0.00  0.00    +0.300 C 
ATOM     18  O   UNL     1       7.323   2.920   0.000  0.00  0.00    -0.265 OA
BRANCH  17  19
ATOM     19  C   UNL     1       8.720   2.623   0.000  0.00  0.00    +0.200 A 
ATOM     20  O   UNL     1       9.388   2.138   0.000  0.00  0.00    -0.446 OA
ATOM     21  C   UNL     1      10.055   2.623   0.000  0.00  0.00    +0.180 A 
ATOM     22  C   UNL     1       9.800   3.407   0.000  0.00  0.00    +0.044 A 
ATOM     23  C   UNL     1       8.975   3.407   0.000  0.00  0.00    +0.046 A 
ENDBRANCH  17  19
ENDBRANCH  15  16
ENDBRANCH   9  15
TORSDOF 7
