REMARK  Name = 
REMARK  5 active torsions:
REMARK  status: ('A' for Active; 'I' for Inactive)
REMARK    1  A    between atoms: S_2  and  C_5
REMARK    2  A    between atoms: C_8  and  N_9
REMARK    3  A    between atoms: N_12  and  C_13
REMARK    4  A    between atoms: C_13  and  C_14
REMARK    5  A    between atoms: C_13  and  C_17
REMARK                            x       y       z     vdW  Elec       q    Type
REMARK                         _______ _______ _______ _____ _____    ______ ____
ROOT
ATOM      1  N   UNL     1      -0.715   2.062   0.000  0.00  0.00    -0.159 NA
ATOM      2  C   UNL     1       0.000   2.475   0.000  0.00  0.00    +0.343 C 
ATOM      3  N   UNL     1       0.715   2.062   0.000  0.00  0.00    -0.189 NA
ATOM      4  O   UNL     1       0.000   3.300   0.000  0.00  0.00    -0.249 OA
ENDROOT
BRANCH   1   8
ATOM      5  C   UNL     1      -2.858   3.300   0.000  0.00  0.00    +0.186 A 
ATOM      6  N   UNL     1      -2.858   2.475   0.000  0.00  0.00    -0.224 NA
ATOM      7  C   UNL     1      -2.143   2.062   0.000  0.00  0.00    +0.117 A 
ATOM      8  C   UNL     1      -1.429   2.475   0.000  0.00  0.00    +0.094 A 
ATOM      9  C   UNL     1      -1.429   3.300   0.000  0.00  0.00    +0.021 A 
ATOM     10  C   UNL     1      -2.143   3.712   0.000  0.00  0.00    +0.039 A 
BRANCH   5  12
ATOM     11  C   UNL     1      -4.287   4.125   0.000  0.00  0.00    +0.183 C 
ATOM     12  S   UNL     1      -3.572   3.712   0.000  0.00  0.00    +0.027 S 
ATOM     13  O   UNL     1      -3.160   4.427   0.000  0.00  0.00    -0.167 OA
ATOM     14  O   UNL     1      -3.985   2.998   0.000  0.00  0.00    -0.167 OA
ENDBRANCH   5  12
ENDBRANCH   1   8
BRANCH   3  15
ATOM     15  C   UNL     1       1.429   2.475   0.000  0.00  0.00    +0.097 C 
BRANCH  15  16
ATOM     16  C   UNL     1       1.429   3.300   0.000  0.00  0.00    +0.020 C 
ATOM     17  C   UNL     1       1.841   4.014   0.000  0.00  0.00    +0.002 C 
ATOM     18  C   UNL     1       1.016   4.014   0.000  0.00  0.00    +0.002 C 
ENDBRANCH  15  16
BRANCH  15  19
ATOM     19  C   UNL     1       2.143   2.062   0.000  0.00  0.00    +0.020 C 
ATOM     20  C   UNL     1       2.556   1.348   0.000  0.00  0.00    +0.002 C 
ATOM     21  C   UNL     1       2.968   2.062   0.000  0.00  0.00    +0.002 C 
ENDBRANCH  15  19
ENDBRANCH   3  15
TORSDOF 5
