REMARK  Name = 
REMARK  3 active torsions:
REMARK  status: ('A' for Active; 'I' for Inactive)
REMARK    1  A    between atoms: N_2  and  C_16
REMARK    2  A    between atoms: C_15  and  C_16
REMARK    3  A    between atoms: C_15  and  C_27
REMARK                            x       y       z     vdW  Elec       q    Type
REMARK                         _______ _______ _______ _____ _____    ______ ____
ROOT
ATOM      1  C   UNL     1       4.150  -0.300   0.000  0.00  0.00    +0.149 A 
ATOM      2  C   UNL     1       3.738   0.412   0.000  0.00  0.00    +0.154 A 
ATOM      3  N   UNL     1       4.150   1.128   0.000  0.00  0.00    -0.207 NA
ATOM      4  C   UNL     1       4.974   1.128   0.000  0.00  0.00    +0.201 A 
ATOM      5  N   UNL     1       5.386   0.412   0.000  0.00  0.00    -0.205 NA
ATOM      6  N   UNL     1       2.914   0.412   0.000  0.00  0.00    -0.292 N 
ATOM      7  C   UNL     1       2.502   1.128   0.000  0.00  0.00    +0.094 C 
ATOM      8  C   UNL     1       1.677   1.128   0.000  0.00  0.00    +0.050 C 
ATOM      9  C   UNL     1       1.265   0.412   0.000  0.00  0.00    +0.154 C 
ATOM     10  C   UNL     1       1.677  -0.300   0.000  0.00  0.00    +0.050 C 
ATOM     11  N   UNL     1       0.782  -0.254   0.000  0.00  0.00    -0.181 NA
ATOM     12  C   UNL     1       0.000   0.000   0.000  0.00  0.00    +0.346 C 
ATOM     13  N   UNL     1       0.000   0.824   0.000  0.00  0.00    -0.125 NA
ATOM     14  O   UNL     1      -0.670  -0.483   0.000  0.00  0.00    -0.249 OA
ATOM     15  C   UNL     1       0.782   1.082   0.000  0.00  0.00    +0.267 C 
ATOM     16  O   UNL     1       1.036   1.865   0.000  0.00  0.00    -0.271 OA
ATOM     17  C   UNL     1       2.502  -0.300   0.000  0.00  0.00    +0.094 C 
ATOM     18  N   UNL     1       3.896  -1.082   0.000  0.00  0.00    -0.219 NA
ATOM     19  C   UNL     1       4.562  -1.569   0.000  0.00  0.00    +0.180 A 
ATOM     20  N   UNL     1       5.228  -1.082   0.000  0.00  0.00    -0.294 N 
ATOM     21  C   UNL     1       4.974  -0.300   0.000  0.00  0.00    +0.167 A 
ENDROOT
BRANCH  20  22
ATOM     22  C   UNL     1       6.015  -1.336   0.000  0.00  0.00    +0.116 C 
BRANCH  22  23
ATOM     23  C   UNL     1       6.185  -2.144   0.000  0.00  0.00    +0.106 C 
ATOM     24  C   UNL     1       5.378  -2.314   0.000  0.00  0.00    +0.149 C 
ATOM     25  O   UNL     1       5.549  -3.122   0.000  0.00  0.00    -0.353 OA
ATOM     26  C   UNL     1       6.356  -2.951   0.000  0.00  0.00    +0.149 C 
BRANCH  23  27
ATOM     27  C   UNL     1       6.993  -1.973   0.000  0.00  0.00    +0.189 C 
ATOM     28  O   UNL     1       7.247  -1.190   0.000  0.00  0.00    -0.220 OA
ENDBRANCH  23  27
ENDBRANCH  22  23
ENDBRANCH  20  22
TORSDOF 3
