REMARK  Name = 
REMARK  3 active torsions:
REMARK  status: ('A' for Active; 'I' for Inactive)
REMARK    1  A    between atoms: C_4  and  C_6
REMARK    2  A    between atoms: C_6  and  C_7
REMARK    3  A    between atoms: C_7  and  N_8
REMARK                            x       y       z     vdW  Elec       q    Type
REMARK                         _______ _______ _______ _____ _____    ______ ____
ROOT
ATOM      1  C   UNL     1       1.387  -2.408   0.000  0.00  0.00    +0.125 C 
ENDROOT
BRANCH   1   2
ATOM      2  N   UNL     1       2.102  -1.996   0.000  0.00  0.00    -0.186 NA
ATOM      3  C   UNL     1       2.816  -2.408   0.000  0.00  0.00    +0.347 C 
ATOM      4  N   UNL     1       3.530  -1.996   0.000  0.00  0.00    -0.107 NA
ATOM      5  C   UNL     1       4.245  -2.408   0.000  0.00  0.00    +0.342 A 
ATOM      6  O   UNL     1       4.331  -3.229   0.000  0.00  0.00    -0.315 OA
ATOM      7  N   UNL     1       5.138  -3.400   0.000  0.00  0.00    -0.058 NA
ATOM      8  C   UNL     1       5.551  -2.686   0.000  0.00  0.00    +0.183 A 
ATOM      9  C   UNL     1       6.371  -2.599   0.000  0.00  0.00    +0.077 C 
ATOM     10  N   UNL     1       4.999  -2.073   0.000  0.00  0.00    -0.176 NA
ATOM     11  O   UNL     1       2.816  -3.233   0.000  0.00  0.00    -0.249 OA
ENDBRANCH   1   2
BRANCH   1  12
ATOM     12  C   UNL     1       0.672  -1.996   0.000  0.00  0.00    +0.089 C 
ATOM     13  C   UNL     1       1.157  -1.328   0.000  0.00  0.00    +0.010 C 
ATOM     14  C   UNL     1       0.672  -0.661   0.000  0.00  0.00    +0.001 C 
ATOM     15  C   UNL     1      -0.112  -0.916   0.000  0.00  0.00    +0.001 C 
ATOM     16  C   UNL     1      -0.112  -1.741   0.000  0.00  0.00    +0.010 C 
BRANCH  12  19
ATOM     17  C   UNL     1      -0.968  -2.168   0.000  0.00  0.00    +0.115 C 
ATOM     18  N   UNL     1      -0.483  -2.836   0.000  0.00  0.00    -0.276 N 
ATOM     19  C   UNL     1       0.337  -2.749   0.000  0.00  0.00    +0.226 C 
ATOM     20  O   UNL     1       0.822  -3.417   0.000  0.00  0.00    -0.275 OA
ATOM     21  C   UNL     1      -0.819  -3.589   0.000  0.00  0.00    +0.115 C 
ENDBRANCH  12  19
ENDBRANCH   1  12
TORSDOF 3
