REMARK  Name = 
REMARK  4 active torsions:
REMARK  status: ('A' for Active; 'I' for Inactive)
REMARK    1  A    between atoms: C_1  and  C_2
REMARK    2  A    between atoms: C_1  and  N_8
REMARK    3  A    between atoms: C_2  and  N_3
REMARK    4  A    between atoms: N_8  and  C_9
REMARK                            x       y       z     vdW  Elec       q    Type
REMARK                         _______ _______ _______ _____ _____    ______ ____
ROOT
ATOM      1  N   UNL     1       2.716  -0.958   0.000  0.00  0.00    -0.217 NA
ENDROOT
BRANCH   1   2
ATOM      2  C   UNL     1       3.431  -0.546   0.000  0.00  0.00    +0.073 C 
ATOM      3  C   UNL     1       4.112  -1.011   0.000  0.00  0.00    +0.017 C 
ATOM      4  C   UNL     1       4.901  -0.767   0.000  0.00  0.00    +0.001 C 
ATOM      5  C   UNL     1       5.202   0.001   0.000  0.00  0.00    +0.000 C 
ATOM      6  C   UNL     1       4.790   0.715   0.000  0.00  0.00    +0.000 C 
ATOM      7  C   UNL     1       3.974   0.838   0.000  0.00  0.00    +0.001 C 
ATOM      8  C   UNL     1       3.369   0.277   0.000  0.00  0.00    +0.017 C 
ENDBRANCH   1   2
BRANCH   1   9
ATOM      9  C   UNL     1       2.716  -1.783   0.000  0.00  0.00    +0.115 C 
BRANCH   9  10
ATOM     10  C   UNL     1       2.002  -2.196   0.000  0.00  0.00    +0.146 C 
BRANCH  10  11
ATOM     11  N   UNL     1       2.002  -3.021   0.000  0.00  0.00    -0.248 N 
ATOM     12  N   UNL     1       1.334  -3.506   0.000  0.00  0.00    -0.168 NA
ATOM     13  C   UNL     1       1.589  -4.290   0.000  0.00  0.00    +0.122 A 
ATOM     14  C   UNL     1       2.414  -4.290   0.000  0.00  0.00    +0.043 A 
ATOM     15  C   UNL     1       2.669  -3.506   0.000  0.00  0.00    +0.097 A 
ENDBRANCH  10  11
ENDBRANCH   9  10
ENDBRANCH   1   9
TORSDOF 4
