REMARK  Name = 
REMARK  4 active torsions:
REMARK  status: ('A' for Active; 'I' for Inactive)
REMARK    1  A    between atoms: N_7  and  C_8
REMARK    2  A    between atoms: C_8  and  C_9
REMARK    3  A    between atoms: C_9  and  N_10
REMARK    4  A    between atoms: N_10  and  C_11
REMARK                            x       y       z     vdW  Elec       q    Type
REMARK                         _______ _______ _______ _____ _____    ______ ____
ROOT
ATOM      1  C   UNL     1       1.128  -1.960   0.000  0.00  0.00    +0.113 C 
ENDROOT
BRANCH   1   2
ATOM      2  C   UNL     1       1.299  -2.767   0.000  0.00  0.00    +0.128 C 
BRANCH   2   5
ATOM      3  C   UNL     1       2.751  -1.712   0.000  0.00  0.00    +0.051 C 
ATOM      4  C   UNL     1       2.751  -2.537   0.000  0.00  0.00    +0.047 A 
ATOM      5  N   UNL     1       2.084  -3.022   0.000  0.00  0.00    -0.292 N 
ATOM      6  C   UNL     1       2.339  -3.806   0.000  0.00  0.00    +0.292 A 
ATOM      7  O   UNL     1       1.854  -4.474   0.000  0.00  0.00    -0.259 OA
ATOM      8  S   UNL     1       3.164  -3.806   0.000  0.00  0.00    -0.026 S 
ATOM      9  C   UNL     1       3.419  -3.022   0.000  0.00  0.00    +0.053 A 
ENDBRANCH   2   5
ENDBRANCH   1   2
BRANCH   1  10
ATOM     10  N   UNL     1       0.343  -1.705   0.000  0.00  0.00    -0.217 NA
BRANCH  10  11
ATOM     11  C   UNL     1       0.171  -0.898   0.000  0.00  0.00    +0.073 C 
ATOM     12  C   UNL     1       0.784  -0.346   0.000  0.00  0.00    +0.015 C 
ATOM     13  C   UNL     1       1.358  -0.939   0.000  0.00  0.00    +0.001 C 
ATOM     14  C   UNL     1       1.597  -0.202   0.000  0.00  0.00    +0.001 C 
ATOM     15  C   UNL     1       0.613   0.461   0.000  0.00  0.00    +0.001 C 
ATOM     16  C   UNL     1      -0.172   0.716   0.000  0.00  0.00    +0.000 C 
ATOM     17  C   UNL     1      -0.785   0.164   0.000  0.00  0.00    +0.001 C 
ATOM     18  C   UNL     1      -0.613  -0.643   0.000  0.00  0.00    +0.017 C 
ENDBRANCH  10  11
ENDBRANCH   1  10
TORSDOF 4
