REMARK  Name = 
REMARK  7 active torsions:
REMARK  status: ('A' for Active; 'I' for Inactive)
REMARK    1  A    between atoms: C_2  and  C_3
REMARK    2  A    between atoms: C_2  and  N_10
REMARK    3  A    between atoms: C_3  and  N_4
REMARK    4  A    between atoms: N_10  and  C_11
REMARK    5  A    between atoms: C_11  and  C_12
REMARK    6  A    between atoms: C_12  and  C_13
REMARK    7  A    between atoms: C_13  and  S_14
REMARK                            x       y       z     vdW  Elec       q    Type
REMARK                         _______ _______ _______ _____ _____    ______ ____
ROOT
ATOM      1  C   UNL     1       0.487  -2.478   0.000  0.00  0.00    +0.021 C 
ATOM      2  C   UNL     1       0.487  -1.653   0.000  0.00  0.00    +0.097 C 
ENDROOT
BRANCH   2   3
ATOM      3  N   UNL     1       1.202  -1.240   0.000  0.00  0.00    -0.217 NA
BRANCH   3   4
ATOM      4  C   UNL     1       1.917  -1.653   0.000  0.00  0.00    +0.091 C 
BRANCH   4   5
ATOM      5  C   UNL     1       2.631  -1.240   0.000  0.00  0.00    +0.046 C 
BRANCH   5   6
ATOM      6  C   UNL     1       3.345  -1.653   0.000  0.00  0.00    +0.174 C 
BRANCH   6   7
ATOM      7  S   UNL     1       4.060  -1.240   0.000  0.00  0.00    +0.074 S 
ATOM      8  N   UNL     1       3.647  -0.526   0.000  0.00  0.00    +0.035 NA
ATOM      9  O   UNL     1       4.472  -1.955   0.000  0.00  0.00    -0.155 OA
ATOM     10  O   UNL     1       4.774  -0.828   0.000  0.00  0.00    -0.155 OA
ENDBRANCH   6   7
ENDBRANCH   5   6
ENDBRANCH   4   5
ENDBRANCH   3   4
ENDBRANCH   2   3
BRANCH   2  11
ATOM     11  C   UNL     1      -0.227  -1.240   0.000  0.00  0.00    +0.145 C 
BRANCH  11  12
ATOM     12  N   UNL     1      -0.941  -1.653   0.000  0.00  0.00    -0.248 N 
ATOM     13  N   UNL     1      -1.695  -1.317   0.000  0.00  0.00    -0.168 NA
ATOM     14  C   UNL     1      -2.247  -1.930   0.000  0.00  0.00    +0.117 A 
ATOM     15  C   UNL     1      -1.835  -2.645   0.000  0.00  0.00    +0.018 A 
ATOM     16  C   UNL     1      -2.170  -3.398   0.000  0.00  0.00    +0.034 C 
ATOM     17  C   UNL     1      -1.028  -2.473   0.000  0.00  0.00    +0.092 A 
ENDBRANCH  11  12
ENDBRANCH   2  11
TORSDOF 7
