REMARK  Name = 
REMARK  5 active torsions:
REMARK  status: ('A' for Active; 'I' for Inactive)
REMARK    1  A    between atoms: C_5  and  O_6
REMARK    2  A    between atoms: O_6  and  C_7
REMARK    3  A    between atoms: C_7  and  C_8
REMARK    4  A    between atoms: C_8  and  C_10
REMARK    5  A    between atoms: C_10  and  N_11
REMARK                            x       y       z     vdW  Elec       q    Type
REMARK                         _______ _______ _______ _____ _____    ______ ____
ROOT
ATOM      1  C   UNL     1       5.637  -0.822   0.000  0.00  0.00    +0.164 C 
ENDROOT
BRANCH   1   2
ATOM      2  N   UNL     1       6.351  -0.410   0.000  0.00  0.00    -0.243 N 
ATOM      3  C   UNL     1       7.105  -0.745   0.000  0.00  0.00    +0.138 A 
ATOM      4  C   UNL     1       7.657  -0.132   0.000  0.00  0.00    +0.064 A 
ATOM      5  C   UNL     1       8.464  -0.304   0.000  0.00  0.00    +0.123 A 
ATOM      6  N   UNL     1       8.719  -1.088   0.000  0.00  0.00    -0.165 NA
ATOM      7  N   UNL     1       8.167  -1.701   0.000  0.00  0.00    -0.213 N 
ATOM      8  C   UNL     1       8.422  -2.486   0.000  0.00  0.00    +0.157 C 
ATOM      9  C   UNL     1       7.245   0.582   0.000  0.00  0.00    +0.123 A 
ATOM     10  C   UNL     1       7.360  -1.530   0.000  0.00  0.00    +0.294 A 
ATOM     11  O   UNL     1       6.808  -2.143   0.000  0.00  0.00    -0.264 OA
ATOM     12  N   UNL     1       6.438   0.411   0.000  0.00  0.00    -0.167 NA
ENDBRANCH   1   2
BRANCH   1  13
ATOM     13  C   UNL     1       4.923  -0.410   0.000  0.00  0.00    +0.220 C 
ATOM     14  O   UNL     1       4.923   0.415   0.000  0.00  0.00    -0.217 OA
BRANCH  13  15
ATOM     15  C   UNL     1       4.208  -0.822   0.000  0.00  0.00    +0.240 C 
BRANCH  15  16
ATOM     16  O   UNL     1       3.494  -0.410   0.000  0.00  0.00    -0.473 OA
BRANCH  16  21
ATOM     17  C   UNL     1       0.636  -2.060   0.000  0.00  0.00    +0.031 C 
ATOM     18  C   UNL     1       1.350  -1.647   0.000  0.00  0.00    -0.022 A 
ATOM     19  C   UNL     1       2.065  -2.060   0.000  0.00  0.00    -0.001 A 
ATOM     20  C   UNL     1       2.779  -1.647   0.000  0.00  0.00    +0.037 A 
ATOM     21  C   UNL     1       2.779  -0.822   0.000  0.00  0.00    +0.139 A 
ATOM     22  C   UNL     1       2.065  -0.410   0.000  0.00  0.00    +0.037 A 
ATOM     23  C   UNL     1       1.350  -0.822   0.000  0.00  0.00    -0.001 A 
ENDBRANCH  16  21
ENDBRANCH  15  16
ENDBRANCH  13  15
ENDBRANCH   1  13
TORSDOF 5
