REMARK  Name = 
REMARK  5 active torsions:
REMARK  status: ('A' for Active; 'I' for Inactive)
REMARK    1  A    between atoms: C_2  and  N_3
REMARK    2  A    between atoms: C_2  and  C_16
REMARK    3  A    between atoms: N_6  and  C_7
REMARK    4  A    between atoms: C_7  and  C_8
REMARK    5  A    between atoms: C_8  and  C_9
REMARK                            x       y       z     vdW  Elec       q    Type
REMARK                         _______ _______ _______ _____ _____    ______ ____
ROOT
ATOM      1  N   UNL     1       5.716  -4.950   0.000  0.00  0.00    -0.180 NA
ATOM      2  C   UNL     1       5.001  -5.362   0.000  0.00  0.00    +0.340 C 
ATOM      3  N   UNL     1       4.287  -4.950   0.000  0.00  0.00    -0.187 NA
ATOM      4  O   UNL     1       5.001  -6.188   0.000  0.00  0.00    -0.249 OA
ENDROOT
BRANCH   1   6
ATOM      5  C   UNL     1       6.430  -6.188   0.000  0.00  0.00    +0.033 C 
ATOM      6  C   UNL     1       6.430  -5.362   0.000  0.00  0.00    +0.173 C 
BRANCH   6   7
ATOM      7  C   UNL     1       7.145  -4.950   0.000  0.00  0.00    +0.245 C 
ATOM      8  N   UNL     1       7.859  -5.362   0.000  0.00  0.00    -0.280 N 
ATOM      9  C   UNL     1       7.859  -6.188   0.000  0.00  0.00    +0.075 C 
ATOM     10  C   UNL     1       7.145  -6.600   0.000  0.00  0.00    +0.022 C 
ATOM     11  C   UNL     1       8.574  -6.600   0.000  0.00  0.00    +0.020 C 
ATOM     12  C   UNL     1       9.288  -6.188   0.000  0.00  0.00    +0.003 C 
ATOM     13  C   UNL     1       9.288  -5.362   0.000  0.00  0.00    +0.022 C 
ATOM     14  C   UNL     1       8.574  -4.950   0.000  0.00  0.00    +0.093 C 
ATOM     15  O   UNL     1       7.145  -4.125   0.000  0.00  0.00    -0.273 OA
ENDBRANCH   6   7
ENDBRANCH   1   6
BRANCH   3  16
ATOM     16  C   UNL     1       3.572  -5.362   0.000  0.00  0.00    +0.121 C 
BRANCH  16  17
ATOM     17  C   UNL     1       2.858  -4.950   0.000  0.00  0.00    +0.050 C 
BRANCH  17  18
ATOM     18  C   UNL     1       2.143  -5.362   0.000  0.00  0.00    -0.021 A 
ATOM     19  C   UNL     1       1.429  -4.950   0.000  0.00  0.00    -0.007 A 
ATOM     20  C   UNL     1       1.429  -4.125   0.000  0.00  0.00    +0.032 C 
ATOM     21  C   UNL     1       0.715  -5.362   0.000  0.00  0.00    +0.094 A 
ATOM     22  N   UNL     1       0.715  -6.188   0.000  0.00  0.00    -0.243 NA
ATOM     23  C   UNL     1       1.429  -6.600   0.000  0.00  0.00    +0.099 A 
ATOM     24  C   UNL     1       2.143  -6.188   0.000  0.00  0.00    +0.016 A 
ENDBRANCH  17  18
ENDBRANCH  16  17
ENDBRANCH   3  16
TORSDOF 5
