REMARK  Name = 
REMARK  4 active torsions:
REMARK  status: ('A' for Active; 'I' for Inactive)
REMARK    1  A    between atoms: C_2  and  C_7
REMARK    2  A    between atoms: N_9  and  S_10
REMARK    3  A    between atoms: S_10  and  C_13
REMARK    4  A    between atoms: C_13  and  C_14
REMARK                            x       y       z     vdW  Elec       q    Type
REMARK                         _______ _______ _______ _____ _____    ______ ____
ROOT
ATOM      1  C   UNL     1       4.875  -0.673   0.000  0.00  0.00    +0.286 C 
ATOM      2  N   UNL     1       5.682  -0.845   0.000  0.00  0.00    -0.060 NA
ATOM      3  O   UNL     1       4.620   0.112   0.000  0.00  0.00    -0.269 OA
ENDROOT
BRANCH   1   5
ATOM      4  C   UNL     1       3.771  -0.673   0.000  0.00  0.00    +0.039 C 
ATOM      5  C   UNL     1       4.323  -1.286   0.000  0.00  0.00    +0.164 C 
ATOM      6  O   UNL     1       3.656  -1.771   0.000  0.00  0.00    -0.350 OA
ATOM      7  C   UNL     1       3.911  -2.556   0.000  0.00  0.00    +0.143 C 
ATOM      8  C   UNL     1       4.736  -2.556   0.000  0.00  0.00    +0.035 C 
ATOM      9  C   UNL     1       4.991  -1.771   0.000  0.00  0.00    +0.039 C 
ENDBRANCH   1   5
BRANCH   2  10
ATOM     10  S   UNL     1       6.234  -0.231   0.000  0.00  0.00    +0.082 S 
ATOM     11  O   UNL     1       5.621   0.321   0.000  0.00  0.00    -0.152 OA
ATOM     12  O   UNL     1       6.847  -0.783   0.000  0.00  0.00    -0.152 OA
BRANCH  10  13
ATOM     13  C   UNL     1       6.786   0.382   0.000  0.00  0.00    +0.223 C 
BRANCH  13  14
ATOM     14  C   UNL     1       7.593   0.210   0.000  0.00  0.00    +0.127 A 
ATOM     15  N   UNL     1       7.929  -0.543   0.000  0.00  0.00    -0.079 NA
ATOM     16  O   UNL     1       8.749  -0.457   0.000  0.00  0.00    -0.350 OA
ATOM     17  C   UNL     1       8.921   0.350   0.000  0.00  0.00    +0.214 A 
ATOM     18  C   UNL     1       8.206   0.762   0.000  0.00  0.00    +0.063 A 
ENDBRANCH  13  14
ENDBRANCH  10  13
ENDBRANCH   2  10
TORSDOF 4
