REMARK  Name = 
REMARK  6 active torsions:
REMARK  status: ('A' for Active; 'I' for Inactive)
REMARK    1  A    between atoms: O_2  and  C_3
REMARK    2  A    between atoms: C_3  and  C_4
REMARK    3  A    between atoms: C_4  and  N_6
REMARK    4  A    between atoms: N_6  and  C_7
REMARK    5  A    between atoms: C_10  and  O_11
REMARK    6  A    between atoms: O_11  and  C_12
REMARK                            x       y       z     vdW  Elec       q    Type
REMARK                         _______ _______ _______ _____ _____    ______ ____
ROOT
ATOM      1  C   UNL     1      -0.715  -4.537   0.000  0.00  0.00    +0.085 A 
ATOM      2  C   UNL     1      -0.715  -5.362   0.000  0.00  0.00    +0.118 A 
ATOM      3  N   UNL     1       0.000  -5.775   0.000  0.00  0.00    -0.209 NA
ATOM      4  C   UNL     1       0.715  -5.362   0.000  0.00  0.00    +0.225 A 
ATOM      5  C   UNL     1       0.715  -4.537   0.000  0.00  0.00    +0.059 A 
ATOM      6  C   UNL     1       0.000  -4.125   0.000  0.00  0.00    +0.022 A 
ENDROOT
BRANCH   4   7
ATOM      7  O   UNL     1       1.429  -5.775   0.000  0.00  0.00    -0.464 OA
BRANCH   7   8
ATOM      8  C   UNL     1       2.143  -5.362   0.000  0.00  0.00    +0.170 C 
ATOM      9  C   UNL     1       2.858  -5.775   0.000  0.00  0.00    +0.061 C 
ATOM     10  C   UNL     1       3.572  -5.362   0.000  0.00  0.00    +0.076 C 
ATOM     11  N   UNL     1       3.572  -4.537   0.000  0.00  0.00    -0.271 NA
ATOM     12  C   UNL     1       4.287  -4.125   0.000  0.00  0.00    +0.090 C 
ATOM     13  C   UNL     1       2.858  -4.125   0.000  0.00  0.00    +0.076 C 
ATOM     14  C   UNL     1       2.143  -4.537   0.000  0.00  0.00    +0.061 C 
ENDBRANCH   7   8
ENDBRANCH   4   7
BRANCH   1  15
ATOM     15  N   UNL     1      -1.429  -4.125   0.000  0.00  0.00    -0.235 NA
BRANCH  15  16
ATOM     16  C   UNL     1      -2.143  -4.537   0.000  0.00  0.00    +0.122 C 
ATOM     17  C   UNL     1      -2.143  -5.362   0.000  0.00  0.00    +0.026 C 
BRANCH  16  18
ATOM     18  C   UNL     1      -2.858  -4.125   0.000  0.00  0.00    +0.164 C 
BRANCH  18  20
ATOM     19  C   UNL     1      -4.287  -4.125   0.000  0.00  0.00    +0.174 C 
ATOM     20  O   UNL     1      -3.572  -4.537   0.000  0.00  0.00    -0.349 OA
ENDBRANCH  18  20
ENDBRANCH  16  18
ENDBRANCH  15  16
ENDBRANCH   1  15
TORSDOF 6
