REMARK  Name = 
REMARK  4 active torsions:
REMARK  status: ('A' for Active; 'I' for Inactive)
REMARK    1  A    between atoms: C_2  and  C_3
REMARK    2  A    between atoms: C_2  and  N_9
REMARK    3  A    between atoms: C_3  and  N_4
REMARK    4  A    between atoms: N_9  and  C_10
REMARK                            x       y       z     vdW  Elec       q    Type
REMARK                         _______ _______ _______ _____ _____    ______ ____
ROOT
ATOM      1  N   UNL     1       3.466  -0.474   0.000  0.00  0.00    -0.219 NA
ENDROOT
BRANCH   1   2
ATOM      2  C   UNL     1       4.180  -0.062   0.000  0.00  0.00    +0.073 C 
ATOM      3  C   UNL     1       4.895  -0.474   0.000  0.00  0.00    +0.017 C 
ATOM      4  C   UNL     1       5.609  -0.062   0.000  0.00  0.00    +0.001 C 
ATOM      5  C   UNL     1       6.324  -0.474   0.000  0.00  0.00    +0.000 C 
ATOM      6  C   UNL     1       5.609   0.763   0.000  0.00  0.00    +0.000 C 
ATOM      7  C   UNL     1       6.324   1.176   0.000  0.00  0.00    +0.000 C 
ATOM      8  C   UNL     1       4.895   1.176   0.000  0.00  0.00    +0.001 C 
ATOM      9  C   UNL     1       4.180   0.763   0.000  0.00  0.00    +0.017 C 
ENDBRANCH   1   2
BRANCH   1  11
ATOM     10  C   UNL     1       4.180  -1.712   0.000  0.00  0.00    +0.021 C 
ATOM     11  C   UNL     1       3.466  -1.299   0.000  0.00  0.00    +0.097 C 
BRANCH  11  12
ATOM     12  C   UNL     1       2.751  -1.712   0.000  0.00  0.00    +0.146 C 
BRANCH  12  13
ATOM     13  N   UNL     1       2.751  -2.537   0.000  0.00  0.00    -0.229 N 
ATOM     14  N   UNL     1       2.084  -3.022   0.000  0.00  0.00    -0.145 NA
ATOM     15  C   UNL     1       2.339  -3.806   0.000  0.00  0.00    +0.221 A 
ATOM     16  N   UNL     1       3.164  -3.806   0.000  0.00  0.00    -0.201 NA
ATOM     17  C   UNL     1       3.419  -3.022   0.000  0.00  0.00    +0.197 A 
ENDBRANCH  12  13
ENDBRANCH  11  12
ENDBRANCH   1  11
TORSDOF 4
