REMARK  Name = 
REMARK  1 active torsions:
REMARK  status: ('A' for Active; 'I' for Inactive)
REMARK    1  A    between atoms: C_7  and  N_10
REMARK                            x       y       z     vdW  Elec       q    Type
REMARK                         _______ _______ _______ _____ _____    ______ ____
ROOT
ATOM      1  C   UNL     1      -1.536   8.065   0.000  0.00  0.00    +0.095 C 
ATOM      2  C   UNL     1      -0.821   8.478   0.000  0.00  0.00    +0.226 C 
ATOM      3  N   UNL     1      -0.107   8.065   0.000  0.00  0.00    -0.279 N 
ATOM      4  C   UNL     1      -0.107   7.240   0.000  0.00  0.00    +0.095 C 
ATOM      5  C   UNL     1       0.608   6.828   0.000  0.00  0.00    +0.043 C 
ATOM      6  C   UNL     1       1.322   7.240   0.000  0.00  0.00    +0.100 C 
ATOM      7  C   UNL     1       1.322   8.065   0.000  0.00  0.00    +0.043 C 
ATOM      8  C   UNL     1       0.608   8.478   0.000  0.00  0.00    +0.095 C 
ATOM      9  O   UNL     1      -0.821   9.303   0.000  0.00  0.00    -0.275 OA
ENDROOT
BRANCH   6  10
ATOM     10  N   UNL     1       2.037   6.828   0.000  0.00  0.00    -0.189 NA
ATOM     11  C   UNL     1       2.037   6.003   0.000  0.00  0.00    +0.345 C 
ATOM     12  N   UNL     1       2.751   5.590   0.000  0.00  0.00    -0.134 NA
ATOM     13  C   UNL     1       2.751   4.765   0.000  0.00  0.00    +0.209 A 
ATOM     14  S   UNL     1       2.084   4.280   0.000  0.00  0.00    -0.027 S 
ATOM     15  C   UNL     1       2.339   3.496   0.000  0.00  0.00    +0.161 A 
ATOM     16  N   UNL     1       3.164   3.496   0.000  0.00  0.00    -0.137 NA
ATOM     17  N   UNL     1       3.419   4.280   0.000  0.00  0.00    -0.123 NA
ATOM     18  O   UNL     1       1.322   5.590   0.000  0.00  0.00    -0.249 OA
ENDBRANCH   6  10
TORSDOF 1
