REMARK  Name = 
REMARK  1 active torsions:
REMARK  status: ('A' for Active; 'I' for Inactive)
REMARK    1  A    between atoms: C_7  and  N_8
REMARK                            x       y       z     vdW  Elec       q    Type
REMARK                         _______ _______ _______ _____ _____    ______ ____
ROOT
ATOM      1  N   UNL     1       0.715  -0.412   0.000  0.00  0.00    -0.127 NA
ATOM      2  C   UNL     1       0.715  -1.238   0.000  0.00  0.00    +0.105 A 
ATOM      3  C   UNL     1       0.000  -1.650   0.000  0.00  0.00    +0.084 A 
ATOM      4  C   UNL     1       0.000  -2.475   0.000  0.00  0.00    +0.115 A 
ATOM      5  N   UNL     1       0.715  -2.888   0.000  0.00  0.00    -0.241 NA
ATOM      6  C   UNL     1       1.429  -2.475   0.000  0.00  0.00    +0.100 A 
ATOM      7  C   UNL     1       1.429  -1.650   0.000  0.00  0.00    +0.040 A 
ENDROOT
BRANCH   3   8
ATOM      8  N   UNL     1      -0.715  -1.238   0.000  0.00  0.00    -0.300 N 
ATOM      9  C   UNL     1      -0.715  -0.412   0.000  0.00  0.00    +0.123 C 
ATOM     10  C   UNL     1      -1.429   0.000   0.000  0.00  0.00    +0.164 C 
ATOM     11  O   UNL     1      -2.143  -0.412   0.000  0.00  0.00    -0.350 OA
ATOM     12  C   UNL     1      -2.143  -1.238   0.000  0.00  0.00    +0.164 C 
ATOM     13  C   UNL     1      -1.429  -1.650   0.000  0.00  0.00    +0.123 C 
ENDBRANCH   3   8
TORSDOF 1
