REMARK  Name = 
REMARK  8 active torsions:
REMARK  status: ('A' for Active; 'I' for Inactive)
REMARK    1  A    between atoms: N_1  and  C_3
REMARK    2  A    between atoms: C_7  and  O_13
REMARK    3  A    between atoms: C_9  and  O_15
REMARK    4  A    between atoms: C_10  and  C_21
REMARK    5  A    between atoms: O_13  and  C_17
REMARK    6  A    between atoms: O_15  and  C_18
REMARK    7  A    between atoms: C_19  and  O_22
REMARK    8  A    between atoms: C_21  and  O_22
REMARK                            x       y       z     vdW  Elec       q    Type
REMARK                         _______ _______ _______ _____ _____    ______ ____
ROOT
ATOM      1  C   UNL     1       0.883  -2.150   0.000  0.00  0.00    +0.253 C 
ATOM      2  O   UNL     1       0.096  -2.404   0.000  0.00  0.00    -0.327 OA
ATOM      3  C   UNL     1       0.096  -3.229   0.000  0.00  0.00    +0.204 C 
ATOM      4  C   UNL     1       0.883  -3.483   0.000  0.00  0.00    +0.244 C 
ATOM      5  C   UNL     1       1.367  -2.817   0.000  0.00  0.00    +0.260 C 
ENDROOT
BRANCH   1   6
ATOM      6  N   UNL     1       1.137  -1.363   0.000  0.00  0.00    -0.265 N 
ATOM      7  C   UNL     1       1.921  -1.108   0.000  0.00  0.00    +0.170 A 
ATOM      8  N   UNL     1       2.638  -1.521   0.000  0.00  0.00    -0.205 NA
ATOM      9  C   UNL     1       3.350  -1.108   0.000  0.00  0.00    +0.202 A 
ATOM     10  N   UNL     1       3.350  -0.283   0.000  0.00  0.00    -0.204 NA
ATOM     11  C   UNL     1       2.638   0.129   0.000  0.00  0.00    +0.192 A 
ATOM     12  N   UNL     1       2.638   0.954   0.000  0.00  0.00    -0.105 NA
ATOM     13  C   UNL     1       1.921  -0.283   0.000  0.00  0.00    +0.152 A 
ATOM     14  N   UNL     1       1.137  -0.029   0.000  0.00  0.00    -0.216 NA
ATOM     15  C   UNL     1       0.650  -0.696   0.000  0.00  0.00    +0.182 A 
ATOM     16 BR   UNL     1      -0.175  -0.696   0.000  0.00  0.00    -0.008 Br
ENDBRANCH   1   6
BRANCH   4  17
ATOM     17  O   UNL     1       1.137  -4.267   0.000  0.00  0.00    -0.446 OA
BRANCH  17  18
ATOM     18  C   UNL     1       0.583  -4.879   0.000  0.00  0.00    +0.318 C 
ATOM     19  C   UNL     1       0.838  -5.667   0.000  0.00  0.00    +0.121 C 
ATOM     20  O   UNL     1      -0.221  -4.708   0.000  0.00  0.00    -0.250 OA
ENDBRANCH  17  18
ENDBRANCH   4  17
BRANCH   5  21
ATOM     21  O   UNL     1       2.192  -2.817   0.000  0.00  0.00    -0.444 OA
BRANCH  21  22
ATOM     22  C   UNL     1       2.604  -3.529   0.000  0.00  0.00    +0.318 C 
ATOM     23  C   UNL     1       2.192  -4.246   0.000  0.00  0.00    +0.121 C 
ATOM     24  O   UNL     1       3.429  -3.529   0.000  0.00  0.00    -0.250 OA
ENDBRANCH  21  22
ENDBRANCH   5  21
BRANCH   3  25
ATOM     25  C   UNL     1      -0.571  -3.712   0.000  0.00  0.00    +0.242 C 
BRANCH  25  26
ATOM     26  O   UNL     1      -1.325  -3.379   0.000  0.00  0.00    -0.446 OA
BRANCH  26  27
ATOM     27  C   UNL     1      -1.408  -2.558   0.000  0.00  0.00    +0.318 C 
ATOM     28  C   UNL     1      -2.163  -2.221   0.000  0.00  0.00    +0.121 C 
ATOM     29  O   UNL     1      -0.742  -2.071   0.000  0.00  0.00    -0.250 OA
ENDBRANCH  26  27
ENDBRANCH  25  26
ENDBRANCH   3  25
TORSDOF 8
