REMARK  Name = 
REMARK  6 active torsions:
REMARK  status: ('A' for Active; 'I' for Inactive)
REMARK    1  A    between atoms: C_2  and  C_3
REMARK    2  A    between atoms: C_3  and  N_4
REMARK    3  A    between atoms: C_7  and  N_10
REMARK    4  A    between atoms: N_10  and  C_11
REMARK    5  A    between atoms: C_11  and  C_12
REMARK    6  A    between atoms: C_12  and  C_13
REMARK                            x       y       z     vdW  Elec       q    Type
REMARK                         _______ _______ _______ _____ _____    ______ ____
ROOT
ATOM      1  N   UNL     1      -2.143  -1.238   0.000  0.00  0.00    -0.273 NA
ATOM      2  C   UNL     1      -2.858  -1.650   0.000  0.00  0.00    +0.074 C 
ATOM      3  C   UNL     1      -2.858  -2.475   0.000  0.00  0.00    +0.035 C 
ATOM      4  C   UNL     1      -2.143  -2.888   0.000  0.00  0.00    +0.076 C 
ATOM      5  C   UNL     1      -1.429  -2.475   0.000  0.00  0.00    +0.035 C 
ATOM      6  C   UNL     1      -1.429  -1.650   0.000  0.00  0.00    +0.074 C 
ENDROOT
BRANCH   1   7
ATOM      7  C   UNL     1      -2.143  -0.412   0.000  0.00  0.00    +0.072 C 
BRANCH   7   9
ATOM      8  C   UNL     1      -2.858   0.825   0.000  0.00  0.00    +0.001 C 
ATOM      9  C   UNL     1      -2.858   0.000   0.000  0.00  0.00    +0.017 C 
ENDBRANCH   7   9
ENDBRANCH   1   7
BRANCH   4  10
ATOM     10  N   UNL     1      -2.143  -3.712   0.000  0.00  0.00    -0.219 NA
BRANCH  10  11
ATOM     11  C   UNL     1      -2.858  -4.125   0.000  0.00  0.00    +0.095 C 
BRANCH  11  12
ATOM     12  C   UNL     1      -2.858  -4.950   0.000  0.00  0.00    +0.065 C 
BRANCH  12  13
ATOM     13  C   UNL     1      -2.143  -5.362   0.000  0.00  0.00    +0.060 A 
ATOM     14  N   UNL     1      -2.143  -6.188   0.000  0.00  0.00    -0.248 NA
ATOM     15  C   UNL     1      -1.429  -6.600   0.000  0.00  0.00    +0.098 A 
ATOM     16  C   UNL     1      -0.715  -6.188   0.000  0.00  0.00    +0.021 A 
ATOM     17  C   UNL     1      -0.715  -5.362   0.000  0.00  0.00    +0.003 A 
ATOM     18  C   UNL     1      -1.429  -4.950   0.000  0.00  0.00    +0.015 A 
ENDBRANCH  12  13
ENDBRANCH  11  12
ENDBRANCH  10  11
ENDBRANCH   4  10
TORSDOF 6
