REMARK  Name = 
REMARK  5 active torsions:
REMARK  status: ('A' for Active; 'I' for Inactive)
REMARK    1  A    between atoms: C_2  and  C_4
REMARK    2  A    between atoms: C_4  and  N_5
REMARK    3  A    between atoms: C_8  and  N_11
REMARK    4  A    between atoms: N_14  and  C_15
REMARK    5  A    between atoms: C_20  and  N_21
REMARK                            x       y       z     vdW  Elec       q    Type
REMARK                         _______ _______ _______ _____ _____    ______ ____
ROOT
ATOM      1  N   UNL     1      -0.107   0.763   0.000  0.00  0.00    -0.189 NA
ATOM      2  C   UNL     1       0.608   1.176   0.000  0.00  0.00    +0.344 C 
ATOM      3  N   UNL     1       1.322   0.763   0.000  0.00  0.00    -0.158 NA
ATOM      4  O   UNL     1       0.608   2.001   0.000  0.00  0.00    -0.249 OA
ENDROOT
BRANCH   1   8
ATOM      5  N   UNL     1      -2.250   2.001   0.000  0.00  0.00    -0.265 NA
ATOM      6  C   UNL     1      -2.250   1.176   0.000  0.00  0.00    +0.074 C 
ATOM      7  C   UNL     1      -1.536   0.763   0.000  0.00  0.00    +0.039 C 
ATOM      8  C   UNL     1      -0.821   1.176   0.000  0.00  0.00    +0.100 C 
ATOM      9  C   UNL     1      -0.821   2.001   0.000  0.00  0.00    +0.039 C 
ATOM     10  C   UNL     1      -1.536   2.413   0.000  0.00  0.00    +0.074 C 
BRANCH   5  11
ATOM     11  C   UNL     1      -2.965   2.413   0.000  0.00  0.00    +0.162 C 
BRANCH  11  13
ATOM     12  N   UNL     1      -4.394   2.413   0.000  0.00  0.00    -0.087 NA
ATOM     13  C   UNL     1      -3.679   2.001   0.000  0.00  0.00    +0.277 C 
ATOM     14  O   UNL     1      -3.679   1.176   0.000  0.00  0.00    -0.270 OA
ENDBRANCH  11  13
ENDBRANCH   5  11
ENDBRANCH   1   8
BRANCH   3  15
ATOM     15  C   UNL     1       2.037   1.176   0.000  0.00  0.00    +0.106 A 
ATOM     16  C   UNL     1       2.751   0.763   0.000  0.00  0.00    +0.147 A 
ATOM     17  N   UNL     1       3.466   1.176   0.000  0.00  0.00    -0.228 NA
ATOM     18  C   UNL     1       3.466   2.001   0.000  0.00  0.00    +0.100 A 
ATOM     19  C   UNL     1       2.751   2.413   0.000  0.00  0.00    +0.022 A 
ATOM     20  C   UNL     1       2.037   2.001   0.000  0.00  0.00    +0.021 A 
BRANCH  16  21
ATOM     21  N   UNL     1       2.751  -0.062   0.000  0.00  0.00    -0.292 N 
ATOM     22  C   UNL     1       2.084  -0.546   0.000  0.00  0.00    +0.092 C 
ATOM     23  C   UNL     1       2.339  -1.331   0.000  0.00  0.00    +0.023 C 
ATOM     24  C   UNL     1       3.164  -1.331   0.000  0.00  0.00    +0.023 C 
ATOM     25  C   UNL     1       3.419  -0.546   0.000  0.00  0.00    +0.092 C 
ENDBRANCH  16  21
ENDBRANCH   3  15
TORSDOF 5
