REMARK  Name = 
REMARK  7 active torsions:
REMARK  status: ('A' for Active; 'I' for Inactive)
REMARK    1  A    between atoms: O_2  and  C_3
REMARK    2  A    between atoms: C_3  and  C_4
REMARK    3  A    between atoms: C_4  and  O_5
REMARK    4  A    between atoms: O_5  and  C_6
REMARK    5  A    between atoms: C_11  and  N_12
REMARK    6  A    between atoms: N_12  and  S_13
REMARK    7  A    between atoms: S_13  and  C_16
REMARK                            x       y       z     vdW  Elec       q    Type
REMARK                         _______ _______ _______ _____ _____    ______ ____
ROOT
ATOM      1  C   UNL     1       3.572  -4.537   0.000  0.00  0.00    +0.242 A 
ATOM      2  C   UNL     1       4.287  -4.950   0.000  0.00  0.00    +0.144 A 
ATOM      3  C   UNL     1       5.001  -4.537   0.000  0.00  0.00    +0.024 A 
ATOM      4  C   UNL     1       5.001  -3.712   0.000  0.00  0.00    +0.022 A 
ATOM      5  C   UNL     1       4.287  -3.300   0.000  0.00  0.00    +0.102 A 
ATOM      6  N   UNL     1       3.572  -3.712   0.000  0.00  0.00    -0.209 NA
ENDROOT
BRANCH   1   7
ATOM      7  O   UNL     1       2.858  -4.950   0.000  0.00  0.00    -0.457 OA
BRANCH   7   8
ATOM      8  C   UNL     1       2.143  -4.537   0.000  0.00  0.00    +0.239 C 
BRANCH   8   9
ATOM      9  C   UNL     1       1.429  -4.950   0.000  0.00  0.00    +0.189 C 
BRANCH   9  11
ATOM     10  C   UNL     1       0.000  -4.950   0.000  0.00  0.00    +0.174 C 
ATOM     11  O   UNL     1       0.715  -4.537   0.000  0.00  0.00    -0.347 OA
ENDBRANCH   9  11
ENDBRANCH   8   9
ENDBRANCH   7   8
ENDBRANCH   1   7
BRANCH   2  12
ATOM     12  N   UNL     1       4.287  -5.775   0.000  0.00  0.00    -0.096 NA
BRANCH  12  13
ATOM     13  S   UNL     1       5.001  -6.188   0.000  0.00  0.00    +0.074 S 
ATOM     14  O   UNL     1       5.414  -5.473   0.000  0.00  0.00    -0.153 OA
ATOM     15  O   UNL     1       4.589  -6.902   0.000  0.00  0.00    -0.153 OA
BRANCH  13  16
ATOM     16  C   UNL     1       5.716  -6.600   0.000  0.00  0.00    +0.181 C 
ATOM     17  C   UNL     1       5.716  -7.425   0.000  0.00  0.00    +0.176 C 
ATOM     18  O   UNL     1       5.001  -7.838   0.000  0.00  0.00    -0.221 OA
ATOM     19  C   UNL     1       6.430  -7.838   0.000  0.00  0.00    +0.035 C 
ATOM     20  C   UNL     1       7.145  -7.425   0.000  0.00  0.00    +0.003 C 
ATOM     21  C   UNL     1       7.145  -6.600   0.000  0.00  0.00    +0.002 C 
ATOM     22  C   UNL     1       6.430  -6.188   0.000  0.00  0.00    +0.028 C 
ENDBRANCH  13  16
ENDBRANCH  12  13
ENDBRANCH   2  12
TORSDOF 7
