REMARK  Name = 
REMARK  3 active torsions:
REMARK  status: ('A' for Active; 'I' for Inactive)
REMARK    1  A    between atoms: O_2  and  C_3
REMARK    2  A    between atoms: C_3  and  C_4
REMARK    3  A    between atoms: C_4  and  N_5
REMARK                            x       y       z     vdW  Elec       q    Type
REMARK                         _______ _______ _______ _____ _____    ______ ____
ROOT
ATOM      1  N   UNL     1       1.139  -1.365   0.000  0.00  0.00    -0.295 N 
ATOM      2  C   UNL     1       1.923  -1.110   0.000  0.00  0.00    +0.080 A 
ATOM      3  C   UNL     1       1.923  -0.285   0.000  0.00  0.00    +0.100 A 
ATOM      4  C   UNL     1       2.638   0.127   0.000  0.00  0.00    +0.021 A 
ATOM      5  C   UNL     1       3.352  -0.285   0.000  0.00  0.00    +0.002 A 
ATOM      6  C   UNL     1       3.352  -1.110   0.000  0.00  0.00    +0.002 A 
ATOM      7  N   UNL     1       1.139  -0.030   0.000  0.00  0.00    -0.211 NA
ATOM      8  C   UNL     1       2.638  -1.523   0.000  0.00  0.00    +0.019 A 
ATOM      9  C   UNL     1       0.654  -0.698   0.000  0.00  0.00    +0.238 A 
ATOM     10  N   UNL     1      -0.171  -0.698   0.000  0.00  0.00    -0.088 NA
ENDROOT
BRANCH   1  11
ATOM     11  C   UNL     1       0.884  -2.150   0.000  0.00  0.00    +0.141 C 
BRANCH  11  12
ATOM     12  C   UNL     1       0.077  -2.321   0.000  0.00  0.00    +0.167 C 
BRANCH  12  14
ATOM     13  C   UNL     1      -0.985  -3.278   0.000  0.00  0.00    +0.174 C 
ATOM     14  O   UNL     1      -0.178  -3.106   0.000  0.00  0.00    -0.349 OA
ENDBRANCH  12  14
ENDBRANCH  11  12
ENDBRANCH   1  11
TORSDOF 3
