REMARK  Name = 
REMARK  5 active torsions:
REMARK  status: ('A' for Active; 'I' for Inactive)
REMARK    1  A    between atoms: N_2  and  C_10
REMARK    2  A    between atoms: N_6  and  C_13
REMARK    3  A    between atoms: N_6  and  C_14
REMARK    4  A    between atoms: C_10  and  C_12
REMARK    5  A    between atoms: C_13  and  C_17
REMARK                            x       y       z     vdW  Elec       q    Type
REMARK                         _______ _______ _______ _____ _____    ______ ____
ROOT
ATOM      1  C   UNL     1       1.921  -0.283   0.000  0.00  0.00    +0.149 A 
ATOM      2  N   UNL     1       1.137  -0.029   0.000  0.00  0.00    -0.219 NA
ATOM      3  C   UNL     1       0.650  -0.696   0.000  0.00  0.00    +0.180 A 
ATOM      4  N   UNL     1       1.137  -1.363   0.000  0.00  0.00    -0.292 N 
ATOM      5  C   UNL     1       1.921  -1.108   0.000  0.00  0.00    +0.167 A 
ATOM      6  N   UNL     1       2.638  -1.521   0.000  0.00  0.00    -0.205 NA
ATOM      7  C   UNL     1       3.350  -1.108   0.000  0.00  0.00    +0.201 A 
ATOM      8  N   UNL     1       3.350  -0.283   0.000  0.00  0.00    -0.207 NA
ATOM      9  C   UNL     1       2.638   0.129   0.000  0.00  0.00    +0.154 A 
ATOM     10  N   UNL     1       2.638   0.954   0.000  0.00  0.00    -0.291 N 
ENDROOT
BRANCH  10  11
ATOM     11  C   UNL     1       1.921   1.367   0.000  0.00  0.00    +0.074 C 
ATOM     12  C   UNL     1       1.167   1.029   0.000  0.00  0.00    +0.020 C 
ATOM     13  C   UNL     1       0.617   1.646   0.000  0.00  0.00    +0.002 C 
ATOM     14  C   UNL     1       1.029   2.358   0.000  0.00  0.00    +0.002 C 
ATOM     15  C   UNL     1       1.833   2.188   0.000  0.00  0.00    +0.020 C 
ENDBRANCH  10  11
BRANCH   4  16
ATOM     16  C   UNL     1       0.883  -2.150   0.000  0.00  0.00    +0.139 C 
BRANCH  16  17
ATOM     17  C   UNL     1       1.433  -2.763   0.000  0.00  0.00    +0.152 C 
ATOM     18  O   UNL     1       1.942  -2.112   0.000  0.00  0.00    -0.223 OA
ATOM     19  C   UNL     1       0.733  -3.200   0.000  0.00  0.00    +0.064 C 
ATOM     20  C   UNL     1       0.762  -4.021   0.000  0.00  0.00    +0.145 C 
ATOM     21  O   UNL     1       1.492  -4.408   0.000  0.00  0.00    -0.354 OA
ATOM     22  C   UNL     1       2.192  -3.971   0.000  0.00  0.00    +0.145 C 
ATOM     23  C   UNL     1       2.163  -3.150   0.000  0.00  0.00    +0.064 C 
ENDBRANCH  16  17
ENDBRANCH   4  16
BRANCH  10  24
ATOM     24  C   UNL     1       3.350   1.367   0.000  0.00  0.00    +0.122 C 
BRANCH  24  25
ATOM     25  C   UNL     1       3.350   2.192   0.000  0.00  0.00    +0.135 C 
ATOM     26  C   UNL     1       2.683   2.675   0.000  0.00  0.00    +0.034 C 
ATOM     27  C   UNL     1       2.938   3.462   0.000  0.00  0.00    +0.035 C 
ATOM     28  C   UNL     1       3.763   3.462   0.000  0.00  0.00    +0.142 C 
ATOM     29  O   UNL     1       4.017   2.675   0.000  0.00  0.00    -0.355 OA
ENDBRANCH  24  25
ENDBRANCH  10  24
TORSDOF 5
