REMARK  Name = 
REMARK  7 active torsions:
REMARK  status: ('A' for Active; 'I' for Inactive)
REMARK    1  A    between atoms: C_2  and  C_4
REMARK    2  A    between atoms: C_4  and  C_5
REMARK    3  A    between atoms: C_5  and  C_9
REMARK    4  A    between atoms: N_11  and  C_12
REMARK    5  A    between atoms: C_12  and  C_13
REMARK    6  A    between atoms: C_13  and  C_14
REMARK    7  A    between atoms: N_18  and  C_19
REMARK                            x       y       z     vdW  Elec       q    Type
REMARK                         _______ _______ _______ _____ _____    ______ ____
ROOT
ATOM      1  C   UNL     1       0.028  -2.025   0.000  0.00  0.00    +0.240 C 
ATOM      2  N   UNL     1       0.743  -2.437   0.000  0.00  0.00    -0.205 NA
ATOM      3  O   UNL     1       0.028  -1.200   0.000  0.00  0.00    -0.273 OA
ENDROOT
BRANCH   1   4
ATOM      4  C   UNL     1      -0.686  -2.437   0.000  0.00  0.00    +0.070 C 
ATOM      5  C   UNL     1      -1.401  -2.850   0.000  0.00  0.00    +0.009 C 
ATOM      6  C   UNL     1      -0.988  -3.564   0.000  0.00  0.00    +0.001 C 
ATOM      7  C   UNL     1      -0.274  -3.152   0.000  0.00  0.00    +0.009 C 
BRANCH   4   8
ATOM      8  C   UNL     1      -1.099  -1.723   0.000  0.00  0.00    +0.009 C 
BRANCH   8  10
ATOM      9  C   UNL     1      -2.337  -2.437   0.000  0.00  0.00    +0.000 C 
ATOM     10  C   UNL     1      -1.924  -1.723   0.000  0.00  0.00    +0.000 C 
ATOM     11  C   UNL     1      -2.337  -1.008   0.000  0.00  0.00    +0.000 C 
ENDBRANCH   8  10
ENDBRANCH   4   8
ENDBRANCH   1   4
BRANCH   2  12
ATOM     12  C   UNL     1       1.457  -2.025   0.000  0.00  0.00    +0.123 C 
BRANCH  12  13
ATOM     13  C   UNL     1       2.171  -2.437   0.000  0.00  0.00    +0.089 C 
BRANCH  13  14
ATOM     14  C   UNL     1       2.886  -2.025   0.000  0.00  0.00    +0.145 A 
ATOM     15  N   UNL     1       3.640  -2.360   0.000  0.00  0.00    -0.298 N 
ATOM     16  C   UNL     1       4.192  -1.747   0.000  0.00  0.00    +0.202 A 
ATOM     17  N   UNL     1       3.779  -1.033   0.000  0.00  0.00    -0.126 NA
ATOM     18  N   UNL     1       2.972  -1.204   0.000  0.00  0.00    -0.133 NA
BRANCH  15  19
ATOM     19  C   UNL     1       3.811  -3.167   0.000  0.00  0.00    +0.088 C 
ATOM     20  C   UNL     1       3.556  -3.952   0.000  0.00  0.00    +0.025 C 
ATOM     21  C   UNL     1       4.363  -3.780   0.000  0.00  0.00    +0.025 C 
ENDBRANCH  15  19
ENDBRANCH  13  14
ENDBRANCH  12  13
ENDBRANCH   2  12
TORSDOF 7
