REMARK  Name = 
REMARK  7 active torsions:
REMARK  status: ('A' for Active; 'I' for Inactive)
REMARK    1  A    between atoms: C_2  and  C_3
REMARK    2  A    between atoms: C_2  and  N_10
REMARK    3  A    between atoms: C_3  and  N_4
REMARK    4  A    between atoms: N_10  and  C_11
REMARK    5  A    between atoms: C_11  and  C_12
REMARK    6  A    between atoms: N_21  and  C_22
REMARK    7  A    between atoms: C_22  and  C_23
REMARK                            x       y       z     vdW  Elec       q    Type
REMARK                         _______ _______ _______ _____ _____    ______ ____
ROOT
ATOM      1  C   UNL     1       5.500  -3.147   0.000  0.00  0.00    +0.138 A 
ATOM      2  N   UNL     1       5.586  -3.968   0.000  0.00  0.00    -0.311 N 
ATOM      3  C   UNL     1       6.393  -4.139   0.000  0.00  0.00    +0.079 A 
ATOM      4  C   UNL     1       6.806  -3.425   0.000  0.00  0.00    +0.099 A 
ATOM      5  C   UNL     1       7.631  -3.425   0.000  0.00  0.00    +0.032 A 
ATOM      6  C   UNL     1       8.043  -4.139   0.000  0.00  0.00    +0.059 A 
ATOM      7  C   UNL     1       7.631  -4.854   0.000  0.00  0.00    +0.013 A 
ATOM      8 CL   UNL     1       8.868  -4.139   0.000  0.00  0.00    -0.082 Cl
ATOM      9  C   UNL     1       6.806  -4.854   0.000  0.00  0.00    +0.020 A 
ATOM     10  N   UNL     1       6.254  -2.812   0.000  0.00  0.00    -0.229 NA
ENDROOT
BRANCH   1  11
ATOM     11  C   UNL     1       4.785  -2.735   0.000  0.00  0.00    +0.152 C 
BRANCH  11  12
ATOM     12  N   UNL     1       4.071  -3.147   0.000  0.00  0.00    -0.209 NA
BRANCH  12  14
ATOM     13  C   UNL     1       3.357  -1.910   0.000  0.00  0.00    +0.021 C 
ATOM     14  C   UNL     1       3.357  -2.735   0.000  0.00  0.00    +0.098 C 
BRANCH  14  15
ATOM     15  C   UNL     1       2.642  -3.147   0.000  0.00  0.00    +0.145 C 
BRANCH  15  16
ATOM     16  N   UNL     1       1.927  -2.735   0.000  0.00  0.00    -0.248 N 
ATOM     17  N   UNL     1       1.841  -1.914   0.000  0.00  0.00    -0.168 NA
ATOM     18  C   UNL     1       1.034  -1.743   0.000  0.00  0.00    +0.117 A 
ATOM     19  C   UNL     1       0.622  -2.457   0.000  0.00  0.00    +0.018 A 
ATOM     20  C   UNL     1      -0.199  -2.543   0.000  0.00  0.00    +0.034 C 
ATOM     21  C   UNL     1       1.174  -3.070   0.000  0.00  0.00    +0.092 A 
ENDBRANCH  15  16
ENDBRANCH  14  15
ENDBRANCH  12  14
ENDBRANCH  11  12
ENDBRANCH   1  11
BRANCH   2  22
ATOM     22  C   UNL     1       4.973  -4.520   0.000  0.00  0.00    +0.143 C 
BRANCH  22  23
ATOM     23  C   UNL     1       5.145  -5.327   0.000  0.00  0.00    +0.206 C 
ATOM     24  O   UNL     1       4.532  -5.879   0.000  0.00  0.00    -0.218 OA
ENDBRANCH  22  23
ENDBRANCH   2  22
TORSDOF 7
