REMARK  Name = 
REMARK  4 active torsions:
REMARK  status: ('A' for Active; 'I' for Inactive)
REMARK    1  A    between atoms: O_2  and  C_3
REMARK    2  A    between atoms: C_8  and  N_9
REMARK    3  A    between atoms: N_12  and  C_13
REMARK    4  A    between atoms: C_17  and  C_18
REMARK                            x       y       z     vdW  Elec       q    Type
REMARK                         _______ _______ _______ _____ _____    ______ ____
ROOT
ATOM      1  N   UNL     1       5.609   3.115   0.000  0.00  0.00    -0.156 NA
ATOM      2  C   UNL     1       5.609   2.290   0.000  0.00  0.00    +0.344 C 
ATOM      3  N   UNL     1       4.895   1.878   0.000  0.00  0.00    -0.188 NA
ATOM      4  O   UNL     1       6.324   1.878   0.000  0.00  0.00    -0.249 OA
ENDROOT
BRANCH   1   6
ATOM      5  C   UNL     1       6.324   4.353   0.000  0.00  0.00    +0.241 A 
ATOM      6  C   UNL     1       6.324   3.528   0.000  0.00  0.00    +0.128 A 
ATOM      7  C   UNL     1       7.038   3.115   0.000  0.00  0.00    +0.023 A 
ATOM      8  C   UNL     1       7.753   3.528   0.000  0.00  0.00    +0.022 A 
ATOM      9  C   UNL     1       7.753   4.353   0.000  0.00  0.00    +0.102 A 
ATOM     10  N   UNL     1       7.038   4.765   0.000  0.00  0.00    -0.209 NA
BRANCH   5  12
ATOM     11  C   UNL     1       5.609   5.590   0.000  0.00  0.00    +0.254 C 
ATOM     12  O   UNL     1       5.609   4.765   0.000  0.00  0.00    -0.455 OA
ENDBRANCH   5  12
ENDBRANCH   1   6
BRANCH   3  13
ATOM     13  C   UNL     1       4.895   1.053   0.000  0.00  0.00    +0.106 C 
ATOM     14  C   UNL     1       4.227   0.568   0.000  0.00  0.00    +0.100 C 
ATOM     15  C   UNL     1       4.482  -0.217   0.000  0.00  0.00    +0.011 C 
ATOM     16  C   UNL     1       5.307  -0.217   0.000  0.00  0.00    +0.002 C 
ATOM     17  C   UNL     1       5.562   0.568   0.000  0.00  0.00    +0.022 C 
BRANCH  14  18
ATOM     18  C   UNL     1       3.442   0.823   0.000  0.00  0.00    +0.262 C 
ATOM     19  N   UNL     1       3.271   1.630   0.000  0.00  0.00    -0.088 NA
ATOM     20  O   UNL     1       2.829   0.271   0.000  0.00  0.00    -0.272 OA
ENDBRANCH  14  18
ENDBRANCH   3  13
TORSDOF 4
