REMARK  Name = 
REMARK  4 active torsions:
REMARK  status: ('A' for Active; 'I' for Inactive)
REMARK    1  A    between atoms: C_2  and  N_3
REMARK    2  A    between atoms: C_5  and  N_6
REMARK    3  A    between atoms: N_9  and  C_10
REMARK    4  A    between atoms: C_10  and  C_11
REMARK                            x       y       z     vdW  Elec       q    Type
REMARK                         _______ _______ _______ _____ _____    ______ ____
ROOT
ATOM      1  N   UNL     1       0.028  -2.025   0.000  0.00  0.00    -0.158 NA
ATOM      2  C   UNL     1       0.743  -2.437   0.000  0.00  0.00    +0.344 C 
ATOM      3  N   UNL     1       1.457  -2.025   0.000  0.00  0.00    -0.187 NA
ATOM      4  O   UNL     1       0.743  -3.262   0.000  0.00  0.00    -0.249 OA
ENDROOT
BRANCH   1   8
ATOM      5  N   UNL     1      -1.992  -2.715   0.000  0.00  0.00    -0.248 N 
ATOM      6  N   UNL     1      -1.580  -3.429   0.000  0.00  0.00    -0.166 NA
ATOM      7  C   UNL     1      -0.773  -3.258   0.000  0.00  0.00    +0.138 A 
ATOM      8  C   UNL     1      -0.686  -2.437   0.000  0.00  0.00    +0.114 A 
ATOM      9  C   UNL     1      -1.440  -2.102   0.000  0.00  0.00    +0.113 A 
BRANCH   5  11
ATOM     10  C   UNL     1      -3.298  -3.296   0.000  0.00  0.00    +0.028 C 
ATOM     11  C   UNL     1      -2.813  -2.629   0.000  0.00  0.00    +0.128 C 
ENDBRANCH   5  11
ENDBRANCH   1   8
BRANCH   3  12
ATOM     12  C   UNL     1       2.171  -2.437   0.000  0.00  0.00    +0.119 C 
BRANCH  12  13
ATOM     13  C   UNL     1       2.886  -2.025   0.000  0.00  0.00    +0.047 C 
ATOM     14  C   UNL     1       3.640  -2.360   0.000  0.00  0.00    +0.153 C 
ATOM     15  S   UNL     1       4.192  -1.747   0.000  0.00  0.00    -0.010 S 
ATOM     16  O   UNL     1       4.744  -2.360   0.000  0.00  0.00    -0.173 OA
ATOM     17  O   UNL     1       4.859  -1.262   0.000  0.00  0.00    -0.173 OA
ATOM     18  C   UNL     1       3.779  -1.033   0.000  0.00  0.00    +0.151 C 
ATOM     19  C   UNL     1       2.972  -1.204   0.000  0.00  0.00    +0.029 C 
ENDBRANCH  12  13
ENDBRANCH   3  12
TORSDOF 4
