REMARK  Name = 
REMARK  7 active torsions:
REMARK  status: ('A' for Active; 'I' for Inactive)
REMARK    1  A    between atoms: C_2  and  C_3
REMARK    2  A    between atoms: C_2  and  N_9
REMARK    3  A    between atoms: C_3  and  N_4
REMARK    4  A    between atoms: N_9  and  C_10
REMARK    5  A    between atoms: C_10  and  C_11
REMARK    6  A    between atoms: C_11  and  C_12
REMARK    7  A    between atoms: C_12  and  N_13
REMARK                            x       y       z     vdW  Elec       q    Type
REMARK                         _______ _______ _______ _____ _____    ______ ____
ROOT
ATOM      1  N   UNL     1       3.878  -3.364   0.000  0.00  0.00    -0.217 NA
ENDROOT
BRANCH   1   3
ATOM      2  C   UNL     1       3.163  -2.127   0.000  0.00  0.00    +0.021 C 
ATOM      3  C   UNL     1       3.163  -2.952   0.000  0.00  0.00    +0.097 C 
BRANCH   3   4
ATOM      4  C   UNL     1       2.449  -3.364   0.000  0.00  0.00    +0.145 C 
BRANCH   4   5
ATOM      5  N   UNL     1       1.734  -2.952   0.000  0.00  0.00    -0.248 N 
ATOM      6  N   UNL     1       1.648  -2.131   0.000  0.00  0.00    -0.168 NA
ATOM      7  C   UNL     1       0.841  -1.960   0.000  0.00  0.00    +0.122 A 
ATOM      8  C   UNL     1       0.429  -2.674   0.000  0.00  0.00    +0.043 A 
ATOM      9  C   UNL     1       0.981  -3.287   0.000  0.00  0.00    +0.097 A 
ENDBRANCH   4   5
ENDBRANCH   3   4
ENDBRANCH   1   3
BRANCH   1  10
ATOM     10  C   UNL     1       4.592  -2.952   0.000  0.00  0.00    +0.090 C 
BRANCH  10  11
ATOM     11  C   UNL     1       5.307  -3.364   0.000  0.00  0.00    +0.040 C 
BRANCH  11  12
ATOM     12  C   UNL     1       6.021  -2.952   0.000  0.00  0.00    +0.095 C 
BRANCH  12  13
ATOM     13  N   UNL     1       6.736  -3.364   0.000  0.00  0.00    -0.279 N 
ATOM     14  C   UNL     1       6.822  -4.185   0.000  0.00  0.00    +0.226 C 
ATOM     15  O   UNL     1       6.209  -4.737   0.000  0.00  0.00    -0.275 OA
ATOM     16  C   UNL     1       7.629  -4.356   0.000  0.00  0.00    +0.087 C 
ATOM     17  C   UNL     1       8.041  -3.642   0.000  0.00  0.00    +0.031 C 
ATOM     18  C   UNL     1       7.489  -3.029   0.000  0.00  0.00    +0.094 C 
ENDBRANCH  12  13
ENDBRANCH  11  12
ENDBRANCH  10  11
ENDBRANCH   1  10
TORSDOF 7
