REMARK  Name = 
REMARK  3 active torsions:
REMARK  status: ('A' for Active; 'I' for Inactive)
REMARK    1  A    between atoms: N_5  and  C_6
REMARK    2  A    between atoms: C_6  and  C_7
REMARK    3  A    between atoms: C_7  and  C_9
REMARK                            x       y       z     vdW  Elec       q    Type
REMARK                         _______ _______ _______ _____ _____    ______ ____
ROOT
ATOM      1  C   UNL     1       0.884  -2.150   0.000  0.00  0.00    +0.135 C 
ATOM      2  N   UNL     1       1.139  -1.365   0.000  0.00  0.00    -0.278 N 
ATOM      3  C   UNL     1       1.923  -1.110   0.000  0.00  0.00    +0.080 A 
ATOM      4  C   UNL     1       1.923  -0.285   0.000  0.00  0.00    +0.080 A 
ATOM      5  C   UNL     1       2.638   0.127   0.000  0.00  0.00    +0.019 A 
ATOM      6  C   UNL     1       3.352  -0.285   0.000  0.00  0.00    +0.002 A 
ATOM      7  C   UNL     1       3.352  -1.110   0.000  0.00  0.00    +0.002 A 
ATOM      8  N   UNL     1       1.139  -0.030   0.000  0.00  0.00    -0.277 N 
ATOM      9  C   UNL     1       2.638  -1.523   0.000  0.00  0.00    +0.019 A 
ATOM     10  C   UNL     1       0.654  -0.698   0.000  0.00  0.00    +0.332 A 
ATOM     11  O   UNL     1      -0.171  -0.698   0.000  0.00  0.00    -0.246 OA
ENDROOT
BRANCH   8  12
ATOM     12  C   UNL     1       0.884   0.754   0.000  0.00  0.00    +0.148 C 
BRANCH  12  13
ATOM     13  C   UNL     1       0.077   0.926   0.000  0.00  0.00    +0.197 C 
ATOM     14  O   UNL     1      -0.475   0.313   0.000  0.00  0.00    -0.216 OA
BRANCH  13  15
ATOM     15  C   UNL     1      -0.178   1.710   0.000  0.00  0.00    +0.010 A 
ATOM     16  C   UNL     1       0.374   2.323   0.000  0.00  0.00    +0.001 A 
ATOM     17  C   UNL     1       0.119   3.108   0.000  0.00  0.00    +0.029 A 
ATOM     18  C   UNL     1      -0.688   3.280   0.000  0.00  0.00    +0.140 A 
ATOM     19  F   UNL     1      -0.943   4.064   0.000  0.00  0.00    -0.204 F 
ATOM     20  C   UNL     1      -1.240   2.666   0.000  0.00  0.00    +0.029 A 
ATOM     21  C   UNL     1      -0.985   1.882   0.000  0.00  0.00    +0.001 A 
ENDBRANCH  13  15
ENDBRANCH  12  13
ENDBRANCH   8  12
TORSDOF 3
