REMARK  Name = 
REMARK  5 active torsions:
REMARK  status: ('A' for Active; 'I' for Inactive)
REMARK    1  A    between atoms: C_2  and  N_4
REMARK    2  A    between atoms: N_3  and  C_12
REMARK    3  A    between atoms: C_11  and  C_12
REMARK    4  A    between atoms: C_11  and  C_24
REMARK    5  A    between atoms: N_13  and  C_25
REMARK                            x       y       z     vdW  Elec       q    Type
REMARK                         _______ _______ _______ _____ _____    ______ ____
ROOT
ATOM      1  C   UNL     1       2.562   0.825   0.000  0.00  0.00    +0.149 A 
ATOM      2  N   UNL     1       1.779   1.083   0.000  0.00  0.00    -0.219 NA
ATOM      3  C   UNL     1       1.292   0.412   0.000  0.00  0.00    +0.180 A 
ATOM      4  N   UNL     1       1.779  -0.254   0.000  0.00  0.00    -0.294 N 
ATOM      5  C   UNL     1       2.562   0.000   0.000  0.00  0.00    +0.167 A 
ATOM      6  N   UNL     1       3.275  -0.412   0.000  0.00  0.00    -0.205 NA
ATOM      7  C   UNL     1       3.992   0.000   0.000  0.00  0.00    +0.201 A 
ATOM      8  N   UNL     1       3.992   0.825   0.000  0.00  0.00    -0.207 NA
ATOM      9  C   UNL     1       3.275   1.238   0.000  0.00  0.00    +0.154 A 
ENDROOT
BRANCH   9  10
ATOM     10  N   UNL     1       3.275   2.062   0.000  0.00  0.00    -0.294 N 
ATOM     11  C   UNL     1       4.271   2.312   0.000  0.00  0.00    +0.076 C 
ATOM     12  C   UNL     1       3.688   2.896   0.000  0.00  0.00    +0.022 C 
ATOM     13  C   UNL     1       2.862   2.896   0.000  0.00  0.00    +0.023 C 
ATOM     14  C   UNL     1       4.271   1.488   0.000  0.00  0.00    +0.037 C 
ATOM     15  C   UNL     1       3.688   0.904   0.000  0.00  0.00    +0.074 C 
ATOM     16  N   UNL     1       2.862   0.904   0.000  0.00  0.00    -0.271 NA
ATOM     17  C   UNL     1       2.279   1.488   0.000  0.00  0.00    +0.092 C 
ATOM     18  C   UNL     1       2.279   2.312   0.000  0.00  0.00    +0.090 C 
BRANCH  16  19
ATOM     19  C   UNL     1       2.117   0.287   0.000  0.00  0.00    +0.072 C 
ATOM     20  C   UNL     1       1.283  -0.083   0.000  0.00  0.00    +0.019 C 
ENDBRANCH  16  19
ENDBRANCH   9  10
BRANCH   4  21
ATOM     21  C   UNL     1       1.658  -1.204   0.000  0.00  0.00    +0.116 C 
BRANCH  21  22
ATOM     22  C   UNL     1       0.717  -1.208   0.000  0.00  0.00    +0.106 C 
ATOM     23  C   UNL     1       0.600  -0.392   0.000  0.00  0.00    +0.149 C 
ATOM     24  O   UNL     1      -0.217  -0.504   0.000  0.00  0.00    -0.353 OA
ATOM     25  C   UNL     1      -0.100  -1.325   0.000  0.00  0.00    +0.149 C 
BRANCH  22  26
ATOM     26  C   UNL     1       0.754  -2.117   0.000  0.00  0.00    +0.189 C 
ATOM     27  O   UNL     1       0.250  -2.812   0.000  0.00  0.00    -0.220 OA
ENDBRANCH  22  26
ENDBRANCH  21  22
ENDBRANCH   4  21
TORSDOF 5
