REMARK  Name = 
REMARK  4 active torsions:
REMARK  status: ('A' for Active; 'I' for Inactive)
REMARK    1  A    between atoms: C_2  and  S_3
REMARK    2  A    between atoms: S_3  and  C_4
REMARK    3  A    between atoms: C_9  and  N_10
REMARK    4  A    between atoms: N_13  and  C_14
REMARK                            x       y       z     vdW  Elec       q    Type
REMARK                         _______ _______ _______ _____ _____    ______ ____
ROOT
ATOM      1  N   UNL     1       2.143  -0.412   0.000  0.00  0.00    -0.188 NA
ATOM      2  C   UNL     1       2.143  -1.238   0.000  0.00  0.00    +0.345 C 
ATOM      3  N   UNL     1       2.858  -1.650   0.000  0.00  0.00    -0.142 NA
ATOM      4  O   UNL     1       1.429  -1.650   0.000  0.00  0.00    -0.249 OA
ENDROOT
BRANCH   3   5
ATOM      5  C   UNL     1       2.858  -2.475   0.000  0.00  0.00    +0.154 A 
ATOM      6  N   UNL     1       2.190  -2.960   0.000  0.00  0.00    -0.234 N 
ATOM      7  C   UNL     1       1.406  -2.705   0.000  0.00  0.00    +0.155 C 
ATOM      8  N   UNL     1       2.445  -3.744   0.000  0.00  0.00    -0.172 NA
ATOM      9  C   UNL     1       3.270  -3.744   0.000  0.00  0.00    +0.082 A 
ATOM     10  C   UNL     1       3.755  -4.412   0.000  0.00  0.00    +0.054 C 
ATOM     11  C   UNL     1       3.525  -2.960   0.000  0.00  0.00    +0.052 A 
ENDBRANCH   3   5
BRANCH   1  13
ATOM     12  C   UNL     1       0.715  -0.412   0.000  0.00  0.00    +0.068 C 
ATOM     13  C   UNL     1       1.429   0.000   0.000  0.00  0.00    +0.107 C 
ATOM     14  C   UNL     1       1.429   0.825   0.000  0.00  0.00    +0.023 C 
ATOM     15  C   UNL     1       0.715   1.238   0.000  0.00  0.00    +0.002 C 
ATOM     16  C   UNL     1       0.000   0.825   0.000  0.00  0.00    +0.001 C 
ATOM     17  C   UNL     1       0.000   0.000   0.000  0.00  0.00    +0.013 C 
BRANCH  12  18
ATOM     18  S   UNL     1       0.715  -1.238   0.000  0.00  0.00    -0.139 S 
BRANCH  18  20
ATOM     19  C   UNL     1       0.000  -2.475   0.000  0.00  0.00    +0.013 C 
ATOM     20  C   UNL     1       0.000  -1.650   0.000  0.00  0.00    +0.058 C 
ENDBRANCH  18  20
ENDBRANCH  12  18
ENDBRANCH   1  13
TORSDOF 4
