REMARK  Name = 
REMARK  5 active torsions:
REMARK  status: ('A' for Active; 'I' for Inactive)
REMARK    1  A    between atoms: S_2  and  N_4
REMARK    2  A    between atoms: S_2  and  N_13
REMARK    3  A    between atoms: N_4  and  C_5
REMARK    4  A    between atoms: C_5  and  C_6
REMARK    5  A    between atoms: C_6  and  C_7
REMARK                            x       y       z     vdW  Elec       q    Type
REMARK                         _______ _______ _______ _____ _____    ______ ____
ROOT
ATOM      1  O   UNL     1       4.699  -1.540   0.000  0.00  0.00    -0.140 OA
ATOM      2  S   UNL     1       4.287  -0.825   0.000  0.00  0.00    +0.116 S 
ATOM      3  O   UNL     1       3.874  -0.111   0.000  0.00  0.00    -0.140 OA
ENDROOT
BRANCH   2   4
ATOM      4  N   UNL     1       5.001  -0.412   0.000  0.00  0.00    -0.144 NA
ATOM      5  C   UNL     1       5.716  -0.825   0.000  0.00  0.00    +0.097 C 
ATOM      6  C   UNL     1       6.430  -0.412   0.000  0.00  0.00    +0.019 C 
ATOM      7  C   UNL     1       6.430   0.412   0.000  0.00  0.00    +0.003 C 
ATOM      8  C   UNL     1       5.716   0.825   0.000  0.00  0.00    +0.019 C 
ATOM      9  C   UNL     1       5.001   0.412   0.000  0.00  0.00    +0.097 C 
ENDBRANCH   2   4
BRANCH   2  10
ATOM     10  N   UNL     1       3.572  -1.238   0.000  0.00  0.00    -0.066 NA
BRANCH  10  11
ATOM     11  C   UNL     1       3.572  -2.062   0.000  0.00  0.00    +0.123 C 
BRANCH  11  12
ATOM     12  C   UNL     1       2.858  -2.475   0.000  0.00  0.00    +0.067 C 
BRANCH  12  13
ATOM     13  C   UNL     1       2.858  -3.300   0.000  0.00  0.00    +0.061 A 
ATOM     14  N   UNL     1       2.143  -3.712   0.000  0.00  0.00    -0.248 NA
ATOM     15  C   UNL     1       2.143  -4.537   0.000  0.00  0.00    +0.098 A 
ATOM     16  C   UNL     1       2.858  -4.950   0.000  0.00  0.00    +0.021 A 
ATOM     17  C   UNL     1       3.572  -4.537   0.000  0.00  0.00    +0.003 A 
ATOM     18  C   UNL     1       3.572  -3.712   0.000  0.00  0.00    +0.015 A 
ENDBRANCH  12  13
ENDBRANCH  11  12
ENDBRANCH  10  11
ENDBRANCH   2  10
TORSDOF 5
