REMARK  Name = 
REMARK  4 active torsions:
REMARK  status: ('A' for Active; 'I' for Inactive)
REMARK    1  A    between atoms: C_3  and  C_11
REMARK    2  A    between atoms: N_5  and  C_17
REMARK    3  A    between atoms: C_7  and  N_10
REMARK    4  A    between atoms: N_10  and  C_11
REMARK                            x       y       z     vdW  Elec       q    Type
REMARK                         _______ _______ _______ _____ _____    ______ ____
ROOT
ATOM      1  N   UNL     1       0.713  -3.712   0.000  0.00  0.00    -0.153 NA
ATOM      2  C   UNL     1       1.425  -4.125   0.000  0.00  0.00    +0.282 A 
ATOM      3  O   UNL     1       1.425  -4.950   0.000  0.00  0.00    -0.265 OA
ATOM      4  C   UNL     1       2.142  -3.712   0.000  0.00  0.00    +0.075 A 
ATOM      5  C   UNL     1       2.142  -2.888   0.000  0.00  0.00    +0.082 A 
ATOM      6  N   UNL     1       1.425  -2.475   0.000  0.00  0.00    -0.279 N 
ATOM      7  C   UNL     1       0.713  -2.888   0.000  0.00  0.00    +0.353 A 
ATOM      8  O   UNL     1       0.000  -2.475   0.000  0.00  0.00    -0.244 OA
ENDROOT
BRANCH   6   9
ATOM      9  C   UNL     1       1.425  -1.650   0.000  0.00  0.00    +0.111 C 
ATOM     10  C   UNL     1       0.713  -1.238   0.000  0.00  0.00    +0.027 C 
ENDBRANCH   6   9
BRANCH   4  11
ATOM     11  C   UNL     1       2.854  -4.125   0.000  0.00  0.00    +0.146 C 
BRANCH  11  12
ATOM     12  N   UNL     1       3.571  -3.712   0.000  0.00  0.00    -0.215 NA
BRANCH  12  13
ATOM     13  C   UNL     1       4.283  -4.125   0.000  0.00  0.00    +0.147 A 
ATOM     14  C   UNL     1       4.283  -4.950   0.000  0.00  0.00    +0.030 A 
ATOM     15  C   UNL     1       3.571  -5.362   0.000  0.00  0.00    +0.036 C 
ATOM     16  C   UNL     1       5.000  -5.362   0.000  0.00  0.00    +0.099 A 
ATOM     17  N   UNL     1       5.713  -4.950   0.000  0.00  0.00    -0.223 NA
ATOM     18  C   UNL     1       5.713  -4.125   0.000  0.00  0.00    +0.200 A 
ATOM     19  N   UNL     1       5.000  -3.712   0.000  0.00  0.00    -0.208 NA
ENDBRANCH  12  13
ENDBRANCH  11  12
ENDBRANCH   4  11
TORSDOF 4
