REMARK  Name = 
REMARK  2 active torsions:
REMARK  status: ('A' for Active; 'I' for Inactive)
REMARK    1  A    between atoms: N_7  and  C_8
REMARK    2  A    between atoms: C_8  and  C_9
REMARK                            x       y       z     vdW  Elec       q    Type
REMARK                         _______ _______ _______ _____ _____    ______ ____
ROOT
ATOM      1 BR   UNL     1       0.000   0.000   0.000  0.00  0.00    +0.000 Br
ENDROOT
TORSDOF 0
REMARK  Name = 
REMARK  2 active torsions:
REMARK  status: ('A' for Active; 'I' for Inactive)
REMARK    1  A    between atoms: N_7  and  C_8
REMARK    2  A    between atoms: C_8  and  C_9
REMARK                            x       y       z     vdW  Elec       q    Type
REMARK                         _______ _______ _______ _____ _____    ______ ____
ROOT
ATOM      1  C   UNL     1       5.215   0.087   0.000  0.00  0.00    +0.025 A 
ATOM      2  C   UNL     1       4.501  -0.326   0.000  0.00  0.00    +0.034 A 
ATOM      3  C   UNL     1       4.501  -1.151   0.000  0.00  0.00    +0.132 A 
ATOM      4  N   UNL     1       3.786  -1.563   0.000  0.00  0.00    -0.288 N 
ATOM      5  C   UNL     1       3.072  -1.151   0.000  0.00  0.00    +0.124 C 
ATOM      6  C   UNL     1       2.357  -1.563   0.000  0.00  0.00    +0.164 C 
ATOM      7  O   UNL     1       2.357  -2.388   0.000  0.00  0.00    -0.350 OA
ATOM      8  C   UNL     1       3.072  -2.801   0.000  0.00  0.00    +0.164 C 
ATOM      9  C   UNL     1       3.786  -2.388   0.000  0.00  0.00    +0.124 C 
ATOM     10  N   UNL     1       5.215  -1.563   0.000  0.00  0.00    -0.229 NA
ATOM     11  C   UNL     1       5.929  -1.151   0.000  0.00  0.00    +0.100 A 
ATOM     12  C   UNL     1       5.929  -0.326   0.000  0.00  0.00    +0.020 A 
ENDROOT
BRANCH   1  13
ATOM     13  C   UNL     1       5.215   0.912   0.000  0.00  0.00    +0.247 C 
BRANCH  13  17
ATOM     14  C   UNL     1       6.644   3.387   0.000  0.00  0.00    +0.267 C 
ATOM     15  N   UNL     1       6.644   2.562   0.000  0.00  0.00    -0.088 NA
ATOM     16  C   UNL     1       5.929   2.149   0.000  0.00  0.00    +0.455 C 
ATOM     17  N   UNL     1       5.929   1.324   0.000  0.00  0.00    -0.087 NA
ATOM     18  N   UNL     1       5.215   2.562   0.000  0.00  0.00    -0.088 NA
ATOM     19  C   UNL     1       5.215   3.387   0.000  0.00  0.00    +0.267 C 
ENDBRANCH  13  17
ENDBRANCH   1  13
TORSDOF 2
