REMARK  Name = 
REMARK  3 active torsions:
REMARK  status: ('A' for Active; 'I' for Inactive)
REMARK    1  A    between atoms: C_7  and  N_8
REMARK    2  A    between atoms: N_11  and  C_12
REMARK    3  A    between atoms: C_17  and  C_18
REMARK                            x       y       z     vdW  Elec       q    Type
REMARK                         _______ _______ _______ _____ _____    ______ ____
ROOT
ATOM      1  N   UNL     1       0.000  -2.475   0.000  0.00  0.00    -0.161 NA
ATOM      2  C   UNL     1       0.000  -1.650   0.000  0.00  0.00    +0.343 C 
ATOM      3  N   UNL     1       0.715  -1.238   0.000  0.00  0.00    -0.189 NA
ATOM      4  O   UNL     1      -0.715  -1.238   0.000  0.00  0.00    -0.249 OA
ENDROOT
BRANCH   1   7
ATOM      5  C   UNL     1       1.429  -1.650   0.000  0.00  0.00    +0.034 C 
ATOM      6  C   UNL     1       1.429  -2.475   0.000  0.00  0.00    +0.013 A 
ATOM      7  C   UNL     1       0.715  -2.888   0.000  0.00  0.00    +0.074 A 
ATOM      8  C   UNL     1       0.715  -3.712   0.000  0.00  0.00    +0.037 A 
ATOM      9  C   UNL     1       1.429  -4.125   0.000  0.00  0.00    +0.100 A 
ATOM     10  N   UNL     1       2.143  -3.712   0.000  0.00  0.00    -0.243 NA
ATOM     11  C   UNL     1       2.143  -2.888   0.000  0.00  0.00    +0.096 A 
ENDBRANCH   1   7
BRANCH   3  12
ATOM     12  C   UNL     1       0.715  -0.412   0.000  0.00  0.00    +0.099 C 
ATOM     13  C   UNL     1       1.429   0.000   0.000  0.00  0.00    +0.053 C 
ATOM     14  C   UNL     1       1.429   0.825   0.000  0.00  0.00    +0.004 C 
ATOM     15  C   UNL     1       0.715   1.238   0.000  0.00  0.00    +0.000 C 
ATOM     16  C   UNL     1       0.000   0.825   0.000  0.00  0.00    +0.002 C 
ATOM     17  C   UNL     1       0.000   0.000   0.000  0.00  0.00    +0.022 C 
BRANCH  13  18
ATOM     18  C   UNL     1       2.143  -0.412   0.000  0.00  0.00    +0.184 C 
ATOM     19  O   UNL     1       2.143  -1.238   0.000  0.00  0.00    -0.220 OA
ENDBRANCH  13  18
ENDBRANCH   3  12
TORSDOF 3
