REMARK  Name = 
REMARK  5 active torsions:
REMARK  status: ('A' for Active; 'I' for Inactive)
REMARK    1  A    between atoms: O_2  and  C_3
REMARK    2  A    between atoms: C_3  and  C_4
REMARK    3  A    between atoms: C_4  and  N_5
REMARK    4  A    between atoms: C_7  and  C_12
REMARK    5  A    between atoms: N_14  and  C_15
REMARK                            x       y       z     vdW  Elec       q    Type
REMARK                         _______ _______ _______ _____ _____    ______ ____
ROOT
ATOM      1  C   UNL     1       2.858  -4.125   0.000  0.00  0.00    +0.284 C 
ATOM      2  N   UNL     1       3.572  -3.712   0.000  0.00  0.00    -0.202 NA
ATOM      3  O   UNL     1       2.858  -4.950   0.000  0.00  0.00    -0.267 OA
ENDROOT
BRANCH   2   4
ATOM      4  C   UNL     1       4.287  -4.125   0.000  0.00  0.00    +0.099 C 
ATOM      5  C   UNL     1       4.287  -4.950   0.000  0.00  0.00    +0.043 C 
ATOM      6  C   UNL     1       5.001  -5.362   0.000  0.00  0.00    +0.095 C 
ATOM      7  N   UNL     1       5.716  -4.950   0.000  0.00  0.00    -0.279 N 
ATOM      8  C   UNL     1       6.430  -5.362   0.000  0.00  0.00    +0.226 C 
ATOM      9  C   UNL     1       6.430  -6.188   0.000  0.00  0.00    +0.095 C 
ATOM     10  O   UNL     1       7.145  -4.950   0.000  0.00  0.00    -0.275 OA
ATOM     11  C   UNL     1       5.716  -4.125   0.000  0.00  0.00    +0.095 C 
ATOM     12  C   UNL     1       5.001  -3.712   0.000  0.00  0.00    +0.043 C 
ENDBRANCH   2   4
BRANCH   1  18
ATOM     13  N   UNL     1       1.429  -2.475   0.000  0.00  0.00    -0.214 N 
ATOM     14  C   UNL     1       0.715  -2.888   0.000  0.00  0.00    +0.277 A 
ATOM     15  O   UNL     1       0.000  -2.475   0.000  0.00  0.00    -0.266 OA
ATOM     16  C   UNL     1       0.715  -3.712   0.000  0.00  0.00    +0.064 A 
ATOM     17  C   UNL     1       1.429  -4.125   0.000  0.00  0.00    +0.030 A 
ATOM     18  C   UNL     1       2.143  -3.712   0.000  0.00  0.00    +0.156 A 
ATOM     19  N   UNL     1       2.143  -2.888   0.000  0.00  0.00    -0.162 NA
BRANCH  13  20
ATOM     20  C   UNL     1       1.429  -1.650   0.000  0.00  0.00    +0.163 C 
BRANCH  20  21
ATOM     21  C   UNL     1       0.715  -1.238   0.000  0.00  0.00    +0.169 C 
BRANCH  21  23
ATOM     22  C   UNL     1       0.000   0.000   0.000  0.00  0.00    +0.174 C 
ATOM     23  O   UNL     1       0.715  -0.412   0.000  0.00  0.00    -0.349 OA
ENDBRANCH  21  23
ENDBRANCH  20  21
ENDBRANCH  13  20
ENDBRANCH   1  18
TORSDOF 5
