REMARK  Name = 
REMARK  6 active torsions:
REMARK  status: ('A' for Active; 'I' for Inactive)
REMARK    1  A    between atoms: C_2  and  C_3
REMARK    2  A    between atoms: C_3  and  C_5
REMARK    3  A    between atoms: C_3  and  N_16
REMARK    4  A    between atoms: C_5  and  N_6
REMARK    5  A    between atoms: C_7  and  C_9
REMARK    6  A    between atoms: C_9  and  N_11
REMARK                            x       y       z     vdW  Elec       q    Type
REMARK                         _______ _______ _______ _____ _____    ______ ____
ROOT
ATOM      1  C   UNL     1       0.715  -2.062   0.000  0.00  0.00    +0.130 C 
ENDROOT
BRANCH   1   2
ATOM      2  N   UNL     1       1.429  -2.475   0.000  0.00  0.00    -0.202 NA
ATOM      3  C   UNL     1       1.429  -3.300   0.000  0.00  0.00    +0.264 C 
ATOM      4  O   UNL     1       0.715  -3.712   0.000  0.00  0.00    -0.271 OA
BRANCH   3   5
ATOM      5  C   UNL     1       2.143  -3.712   0.000  0.00  0.00    +0.184 C 
ATOM      6  C   UNL     1       2.858  -3.300   0.000  0.00  0.00    +0.036 C 
BRANCH   5   7
ATOM      7  N   UNL     1       2.143  -4.537   0.000  0.00  0.00    -0.223 N 
ATOM      8  N   UNL     1       1.476  -5.022   0.000  0.00  0.00    -0.145 NA
ATOM      9  C   UNL     1       1.731  -5.807   0.000  0.00  0.00    +0.221 A 
ATOM     10  N   UNL     1       2.556  -5.807   0.000  0.00  0.00    -0.201 NA
ATOM     11  C   UNL     1       2.811  -5.022   0.000  0.00  0.00    +0.198 A 
ENDBRANCH   5   7
ENDBRANCH   3   5
ENDBRANCH   1   2
BRANCH   1  12
ATOM     12  C   UNL     1       0.715  -1.238   0.000  0.00  0.00    +0.066 C 
ATOM     13  C   UNL     1       1.540  -1.238   0.000  0.00  0.00    +0.018 C 
BRANCH  12  14
ATOM     14  N   UNL     1       0.715  -0.412   0.000  0.00  0.00    -0.269 NA
ATOM     15  C   UNL     1       1.429   0.000   0.000  0.00  0.00    +0.105 C 
ATOM     16  C   UNL     1       1.429   0.825   0.000  0.00  0.00    +0.159 C 
ATOM     17  O   UNL     1       0.715   1.238   0.000  0.00  0.00    -0.351 OA
ATOM     18  C   UNL     1       0.000   0.825   0.000  0.00  0.00    +0.159 C 
ATOM     19  C   UNL     1       0.000   0.000   0.000  0.00  0.00    +0.105 C 
ENDBRANCH  12  14
BRANCH  12  21
ATOM     20  C   UNL     1      -0.523  -0.523   0.000  0.00  0.00    +0.001 C 
ATOM     21  C   UNL     1      -0.111  -1.238   0.000  0.00  0.00    +0.016 C 
ENDBRANCH  12  21
ENDBRANCH   1  12
TORSDOF 6
