REMARK  Name = 
REMARK  6 active torsions:
REMARK  status: ('A' for Active; 'I' for Inactive)
REMARK    1  A    between atoms: C_2  and  C_3
REMARK    2  A    between atoms: C_3  and  N_4
REMARK    3  A    between atoms: N_7  and  C_8
REMARK    4  A    between atoms: C_8  and  C_9
REMARK    5  A    between atoms: C_9  and  C_11
REMARK    6  A    between atoms: C_11  and  N_12
REMARK                            x       y       z     vdW  Elec       q    Type
REMARK                         _______ _______ _______ _____ _____    ______ ____
ROOT
ATOM      1  N   UNL     1       1.139  -1.365   0.000  0.00  0.00    -0.280 N 
ATOM      2  C   UNL     1       1.923  -1.110   0.000  0.00  0.00    +0.080 A 
ATOM      3  C   UNL     1       1.923  -0.285   0.000  0.00  0.00    +0.080 A 
ATOM      4  C   UNL     1       2.638   0.127   0.000  0.00  0.00    +0.019 A 
ATOM      5  C   UNL     1       3.352  -0.285   0.000  0.00  0.00    +0.002 A 
ATOM      6  C   UNL     1       3.352  -1.110   0.000  0.00  0.00    +0.002 A 
ATOM      7  N   UNL     1       1.139  -0.030   0.000  0.00  0.00    -0.277 N 
ATOM      8  C   UNL     1       2.638  -1.523   0.000  0.00  0.00    +0.019 A 
ATOM      9  C   UNL     1       0.654  -0.698   0.000  0.00  0.00    +0.332 A 
ATOM     10  O   UNL     1      -0.171  -0.698   0.000  0.00  0.00    -0.246 OA
ENDROOT
BRANCH   1  11
ATOM     11  C   UNL     1       0.884  -2.150   0.000  0.00  0.00    +0.111 C 
BRANCH  11  13
ATOM     12  C   UNL     1       1.181  -3.548   0.000  0.00  0.00    +0.002 C 
ATOM     13  C   UNL     1       1.436  -2.763   0.000  0.00  0.00    +0.025 C 
ENDBRANCH  11  13
ENDBRANCH   1  11
BRANCH   7  14
ATOM     14  C   UNL     1       0.884   0.754   0.000  0.00  0.00    +0.145 C 
BRANCH  14  15
ATOM     15  C   UNL     1       1.436   1.367   0.000  0.00  0.00    +0.190 C 
ATOM     16  O   UNL     1       2.243   1.196   0.000  0.00  0.00    -0.220 OA
BRANCH  15  17
ATOM     17  C   UNL     1       1.181   2.152   0.000  0.00  0.00    +0.108 C 
BRANCH  17  18
ATOM     18  N   UNL     1       1.733   2.765   0.000  0.00  0.00    -0.266 NA
ATOM     19  C   UNL     1       2.540   2.593   0.000  0.00  0.00    +0.105 C 
ATOM     20  C   UNL     1       3.092   3.207   0.000  0.00  0.00    +0.159 C 
ATOM     21  O   UNL     1       2.837   3.991   0.000  0.00  0.00    -0.351 OA
ATOM     22  C   UNL     1       2.030   4.163   0.000  0.00  0.00    +0.159 C 
ATOM     23  C   UNL     1       1.478   3.550   0.000  0.00  0.00    +0.105 C 
ENDBRANCH  17  18
ENDBRANCH  15  17
ENDBRANCH  14  15
ENDBRANCH   7  14
TORSDOF 6
