REMARK  Name = 
REMARK  7 active torsions:
REMARK  status: ('A' for Active; 'I' for Inactive)
REMARK    1  A    between atoms: O_2  and  C_3
REMARK    2  A    between atoms: C_3  and  C_4
REMARK    3  A    between atoms: C_4  and  C_6
REMARK    4  A    between atoms: C_4  and  N_10
REMARK    5  A    between atoms: C_6  and  C_7
REMARK    6  A    between atoms: C_11  and  C_13
REMARK    7  A    between atoms: C_13  and  C_14
REMARK                            x       y       z     vdW  Elec       q    Type
REMARK                         _______ _______ _______ _____ _____    ______ ____
ROOT
ATOM      1  N   UNL     1      -0.147   3.177   0.000  0.00  0.00    -0.205 NA
ATOM      2  C   UNL     1      -0.147   2.352   0.000  0.00  0.00    +0.248 C 
ATOM      3  O   UNL     1      -0.861   1.939   0.000  0.00  0.00    -0.273 OA
ENDROOT
BRANCH   1   4
ATOM      4  C   UNL     1      -0.861   3.589   0.000  0.00  0.00    +0.117 C 
ATOM      5  C   UNL     1      -1.274   2.875   0.000  0.00  0.00    +0.025 C 
BRANCH   4   6
ATOM      6  C   UNL     1      -1.576   4.002   0.000  0.00  0.00    +0.163 C 
BRANCH   6   8
ATOM      7  C   UNL     1      -2.290   5.239   0.000  0.00  0.00    +0.174 C 
ATOM      8  O   UNL     1      -1.576   4.827   0.000  0.00  0.00    -0.349 OA
ENDBRANCH   6   8
ENDBRANCH   4   6
BRANCH   4   9
ATOM      9  C   UNL     1      -0.449   4.304   0.000  0.00  0.00    +0.136 C 
BRANCH   9  10
ATOM     10  C   UNL     1       0.376   4.304   0.000  0.00  0.00    +0.367 C 
ATOM     11  O   UNL     1       0.789   5.018   0.000  0.00  0.00    -0.246 OA
ATOM     12  O   UNL     1       0.789   3.589   0.000  0.00  0.00    -0.246 OA
ENDBRANCH   9  10
ENDBRANCH   4   9
ENDBRANCH   1   4
BRANCH   2  13
ATOM     13  C   UNL     1       0.568   1.939   0.000  0.00  0.00    +0.136 C 
BRANCH  13  14
ATOM     14  C   UNL     1       0.568   1.114   0.000  0.00  0.00    +0.110 A 
ATOM     15  N   UNL     1      -0.100   0.629   0.000  0.00  0.00    -0.081 NA
ATOM     16  O   UNL     1       0.155  -0.155   0.000  0.00  0.00    -0.358 OA
ATOM     17  C   UNL     1       0.980  -0.155   0.000  0.00  0.00    +0.155 A 
ATOM     18  C   UNL     1       1.465  -0.823   0.000  0.00  0.00    +0.075 C 
ATOM     19  C   UNL     1       1.235   0.629   0.000  0.00  0.00    +0.054 A 
ENDBRANCH  13  14
ENDBRANCH   2  13
TORSDOF 7
