REMARK  Name = 
REMARK  3 active torsions:
REMARK  status: ('A' for Active; 'I' for Inactive)
REMARK    1  A    between atoms: N_2  and  C_4
REMARK    2  A    between atoms: C_4  and  C_5
REMARK    3  A    between atoms: C_5  and  N_6
REMARK                            x       y       z     vdW  Elec       q    Type
REMARK                         _______ _______ _______ _____ _____    ______ ____
ROOT
ATOM      1  C   UNL     1      -0.891  -1.939   0.000  0.00  0.00    +0.066 C 
ATOM      2  C   UNL     1      -1.134  -1.151   0.000  0.00  0.00    +0.016 C 
ATOM      3  C   UNL     1      -1.902  -0.850   0.000  0.00  0.00    +0.001 C 
ATOM      4  C   UNL     1      -2.616  -1.262   0.000  0.00  0.00    +0.000 C 
ATOM      5  C   UNL     1      -2.739  -2.078   0.000  0.00  0.00    +0.000 C 
ATOM      6  C   UNL     1      -2.178  -2.683   0.000  0.00  0.00    +0.001 C 
ATOM      7  C   UNL     1      -1.355  -2.621   0.000  0.00  0.00    +0.016 C 
ENDROOT
BRANCH   1   9
ATOM      8  C   UNL     1      -0.573  -3.332   0.000  0.00  0.00    +0.090 C 
ATOM      9  N   UNL     1      -0.330  -2.544   0.000  0.00  0.00    -0.271 NA
ATOM     10  C   UNL     1       0.475  -2.361   0.000  0.00  0.00    +0.090 C 
ENDBRANCH   1   9
BRANCH   1  11
ATOM     11  C   UNL     1      -0.176  -1.527   0.000  0.00  0.00    +0.131 C 
BRANCH  11  12
ATOM     12  N   UNL     1       0.538  -1.939   0.000  0.00  0.00    -0.185 NA
ATOM     13  C   UNL     1       1.253  -1.527   0.000  0.00  0.00    +0.345 C 
ATOM     14  N   UNL     1       1.967  -1.939   0.000  0.00  0.00    -0.134 NA
ATOM     15  C   UNL     1       2.682  -1.527   0.000  0.00  0.00    +0.209 A 
ATOM     16  S   UNL     1       3.435  -1.862   0.000  0.00  0.00    -0.027 S 
ATOM     17  C   UNL     1       3.987  -1.249   0.000  0.00  0.00    +0.161 A 
ATOM     18  N   UNL     1       3.575  -0.535   0.000  0.00  0.00    -0.137 NA
ATOM     19  N   UNL     1       2.768  -0.706   0.000  0.00  0.00    -0.123 NA
ATOM     20  O   UNL     1       1.253  -0.702   0.000  0.00  0.00    -0.249 OA
ENDBRANCH  11  12
ENDBRANCH   1  11
TORSDOF 3
