REMARK  Name = 
REMARK  5 active torsions:
REMARK  status: ('A' for Active; 'I' for Inactive)
REMARK    1  A    between atoms: C_2  and  N_3
REMARK    2  A    between atoms: C_6  and  C_7
REMARK    3  A    between atoms: C_7  and  N_8
REMARK    4  A    between atoms: N_11  and  C_12
REMARK    5  A    between atoms: C_15  and  O_16
REMARK                            x       y       z     vdW  Elec       q    Type
REMARK                         _______ _______ _______ _____ _____    ______ ____
ROOT
ATOM      1  N   UNL     1       1.429  -2.475   0.000  0.00  0.00    -0.187 NA
ATOM      2  C   UNL     1       2.143  -2.888   0.000  0.00  0.00    +0.344 C 
ATOM      3  N   UNL     1       2.858  -2.475   0.000  0.00  0.00    -0.159 NA
ATOM      4  O   UNL     1       2.143  -3.712   0.000  0.00  0.00    -0.249 OA
ENDROOT
BRANCH   3   5
ATOM      5  C   UNL     1       3.572  -2.888   0.000  0.00  0.00    +0.094 A 
ATOM      6  C   UNL     1       3.572  -3.712   0.000  0.00  0.00    +0.119 A 
ATOM      7  N   UNL     1       4.287  -4.125   0.000  0.00  0.00    -0.209 NA
ATOM      8  C   UNL     1       5.001  -3.712   0.000  0.00  0.00    +0.225 A 
ATOM      9  C   UNL     1       5.001  -2.888   0.000  0.00  0.00    +0.059 A 
ATOM     10  C   UNL     1       4.287  -2.475   0.000  0.00  0.00    +0.023 A 
BRANCH   8  11
ATOM     11  O   UNL     1       5.716  -4.125   0.000  0.00  0.00    -0.456 OA
ATOM     12  C   UNL     1       6.430  -3.712   0.000  0.00  0.00    +0.254 C 
ENDBRANCH   8  11
ENDBRANCH   3   5
BRANCH   1  13
ATOM     13  C   UNL     1       0.715  -2.888   0.000  0.00  0.00    +0.118 C 
BRANCH  13  16
ATOM     14  N   UNL     1      -1.306  -2.197   0.000  0.00  0.00    -0.273 NA
ATOM     15  C   UNL     1      -0.754  -2.811   0.000  0.00  0.00    +0.074 C 
ATOM     16  C   UNL     1       0.000  -2.475   0.000  0.00  0.00    +0.039 C 
ATOM     17  C   UNL     1      -0.086  -1.655   0.000  0.00  0.00    +0.020 C 
ATOM     18  C   UNL     1      -0.893  -1.483   0.000  0.00  0.00    +0.072 C 
BRANCH  14  20
ATOM     19  C   UNL     1      -2.611  -1.616   0.000  0.00  0.00    +0.019 C 
ATOM     20  C   UNL     1      -2.126  -2.284   0.000  0.00  0.00    +0.072 C 
ENDBRANCH  14  20
ENDBRANCH  13  16
ENDBRANCH   1  13
TORSDOF 5
