REMARK  Name = 
REMARK  8 active torsions:
REMARK  status: ('A' for Active; 'I' for Inactive)
REMARK    1  A    between atoms: C_2  and  C_3
REMARK    2  A    between atoms: C_3  and  N_4
REMARK    3  A    between atoms: C_6  and  C_11
REMARK    4  A    between atoms: N_13  and  C_14
REMARK    5  A    between atoms: C_14  and  C_15
REMARK    6  A    between atoms: N_17  and  C_18
REMARK    7  A    between atoms: C_18  and  C_19
REMARK    8  A    between atoms: C_19  and  C_20
REMARK                            x       y       z     vdW  Elec       q    Type
REMARK                         _______ _______ _______ _____ _____    ______ ____
ROOT
ATOM      1  N   UNL     1       1.429  -4.125   0.000  0.00  0.00    -0.285 N 
ATOM      2  C   UNL     1       0.715  -3.712   0.000  0.00  0.00    +0.261 A 
ATOM      3  O   UNL     1       0.715  -2.888   0.000  0.00  0.00    -0.267 OA
ATOM      4  C   UNL     1       0.000  -4.125   0.000  0.00  0.00    +0.061 A 
ATOM      5  C   UNL     1       0.000  -4.950   0.000  0.00  0.00    +0.011 A 
ATOM      6  C   UNL     1       0.715  -5.362   0.000  0.00  0.00    +0.072 A 
ATOM      7  C   UNL     1       1.429  -4.950   0.000  0.00  0.00    +0.083 A 
ENDROOT
BRANCH   6   8
ATOM      8  C   UNL     1       0.715  -6.188   0.000  0.00  0.00    +0.267 C 
ATOM      9  N   UNL     1       0.000  -6.600   0.000  0.00  0.00    -0.187 NA
ATOM     10  O   UNL     1       1.429  -6.600   0.000  0.00  0.00    -0.268 OA
BRANCH   9  11
ATOM     11  C   UNL     1       0.000  -7.425   0.000  0.00  0.00    +0.192 C 
BRANCH  11  12
ATOM     12  C   UNL     1      -0.715  -7.838   0.000  0.00  0.00    -0.054 C 
ATOM     13  C   UNL     1      -1.429  -8.250   0.000  0.00  0.00    -0.012 C 
ENDBRANCH  11  12
ENDBRANCH   9  11
ENDBRANCH   6   8
BRANCH   1  14
ATOM     14  C   UNL     1       2.143  -3.712   0.000  0.00  0.00    +0.196 C 
BRANCH  14  16
ATOM     15  O   UNL     1       2.858  -4.950   0.000  0.00  0.00    -0.271 OA
ATOM     16  C   UNL     1       2.858  -4.125   0.000  0.00  0.00    +0.265 C 
ATOM     17  N   UNL     1       3.572  -3.712   0.000  0.00  0.00    -0.203 NA
BRANCH  17  18
ATOM     18  C   UNL     1       4.287  -4.125   0.000  0.00  0.00    +0.120 C 
BRANCH  18  19
ATOM     19  C   UNL     1       5.001  -3.712   0.000  0.00  0.00    +0.045 C 
BRANCH  19  20
ATOM     20  C   UNL     1       5.716  -4.125   0.000  0.00  0.00    -0.047 C 
ATOM     21  C   UNL     1       5.716  -4.950   0.000  0.00  0.00    +0.022 C 
ATOM     22  C   UNL     1       6.430  -5.362   0.000  0.00  0.00    +0.005 C 
ATOM     23  C   UNL     1       7.145  -4.950   0.000  0.00  0.00    +0.005 C 
ATOM     24  C   UNL     1       7.145  -4.125   0.000  0.00  0.00    +0.025 C 
ATOM     25  C   UNL     1       6.430  -3.712   0.000  0.00  0.00    -0.035 C 
ENDBRANCH  19  20
ENDBRANCH  18  19
ENDBRANCH  17  18
ENDBRANCH  14  16
ENDBRANCH   1  14
TORSDOF 8
