REMARK  Name = 
REMARK  5 active torsions:
REMARK  status: ('A' for Active; 'I' for Inactive)
REMARK    1  A    between atoms: C_2  and  C_3
REMARK    2  A    between atoms: C_8  and  N_9
REMARK    3  A    between atoms: N_12  and  C_13
REMARK    4  A    between atoms: C_13  and  C_14
REMARK    5  A    between atoms: C_14  and  O_18
REMARK                            x       y       z     vdW  Elec       q    Type
REMARK                         _______ _______ _______ _____ _____    ______ ____
ROOT
ATOM      1  N   UNL     1       1.793   0.111   0.000  0.00  0.00    -0.158 NA
ATOM      2  C   UNL     1       2.507  -0.302   0.000  0.00  0.00    +0.344 C 
ATOM      3  N   UNL     1       3.221   0.111   0.000  0.00  0.00    -0.184 NA
ATOM      4  O   UNL     1       2.507  -1.127   0.000  0.00  0.00    -0.249 OA
ENDROOT
BRANCH   1   6
ATOM      5  C   UNL     1       0.992  -1.123   0.000  0.00  0.00    +0.095 A 
ATOM      6  C   UNL     1       1.078  -0.302   0.000  0.00  0.00    +0.109 A 
ATOM      7  C   UNL     1       0.324   0.034   0.000  0.00  0.00    +0.113 A 
ATOM      8  N   UNL     1      -0.228  -0.580   0.000  0.00  0.00    -0.246 N 
ATOM      9  C   UNL     1      -1.048  -0.493   0.000  0.00  0.00    +0.154 C 
ATOM     10  N   UNL     1       0.185  -1.294   0.000  0.00  0.00    -0.172 NA
BRANCH   5  12
ATOM     11  C   UNL     1       1.433  -2.482   0.000  0.00  0.00    +0.007 C 
ATOM     12  C   UNL     1       1.605  -1.675   0.000  0.00  0.00    +0.049 C 
ENDBRANCH   5  12
ENDBRANCH   1   6
BRANCH   3  13
ATOM     13  C   UNL     1       3.936  -0.302   0.000  0.00  0.00    +0.144 C 
BRANCH  13  14
ATOM     14  C   UNL     1       4.651   0.111   0.000  0.00  0.00    +0.113 C 
ATOM     15  C   UNL     1       5.063  -0.604   0.000  0.00  0.00    +0.029 C 
ATOM     16  C   UNL     1       5.777  -0.191   0.000  0.00  0.00    +0.005 C 
ATOM     17  C   UNL     1       5.365   0.523   0.000  0.00  0.00    +0.029 C 
BRANCH  14  18
ATOM     18  O   UNL     1       4.238   0.825   0.000  0.00  0.00    -0.354 OA
ATOM     19  C   UNL     1       4.651   1.540   0.000  0.00  0.00    +0.174 C 
ENDBRANCH  14  18
ENDBRANCH  13  14
ENDBRANCH   3  13
TORSDOF 5
