REMARK  Name = 
REMARK  3 active torsions:
REMARK  status: ('A' for Active; 'I' for Inactive)
REMARK    1  A    between atoms: C_1  and  C_4
REMARK    2  A    between atoms: C_3  and  C_8
REMARK    3  A    between atoms: N_6  and  C_8
REMARK                            x       y       z     vdW  Elec       q    Type
REMARK                         _______ _______ _______ _____ _____    ______ ____
ROOT
ATOM      1  C   UNK     1       0.346  -5.154   0.000  0.00  0.00    +0.136 A 
ATOM      2  C   UNK     1      -0.408  -5.487   0.000  0.00  0.00    +0.201 A 
ATOM      3  O   UNK     1      -0.958  -4.875   0.000  0.00  0.00    -0.434 OA
ATOM      4  C   UNK     1      -0.546  -4.162   0.000  0.00  0.00    +0.222 A 
ATOM      5  N   UNK     1       0.263  -4.333   0.000  0.00  0.00    -0.210 NA
ENDROOT
BRANCH   1   6
ATOM      6  C   UNK     1       1.062  -5.567   0.000  0.00  0.00    +0.094 C 
ATOM      7  O   UNK     1       1.775  -5.154   0.000  0.00  0.00    -0.543 OA
ATOM      8  O   UNK     1       1.062  -6.392   0.000  0.00  0.00    -0.543 OA
ENDBRANCH   1   6
BRANCH   4   9
ATOM      9  C   UNK     1      -0.883  -3.408   0.000  0.00  0.00    +0.159 C 
BRANCH   9  10
ATOM     10  N   UNK     1      -0.396  -2.742   0.000  0.00  0.00    -0.263 NA
ATOM     11  C   UNK     1       0.429  -2.742   0.000  0.00  0.00    +0.075 C 
ATOM     12  C   UNK     1       0.683  -1.954   0.000  0.00  0.00    +0.052 C 
ATOM     13  C   UNK     1       0.017  -1.471   0.000  0.00  0.00    +0.169 C 
ATOM     14  O   UNK     1       0.017  -0.646   0.000  0.00  0.00    -0.222 OA
ATOM     15  C   UNK     1      -0.650  -1.954   0.000  0.00  0.00    +0.106 C 
ENDBRANCH   9  10
ENDBRANCH   4   9
TORSDOF 3
REMARK  Name = 
REMARK  3 active torsions:
REMARK  status: ('A' for Active; 'I' for Inactive)
REMARK    1  A    between atoms: C_1  and  C_4
REMARK    2  A    between atoms: C_3  and  C_8
REMARK    3  A    between atoms: N_6  and  C_8
REMARK                            x       y       z     vdW  Elec       q    Type
REMARK                         _______ _______ _______ _____ _____    ______ ____
ROOT
ATOM      1  K   UNL     1       1.062  -7.217   0.000  0.00  0.00    +0.000 K 
ENDROOT
TORSDOF 0
