REMARK  Name = 
REMARK  6 active torsions:
REMARK  status: ('A' for Active; 'I' for Inactive)
REMARK    1  A    between atoms: C_2  and  C_4
REMARK    2  A    between atoms: C_4  and  N_5
REMARK    3  A    between atoms: C_9  and  C_10
REMARK    4  A    between atoms: C_10  and  N_11
REMARK    5  A    between atoms: C_12  and  C_14
REMARK    6  A    between atoms: C_14  and  N_15
REMARK                            x       y       z     vdW  Elec       q    Type
REMARK                         _______ _______ _______ _____ _____    ______ ____
ROOT
ATOM      1  N   UNL     1       1.429  -2.475   0.000  0.00  0.00    -0.201 NA
ATOM      2  C   UNL     1       2.143  -2.888   0.000  0.00  0.00    +0.265 C 
ATOM      3  O   UNL     1       2.143  -3.712   0.000  0.00  0.00    -0.271 OA
ENDROOT
BRANCH   2   4
ATOM      4  C   UNL     1       2.858  -2.475   0.000  0.00  0.00    +0.196 C 
BRANCH   4   5
ATOM      5  N   UNL     1       3.572  -2.888   0.000  0.00  0.00    -0.285 N 
ATOM      6  C   UNL     1       3.572  -3.712   0.000  0.00  0.00    +0.261 A 
ATOM      7  O   UNL     1       2.858  -4.125   0.000  0.00  0.00    -0.267 OA
ATOM      8  C   UNL     1       4.287  -4.125   0.000  0.00  0.00    +0.057 A 
ATOM      9  C   UNL     1       5.001  -3.712   0.000  0.00  0.00    -0.016 A 
ATOM     10  C   UNL     1       5.716  -4.125   0.000  0.00  0.00    +0.031 C 
ATOM     11  C   UNL     1       5.001  -2.888   0.000  0.00  0.00    +0.015 A 
ATOM     12  C   UNL     1       4.287  -2.475   0.000  0.00  0.00    +0.078 A 
ENDBRANCH   4   5
ENDBRANCH   2   4
BRANCH   1  13
ATOM     13  C   UNL     1       0.715  -2.888   0.000  0.00  0.00    +0.146 C 
BRANCH  13  16
ATOM     14  N   UNL     1      -1.429  -2.475   0.000  0.00  0.00    -0.268 NA
ATOM     15  C   UNL     1      -0.715  -2.888   0.000  0.00  0.00    +0.104 C 
ATOM     16  C   UNL     1       0.000  -2.475   0.000  0.00  0.00    +0.153 C 
ATOM     17  O   UNL     1       0.000  -1.650   0.000  0.00  0.00    -0.352 OA
ATOM     18  C   UNL     1      -0.715  -1.238   0.000  0.00  0.00    +0.159 C 
ATOM     19  C   UNL     1      -1.429  -1.650   0.000  0.00  0.00    +0.105 C 
BRANCH  14  20
ATOM     20  C   UNL     1      -2.143  -2.888   0.000  0.00  0.00    +0.072 C 
BRANCH  20  22
ATOM     21  C   UNL     1      -3.572  -2.888   0.000  0.00  0.00    +0.001 C 
ATOM     22  C   UNL     1      -2.858  -2.475   0.000  0.00  0.00    +0.016 C 
ATOM     23  C   UNL     1      -2.858  -1.650   0.000  0.00  0.00    +0.001 C 
ENDBRANCH  20  22
ENDBRANCH  14  20
ENDBRANCH  13  16
ENDBRANCH   1  13
TORSDOF 6
