REMARK  Name = 
REMARK  4 active torsions:
REMARK  status: ('A' for Active; 'I' for Inactive)
REMARK    1  A    between atoms: C_2  and  C_3
REMARK    2  A    between atoms: C_2  and  N_15
REMARK    3  A    between atoms: C_3  and  C_4
REMARK    4  A    between atoms: C_4  and  N_5
REMARK                            x       y       z     vdW  Elec       q    Type
REMARK                         _______ _______ _______ _____ _____    ______ ____
ROOT
ATOM      1  C   UNL     1       2.143  -2.062   0.000  0.00  0.00    +0.118 C 
ENDROOT
BRANCH   1   2
ATOM      2  N   UNL     1       2.858  -1.650   0.000  0.00  0.00    -0.187 NA
ATOM      3  C   UNL     1       3.572  -2.062   0.000  0.00  0.00    +0.346 C 
ATOM      4  N   UNL     1       4.287  -1.650   0.000  0.00  0.00    -0.125 NA
ATOM      5  C   UNL     1       5.001  -2.062   0.000  0.00  0.00    +0.243 A 
ATOM      6  N   UNL     1       5.088  -2.883   0.000  0.00  0.00    -0.217 N 
ATOM      7  C   UNL     1       4.474  -3.435   0.000  0.00  0.00    +0.157 C 
ATOM      8  N   UNL     1       5.894  -3.054   0.000  0.00  0.00    -0.144 NA
ATOM      9  C   UNL     1       6.307  -2.340   0.000  0.00  0.00    +0.222 A 
ATOM     10  N   UNL     1       5.755  -1.727   0.000  0.00  0.00    -0.189 NA
ATOM     11  O   UNL     1       3.572  -2.888   0.000  0.00  0.00    -0.249 OA
ENDBRANCH   1   2
BRANCH   1  12
ATOM     12  C   UNL     1       1.429  -1.650   0.000  0.00  0.00    +0.039 C 
BRANCH  12  14
ATOM     13  C   UNL     1       0.715  -2.888   0.000  0.00  0.00    +0.017 C 
ATOM     14  C   UNL     1       0.715  -2.062   0.000  0.00  0.00    +0.059 C 
BRANCH  14  15
ATOM     15  N   UNL     1       0.000  -1.650   0.000  0.00  0.00    -0.274 NA
ATOM     16  C   UNL     1       0.000  -0.825   0.000  0.00  0.00    +0.072 C 
ATOM     17  C   UNL     1      -0.715  -0.412   0.000  0.00  0.00    +0.017 C 
ATOM     18  C   UNL     1      -1.429  -0.825   0.000  0.00  0.00    +0.003 C 
ATOM     19  C   UNL     1      -1.429  -1.650   0.000  0.00  0.00    +0.017 C 
ATOM     20  C   UNL     1      -0.715  -2.062   0.000  0.00  0.00    +0.072 C 
ENDBRANCH  14  15
ENDBRANCH  12  14
ENDBRANCH   1  12
TORSDOF 4
