REMARK  Name = 
REMARK  7 active torsions:
REMARK  status: ('A' for Active; 'I' for Inactive)
REMARK    1  A    between atoms: N_2  and  C_10
REMARK    2  A    between atoms: C_4  and  N_7
REMARK    3  A    between atoms: N_7  and  C_11
REMARK    4  A    between atoms: C_10  and  C_14
REMARK    5  A    between atoms: C_11  and  C_12
REMARK    6  A    between atoms: C_12  and  S_13
REMARK    7  A    between atoms: C_14  and  C_19
REMARK                            x       y       z     vdW  Elec       q    Type
REMARK                         _______ _______ _______ _____ _____    ______ ____
ROOT
ATOM      1  C   UNL     1       2.854  -2.475   0.000  0.00  0.00    +0.149 A 
ATOM      2  N   UNL     1       3.029  -3.279   0.000  0.00  0.00    -0.219 NA
ATOM      3  C   UNL     1       3.846  -3.367   0.000  0.00  0.00    +0.180 A 
ATOM      4  N   UNL     1       4.183  -2.612   0.000  0.00  0.00    -0.294 N 
ATOM      5  C   UNL     1       2.142  -2.062   0.000  0.00  0.00    +0.154 A 
ATOM      6  N   UNL     1       2.142  -1.238   0.000  0.00  0.00    -0.207 NA
ATOM      7  C   UNL     1       2.854  -0.825   0.000  0.00  0.00    +0.201 A 
ATOM      8  N   UNL     1       3.571  -1.238   0.000  0.00  0.00    -0.205 NA
ATOM      9  C   UNL     1       3.571  -2.062   0.000  0.00  0.00    +0.167 A 
ENDROOT
BRANCH   5  10
ATOM     10  N   UNL     1       1.425  -2.475   0.000  0.00  0.00    -0.291 N 
ATOM     11  C   UNL     1       1.425  -3.300   0.000  0.00  0.00    +0.114 C 
BRANCH  10  12
ATOM     12  C   UNL     1       0.713  -2.062   0.000  0.00  0.00    +0.088 C 
ATOM     13  C   UNL     1       0.713  -1.238   0.000  0.00  0.00    +0.022 C 
BRANCH  12  14
ATOM     14  C   UNL     1       0.000  -2.475   0.000  0.00  0.00    +0.111 C 
BRANCH  14  15
ATOM     15  S   UNL     1      -0.717  -2.062   0.000  0.00  0.00    +0.044 S 
ATOM     16  C   UNL     1      -0.717  -1.238   0.000  0.00  0.00    +0.106 C 
ATOM     17  O   UNL     1      -1.429  -2.475   0.000  0.00  0.00    -0.256 OA
ENDBRANCH  14  15
ENDBRANCH  12  14
ENDBRANCH  10  12
ENDBRANCH   5  10
BRANCH   4  18
ATOM     18  C   UNL     1       4.992  -2.442   0.000  0.00  0.00    +0.112 C 
BRANCH  18  19
ATOM     19  C   UNL     1       5.542  -3.054   0.000  0.00  0.00    +0.056 C 
ATOM     20  C   UNL     1       6.050  -2.404   0.000  0.00  0.00    +0.037 C 
ATOM     21  C   UNL     1       6.867  -2.517   0.000  0.00  0.00    +0.142 C 
ATOM     22  O   UNL     1       7.175  -3.283   0.000  0.00  0.00    -0.354 OA
ATOM     23  C   UNL     1       6.667  -3.933   0.000  0.00  0.00    +0.142 C 
ATOM     24  C   UNL     1       5.850  -3.821   0.000  0.00  0.00    +0.037 C 
BRANCH  19  25
ATOM     25  C   UNL     1       4.842  -3.492   0.000  0.00  0.00    +0.184 C 
ATOM     26  O   UNL     1       4.871  -4.317   0.000  0.00  0.00    -0.220 OA
ENDBRANCH  19  25
ENDBRANCH  18  19
ENDBRANCH   4  18
TORSDOF 7
