REMARK  Name = 
REMARK  3 active torsions:
REMARK  status: ('A' for Active; 'I' for Inactive)
REMARK    1  A    between atoms: C_3  and  C_5
REMARK    2  A    between atoms: C_5  and  C_6
REMARK    3  A    between atoms: C_9  and  C_11
REMARK                            x       y       z     vdW  Elec       q    Type
REMARK                         _______ _______ _______ _____ _____    ______ ____
ROOT
ATOM      1  C   UNL     1       0.715  -1.238   0.000  0.00  0.00    +0.190 A 
ATOM      2  N   UNL     1       0.047  -1.722   0.000  0.00  0.00    -0.194 NA
ATOM      3  C   UNL     1       0.302  -2.507   0.000  0.00  0.00    +0.236 A 
ATOM      4  O   UNL     1       1.127  -2.507   0.000  0.00  0.00    -0.337 OA
ATOM      5  N   UNL     1       1.382  -1.722   0.000  0.00  0.00    -0.060 NA
ENDROOT
BRANCH   3   6
ATOM      6  C   UNL     1      -0.183  -3.175   0.000  0.00  0.00    +0.084 C 
ATOM      7  C   UNL     1      -1.003  -3.088   0.000  0.00  0.00    +0.035 C 
ATOM      8  C   UNL     1      -1.488  -3.756   0.000  0.00  0.00    -0.030 C 
ATOM      9  C   UNL     1      -1.153  -4.509   0.000  0.00  0.00    -0.031 C 
ATOM     10  C   UNL     1      -0.332  -4.596   0.000  0.00  0.00    +0.026 C 
ATOM     11  C   UNL     1       0.153  -3.928   0.000  0.00  0.00    +0.014 C 
ENDBRANCH   3   6
BRANCH   1  12
ATOM     12  C   UNL     1       0.715  -0.412   0.000  0.00  0.00    +0.156 C 
BRANCH  12  15
ATOM     13  C   UNL     1       2.143   1.238   0.000  0.00  0.00    +0.139 C 
ATOM     14  N   UNL     1       1.429   0.825   0.000  0.00  0.00    -0.203 NA
ATOM     15  C   UNL     1       1.429   0.000   0.000  0.00  0.00    +0.249 C 
ATOM     16  O   UNL     1       2.143  -0.412   0.000  0.00  0.00    -0.273 OA
ENDBRANCH  12  15
ENDBRANCH   1  12
TORSDOF 3
