REMARK  Name = 
REMARK  5 active torsions:
REMARK  status: ('A' for Active; 'I' for Inactive)
REMARK    1  A    between atoms: C_2  and  C_3
REMARK    2  A    between atoms: C_5  and  C_6
REMARK    3  A    between atoms: C_6  and  C_7
REMARK    4  A    between atoms: C_7  and  N_8
REMARK    5  A    between atoms: C_9  and  C_11
REMARK                            x       y       z     vdW  Elec       q    Type
REMARK                         _______ _______ _______ _____ _____    ______ ____
ROOT
ATOM      1  C   UNL     1      -3.743   1.966   0.000  0.00  0.00    +0.061 A 
ATOM      2  C   UNL     1      -4.156   1.252   0.000  0.00  0.00    +0.022 A 
ATOM      3  C   UNL     1      -4.976   1.166   0.000  0.00  0.00    +0.039 C 
ATOM      4  S   UNL     1      -3.604   0.639   0.000  0.00  0.00    -0.075 S 
ATOM      5  C   UNL     1      -2.850   0.974   0.000  0.00  0.00    +0.089 A 
ATOM      6  N   UNL     1      -2.936   1.795   0.000  0.00  0.00    -0.247 NA
ENDROOT
BRANCH   1   8
ATOM      7  C   UNL     1      -4.899   2.806   0.000  0.00  0.00    +0.007 C 
ATOM      8  C   UNL     1      -4.079   2.720   0.000  0.00  0.00    +0.046 C 
ENDBRANCH   1   8
BRANCH   5   9
ATOM      9  C   UNL     1      -2.136   0.562   0.000  0.00  0.00    +0.076 C 
BRANCH   9  10
ATOM     10  C   UNL     1      -1.421   0.974   0.000  0.00  0.00    +0.122 C 
BRANCH  10  11
ATOM     11  N   UNL     1      -0.707   0.562   0.000  0.00  0.00    -0.205 NA
ATOM     12  C   UNL     1       0.008   0.974   0.000  0.00  0.00    +0.241 C 
ATOM     13  O   UNL     1       0.008   1.799   0.000  0.00  0.00    -0.273 OA
BRANCH  12  14
ATOM     14  C   UNL     1       0.722   0.562   0.000  0.00  0.00    +0.078 C 
ATOM     15  C   UNL     1       1.135  -0.153   0.000  0.00  0.00    +0.010 C 
ATOM     16  C   UNL     1       1.547   0.562   0.000  0.00  0.00    +0.010 C 
ENDBRANCH  12  14
ENDBRANCH  10  11
ENDBRANCH   9  10
ENDBRANCH   5   9
TORSDOF 5
