REMARK  Name = 
REMARK  3 active torsions:
REMARK  status: ('A' for Active; 'I' for Inactive)
REMARK    1  A    between atoms: C_2  and  C_4
REMARK    2  A    between atoms: N_9  and  C_10
REMARK    3  A    between atoms: C_13  and  C_14
REMARK                            x       y       z     vdW  Elec       q    Type
REMARK                         _______ _______ _______ _____ _____    ______ ____
ROOT
ATOM      1  C   UNL     1       0.715  -1.238   0.000  0.00  0.00    +0.184 C 
ATOM      2  N   UNL     1       1.429  -1.650   0.000  0.00  0.00    -0.282 N 
ATOM      3  C   UNL     1       1.429  -2.475   0.000  0.00  0.00    +0.125 C 
ATOM      4  C   UNL     1       0.715  -2.888   0.000  0.00  0.00    +0.164 C 
ATOM      5  O   UNL     1       0.000  -2.475   0.000  0.00  0.00    -0.350 OA
ATOM      6  C   UNL     1       0.000  -1.650   0.000  0.00  0.00    +0.171 C 
ENDROOT
BRANCH   2   7
ATOM      7  C   UNL     1       2.143  -1.238   0.000  0.00  0.00    +0.143 A 
ATOM      8  C   UNL     1       2.858  -1.650   0.000  0.00  0.00    +0.090 A 
ATOM      9 CL   UNL     1       2.858  -2.475   0.000  0.00  0.00    -0.079 Cl
ATOM     10  C   UNL     1       3.572  -1.238   0.000  0.00  0.00    +0.026 A 
ATOM     11  C   UNL     1       3.572  -0.412   0.000  0.00  0.00    +0.088 A 
ATOM     12  C   UNL     1       2.858   0.000   0.000  0.00  0.00    +0.111 A 
ATOM     13  N   UNL     1       2.143  -0.412   0.000  0.00  0.00    -0.228 NA
BRANCH  11  14
ATOM     14  C   UNL     1       4.287   0.000   0.000  0.00  0.00    +0.102 C 
ATOM     15  N   UNL     1       5.001   0.412   0.000  0.00  0.00    -0.191 NA
ENDBRANCH  11  14
ENDBRANCH   2   7
BRANCH   1  17
ATOM     16  N   UNL     1       0.000   0.000   0.000  0.00  0.00    -0.086 NA
ATOM     17  C   UNL     1       0.715  -0.412   0.000  0.00  0.00    +0.281 C 
ATOM     18  O   UNL     1       1.429   0.000   0.000  0.00  0.00    -0.270 OA
ENDBRANCH   1  17
TORSDOF 3
