REMARK  Name = 
REMARK  6 active torsions:
REMARK  status: ('A' for Active; 'I' for Inactive)
REMARK    1  A    between atoms: N_8  and  C_9
REMARK    2  A    between atoms: C_9  and  C_10
REMARK    3  A    between atoms: C_10  and  C_12
REMARK    4  A    between atoms: C_12  and  O_13
REMARK    5  A    between atoms: O_13  and  C_14
REMARK    6  A    between atoms: C_14  and  C_15
REMARK                            x       y       z     vdW  Elec       q    Type
REMARK                         _______ _______ _______ _____ _____    ______ ____
ROOT
ATOM      1  C   UNL     1       2.849   1.206   0.000  0.00  0.00    +0.163 C 
ENDROOT
BRANCH   1  11
ATOM      2  C   UNL     1       2.897  -2.038   0.000  0.00  0.00    +0.157 C 
ATOM      3  N   UNL     1       2.345  -1.425   0.000  0.00  0.00    -0.213 N 
ATOM      4  C   UNL     1       2.600  -0.641   0.000  0.00  0.00    +0.294 A 
ATOM      5  O   UNL     1       3.407  -0.469   0.000  0.00  0.00    -0.264 OA
ATOM      6  C   UNL     1       2.048  -0.028   0.000  0.00  0.00    +0.138 A 
ATOM      7  C   UNL     1       1.241  -0.199   0.000  0.00  0.00    +0.064 A 
ATOM      8  C   UNL     1       0.829   0.515   0.000  0.00  0.00    +0.123 A 
ATOM      9  N   UNL     1       1.381   1.129   0.000  0.00  0.00    -0.167 NA
ATOM     10  C   UNL     1       0.986  -0.984   0.000  0.00  0.00    +0.123 A 
ATOM     11  N   UNL     1       2.135   0.793   0.000  0.00  0.00    -0.243 N 
ATOM     12  N   UNL     1       1.538  -1.597   0.000  0.00  0.00    -0.165 NA
ENDBRANCH   1  11
BRANCH   1  13
ATOM     13  C   UNL     1       3.563   0.793   0.000  0.00  0.00    +0.206 C 
ATOM     14  O   UNL     1       3.563  -0.032   0.000  0.00  0.00    -0.218 OA
BRANCH  13  15
ATOM     15  C   UNL     1       4.278   1.206   0.000  0.00  0.00    +0.177 C 
BRANCH  15  16
ATOM     16  O   UNL     1       4.992   0.793   0.000  0.00  0.00    -0.346 OA
BRANCH  16  17
ATOM     17  C   UNL     1       5.707   1.206   0.000  0.00  0.00    +0.170 C 
BRANCH  17  18
ATOM     18  C   UNL     1       6.421   0.793   0.000  0.00  0.00    +0.018 A 
ATOM     19  C   UNL     1       6.421  -0.032   0.000  0.00  0.00    +0.056 A 
ATOM     20 CL   UNL     1       5.707  -0.445   0.000  0.00  0.00    -0.082 Cl
ATOM     21  C   UNL     1       7.136  -0.445   0.000  0.00  0.00    +0.011 A 
ATOM     22  C   UNL     1       7.850  -0.032   0.000  0.00  0.00    +0.001 A 
ATOM     23  C   UNL     1       7.850   0.793   0.000  0.00  0.00    -0.000 A 
ATOM     24  C   UNL     1       7.136   1.206   0.000  0.00  0.00    -0.001 A 
ENDBRANCH  17  18
ENDBRANCH  16  17
ENDBRANCH  15  16
ENDBRANCH  13  15
ENDBRANCH   1  13
TORSDOF 6
