REMARK  Name = 
REMARK  5 active torsions:
REMARK  status: ('A' for Active; 'I' for Inactive)
REMARK    1  A    between atoms: N_7  and  C_8
REMARK    2  A    between atoms: C_8  and  C_9
REMARK    3  A    between atoms: C_9  and  C_11
REMARK    4  A    between atoms: C_11  and  S_12
REMARK    5  A    between atoms: S_12  and  C_13
REMARK                            x       y       z     vdW  Elec       q    Type
REMARK                         _______ _______ _______ _____ _____    ______ ____
ROOT
ATOM      1  C   UNL     1      -3.764   2.592   0.000  0.00  0.00    +0.031 C 
ATOM      2  C   UNL     1      -2.957   2.764   0.000  0.00  0.00    -0.024 A 
ATOM      3  C   UNL     1      -2.405   2.151   0.000  0.00  0.00    -0.024 A 
ATOM      4  C   UNL     1      -2.659   1.366   0.000  0.00  0.00    +0.031 C 
ATOM      5  C   UNL     1      -1.597   2.322   0.000  0.00  0.00    +0.014 A 
ATOM      6  C   UNL     1      -1.343   3.107   0.000  0.00  0.00    +0.079 A 
ATOM      7  C   UNL     1      -1.895   3.720   0.000  0.00  0.00    +0.098 A 
ATOM      8  N   UNL     1      -1.482   4.434   0.000  0.00  0.00    -0.224 NA
ATOM      9  C   UNL     1      -0.675   4.263   0.000  0.00  0.00    +0.179 A 
ATOM     10  N   UNL     1      -0.589   3.442   0.000  0.00  0.00    -0.306 N 
ATOM     11  C   UNL     1      -2.702   3.548   0.000  0.00  0.00    +0.016 A 
ENDROOT
BRANCH  10  12
ATOM     12  C   UNL     1       0.126   3.030   0.000  0.00  0.00    +0.141 C 
BRANCH  12  13
ATOM     13  C   UNL     1       0.840   3.442   0.000  0.00  0.00    +0.186 C 
ATOM     14  O   UNL     1       0.840   4.267   0.000  0.00  0.00    -0.220 OA
BRANCH  13  15
ATOM     15  C   UNL     1       1.554   3.030   0.000  0.00  0.00    +0.100 C 
BRANCH  15  16
ATOM     16  S   UNL     1       2.269   3.442   0.000  0.00  0.00    -0.073 S 
BRANCH  16  17
ATOM     17  C   UNL     1       2.983   3.030   0.000  0.00  0.00    +0.193 A 
ATOM     18  N   UNL     1       3.070   2.209   0.000  0.00  0.00    -0.286 N 
ATOM     19  C   UNL     1       2.457   1.657   0.000  0.00  0.00    +0.134 C 
ATOM     20  C   UNL     1       3.877   2.038   0.000  0.00  0.00    +0.203 A 
ATOM     21  N   UNL     1       4.289   2.752   0.000  0.00  0.00    -0.125 NA
ATOM     22  N   UNL     1       3.737   3.365   0.000  0.00  0.00    -0.122 NA
ENDBRANCH  16  17
ENDBRANCH  15  16
ENDBRANCH  13  15
ENDBRANCH  12  13
ENDBRANCH  10  12
TORSDOF 5
