REMARK  Name = 
REMARK  5 active torsions:
REMARK  status: ('A' for Active; 'I' for Inactive)
REMARK    1  A    between atoms: C_2  and  C_5
REMARK    2  A    between atoms: C_5  and  O_6
REMARK    3  A    between atoms: O_6  and  C_7
REMARK    4  A    between atoms: C_10  and  N_11
REMARK    5  A    between atoms: N_14  and  C_15
REMARK                            x       y       z     vdW  Elec       q    Type
REMARK                         _______ _______ _______ _____ _____    ______ ____
ROOT
ATOM      1  C   UNL     1       2.092  -2.981   0.000  0.00  0.00    +0.225 A 
ATOM      2  N   UNL     1       1.378  -3.394   0.000  0.00  0.00    -0.209 NA
ATOM      3  C   UNL     1       1.378  -4.219   0.000  0.00  0.00    +0.119 A 
ATOM      4  C   UNL     1       2.092  -4.631   0.000  0.00  0.00    +0.094 A 
ATOM      5  C   UNL     1       2.807  -4.219   0.000  0.00  0.00    +0.023 A 
ATOM      6  C   UNL     1       2.807  -3.394   0.000  0.00  0.00    +0.059 A 
ENDROOT
BRANCH   4   7
ATOM      7  N   UNL     1       2.092  -5.456   0.000  0.00  0.00    -0.159 NA
ATOM      8  C   UNL     1       1.378  -5.869   0.000  0.00  0.00    +0.344 C 
ATOM      9  N   UNL     1       1.378  -6.694   0.000  0.00  0.00    -0.179 NA
ATOM     10  O   UNL     1       0.663  -5.456   0.000  0.00  0.00    -0.249 OA
BRANCH   9  11
ATOM     11  C   UNL     1       0.663  -7.106   0.000  0.00  0.00    +0.174 C 
ATOM     12  C   UNL     1      -0.018  -6.642   0.000  0.00  0.00    +0.261 C 
ATOM     13  O   UNL     1       0.104  -5.826   0.000  0.00  0.00    -0.271 OA
ATOM     14  N   UNL     1      -0.807  -6.885   0.000  0.00  0.00    -0.204 NA
ATOM     15  C   UNL     1      -1.108  -7.653   0.000  0.00  0.00    +0.115 C 
ATOM     16  C   UNL     1      -0.696  -8.367   0.000  0.00  0.00    +0.024 C 
ATOM     17  C   UNL     1       0.120  -8.490   0.000  0.00  0.00    +0.004 C 
ATOM     18  C   UNL     1       0.725  -7.929   0.000  0.00  0.00    +0.031 C 
ENDBRANCH   9  11
ENDBRANCH   4   7
BRANCH   1  19
ATOM     19  O   UNL     1       2.092  -2.156   0.000  0.00  0.00    -0.451 OA
BRANCH  19  20
ATOM     20  C   UNL     1       1.378  -1.744   0.000  0.00  0.00    +0.310 C 
BRANCH  20  22
ATOM     21  F   UNL     1       1.378  -0.094   0.000  0.00  0.00    -0.166 F 
ATOM     22  C   UNL     1       1.378  -0.919   0.000  0.00  0.00    +0.438 C 
ATOM     23  F   UNL     1       2.203  -0.919   0.000  0.00  0.00    -0.166 F 
ATOM     24  F   UNL     1       0.553  -0.919   0.000  0.00  0.00    -0.166 F 
ENDBRANCH  20  22
ENDBRANCH  19  20
ENDBRANCH   1  19
TORSDOF 5
