REMARK  Name = 
REMARK  3 active torsions:
REMARK  status: ('A' for Active; 'I' for Inactive)
REMARK    1  A    between atoms: C_7  and  N_8
REMARK    2  A    between atoms: N_11  and  C_12
REMARK    3  A    between atoms: C_12  and  C_13
REMARK                            x       y       z     vdW  Elec       q    Type
REMARK                         _______ _______ _______ _____ _____    ______ ____
ROOT
ATOM      1  N   UNL     1       2.143  -0.412   0.000  0.00  0.00    -0.142 NA
ATOM      2  C   UNL     1       2.858   0.000   0.000  0.00  0.00    +0.345 C 
ATOM      3  N   UNL     1       3.572  -0.412   0.000  0.00  0.00    -0.187 NA
ATOM      4  O   UNL     1       2.858   0.825   0.000  0.00  0.00    -0.249 OA
ENDROOT
BRANCH   1   7
ATOM      5  C   UNL     1       0.715  -1.238   0.000  0.00  0.00    +0.034 C 
ATOM      6  C   UNL     1       0.715  -0.412   0.000  0.00  0.00    +0.012 A 
ATOM      7  C   UNL     1       1.429   0.000   0.000  0.00  0.00    +0.152 A 
ATOM      8  N   UNL     1       1.429   0.825   0.000  0.00  0.00    -0.228 NA
ATOM      9  C   UNL     1       0.715   1.238   0.000  0.00  0.00    +0.100 A 
ATOM     10  C   UNL     1       0.000   0.825   0.000  0.00  0.00    +0.020 A 
ATOM     11  C   UNL     1       0.000   0.000   0.000  0.00  0.00    +0.000 A 
ENDBRANCH   1   7
BRANCH   3  12
ATOM     12  C   UNL     1       4.287   0.000   0.000  0.00  0.00    +0.119 C 
BRANCH  12  13
ATOM     13  C   UNL     1       5.001  -0.412   0.000  0.00  0.00    +0.054 C 
ATOM     14  C   UNL     1       5.088  -1.233   0.000  0.00  0.00    +0.144 C 
ATOM     15  O   UNL     1       5.894  -1.405   0.000  0.00  0.00    -0.354 OA
ATOM     16  C   UNL     1       6.307  -0.690   0.000  0.00  0.00    +0.142 C 
ATOM     17  C   UNL     1       5.755  -0.077   0.000  0.00  0.00    +0.036 C 
ENDBRANCH  12  13
ENDBRANCH   3  12
TORSDOF 3
