REMARK  Name = 
REMARK  4 active torsions:
REMARK  status: ('A' for Active; 'I' for Inactive)
REMARK    1  A    between atoms: C_2  and  N_3
REMARK    2  A    between atoms: C_2  and  C_14
REMARK    3  A    between atoms: C_4  and  C_6
REMARK    4  A    between atoms: C_6  and  N_7
REMARK                            x       y       z     vdW  Elec       q    Type
REMARK                         _______ _______ _______ _____ _____    ______ ____
ROOT
ATOM      1  N   UNL     1       3.572  -3.712   0.000  0.00  0.00    -0.196 NA
ATOM      2  C   UNL     1       2.858  -4.125   0.000  0.00  0.00    +0.267 C 
ATOM      3  O   UNL     1       2.858  -4.950   0.000  0.00  0.00    -0.271 OA
ENDROOT
BRANCH   1   5
ATOM      4  C   UNL     1       4.287  -4.950   0.000  0.00  0.00    +0.033 C 
ATOM      5  C   UNL     1       4.287  -4.125   0.000  0.00  0.00    +0.171 C 
BRANCH   5   6
ATOM      6  C   UNL     1       5.001  -3.712   0.000  0.00  0.00    +0.245 C 
ATOM      7  N   UNL     1       5.716  -4.125   0.000  0.00  0.00    -0.278 N 
ATOM      8  C   UNL     1       5.716  -4.950   0.000  0.00  0.00    +0.093 C 
ATOM      9  C   UNL     1       6.430  -5.362   0.000  0.00  0.00    +0.022 C 
ATOM     10  C   UNL     1       7.145  -4.950   0.000  0.00  0.00    +0.004 C 
ATOM     11  C   UNL     1       7.145  -4.125   0.000  0.00  0.00    +0.022 C 
ATOM     12  C   UNL     1       6.430  -3.712   0.000  0.00  0.00    +0.093 C 
ATOM     13  O   UNL     1       5.001  -2.888   0.000  0.00  0.00    -0.273 OA
ENDBRANCH   5   6
ENDBRANCH   1   5
BRANCH   2  14
ATOM     14  C   UNL     1       2.143  -3.712   0.000  0.00  0.00    +0.215 C 
BRANCH  14  15
ATOM     15  N   UNL     1       1.429  -4.125   0.000  0.00  0.00    -0.227 N 
ATOM     16  C   UNL     1       0.675  -3.789   0.000  0.00  0.00    +0.139 A 
ATOM     17  C   UNL     1       0.504  -2.982   0.000  0.00  0.00    +0.073 C 
ATOM     18  N   UNL     1       0.123  -4.402   0.000  0.00  0.00    -0.215 NA
ATOM     19  C   UNL     1       0.536  -5.117   0.000  0.00  0.00    +0.160 A 
ATOM     20  C   UNL     1       0.200  -5.871   0.000  0.00  0.00    +0.076 C 
ATOM     21  N   UNL     1       1.343  -4.946   0.000  0.00  0.00    -0.153 NA
ENDBRANCH  14  15
ENDBRANCH   2  14
TORSDOF 4
