REMARK  Name = 
REMARK  6 active torsions:
REMARK  status: ('A' for Active; 'I' for Inactive)
REMARK    1  A    between atoms: C_2  and  C_3
REMARK    2  A    between atoms: C_3  and  N_4
REMARK    3  A    between atoms: N_7  and  C_8
REMARK    4  A    between atoms: C_13  and  N_14
REMARK    5  A    between atoms: N_19  and  C_20
REMARK    6  A    between atoms: C_20  and  C_21
REMARK                            x       y       z     vdW  Elec       q    Type
REMARK                         _______ _______ _______ _____ _____    ______ ____
ROOT
ATOM      1  N   UNL     1       0.715  -2.062   0.000  0.00  0.00    -0.177 NA
ATOM      2  C   UNL     1       0.000  -1.650   0.000  0.00  0.00    +0.344 C 
ATOM      3  N   UNL     1      -0.715  -2.062   0.000  0.00  0.00    -0.158 NA
ATOM      4  O   UNL     1       0.000  -0.825   0.000  0.00  0.00    -0.249 OA
ENDROOT
BRANCH   3   5
ATOM      5  C   UNL     1      -0.715  -2.888   0.000  0.00  0.00    +0.106 A 
ATOM      6  C   UNL     1      -1.429  -3.300   0.000  0.00  0.00    +0.147 A 
ATOM      7  N   UNL     1      -1.429  -4.125   0.000  0.00  0.00    -0.228 NA
ATOM      8  C   UNL     1      -0.715  -4.537   0.000  0.00  0.00    +0.100 A 
ATOM      9  C   UNL     1       0.000  -4.125   0.000  0.00  0.00    +0.022 A 
ATOM     10  C   UNL     1       0.000  -3.300   0.000  0.00  0.00    +0.021 A 
BRANCH   6  11
ATOM     11  N   UNL     1      -2.143  -2.888   0.000  0.00  0.00    -0.292 N 
ATOM     12  C   UNL     1      -2.230  -2.067   0.000  0.00  0.00    +0.092 C 
ATOM     13  C   UNL     1      -3.037  -1.895   0.000  0.00  0.00    +0.023 C 
ATOM     14  C   UNL     1      -3.449  -2.610   0.000  0.00  0.00    +0.023 C 
ATOM     15  C   UNL     1      -2.897  -3.223   0.000  0.00  0.00    +0.092 C 
ENDBRANCH   6  11
ENDBRANCH   3   5
BRANCH   1  16
ATOM     16  C   UNL     1       1.429  -1.650   0.000  0.00  0.00    +0.203 C 
BRANCH  16  18
ATOM     17  O   UNL     1       2.143  -2.888   0.000  0.00  0.00    -0.271 OA
ATOM     18  C   UNL     1       2.143  -2.062   0.000  0.00  0.00    +0.264 C 
ATOM     19  N   UNL     1       2.858  -1.650   0.000  0.00  0.00    -0.189 NA
BRANCH  19  20
ATOM     20  C   UNL     1       3.572  -2.062   0.000  0.00  0.00    +0.191 C 
BRANCH  20  21
ATOM     21  C   UNL     1       4.287  -1.650   0.000  0.00  0.00    -0.054 C 
ATOM     22  C   UNL     1       5.001  -1.238   0.000  0.00  0.00    -0.012 C 
ENDBRANCH  20  21
ENDBRANCH  19  20
ENDBRANCH  16  18
ENDBRANCH   1  16
TORSDOF 6
