REMARK  Name = 
REMARK  2 active torsions:
REMARK  status: ('A' for Active; 'I' for Inactive)
REMARK    1  A    between atoms: C_2  and  C_3
REMARK    2  A    between atoms: C_4  and  N_5
REMARK                            x       y       z     vdW  Elec       q    Type
REMARK                         _______ _______ _______ _____ _____    ______ ____
ROOT
ATOM      1  N   UNL     1      -0.551  -0.696   0.000  0.00  0.00    -0.189 NA
ATOM      2  C   UNL     1      -1.265  -0.283   0.000  0.00  0.00    +0.345 C 
ATOM      3  N   UNL     1      -1.980  -0.696   0.000  0.00  0.00    -0.142 NA
ATOM      4  C   UNL     1      -2.694  -0.283   0.000  0.00  0.00    +0.156 A 
ATOM      5  N   UNL     1      -2.694   0.542   0.000  0.00  0.00    -0.227 NA
ATOM      6  C   UNL     1      -3.409   0.954   0.000  0.00  0.00    +0.100 A 
ATOM      7  C   UNL     1      -4.123   0.542   0.000  0.00  0.00    +0.021 A 
ATOM      8  C   UNL     1      -4.123  -0.283   0.000  0.00  0.00    +0.005 A 
ATOM      9  C   UNL     1      -3.409  -0.696   0.000  0.00  0.00    +0.036 A 
ATOM     10  O   UNL     1      -1.265   0.542   0.000  0.00  0.00    -0.249 OA
ENDROOT
BRANCH   1  17
ATOM     11  C   UNL     1       0.164   0.542   0.000  0.00  0.00    +0.053 C 
ATOM     12  C   UNL     1       0.878   0.954   0.000  0.00  0.00    +0.004 C 
ATOM     13  C   UNL     1       0.672   0.129   0.000  0.00  0.00    +0.002 C 
ATOM     14  C   UNL     1       0.878  -0.696   0.000  0.00  0.00    +0.020 C 
ATOM     15  C   UNL     1       1.593  -0.283   0.000  0.00  0.00    +0.002 C 
ATOM     16  C   UNL     1       1.593   0.542   0.000  0.00  0.00    +0.000 C 
ATOM     17  C   UNL     1       0.164  -0.283   0.000  0.00  0.00    +0.099 C 
BRANCH  11  19
ATOM     18  O   UNL     1      -0.551   1.779   0.000  0.00  0.00    -0.220 OA
ATOM     19  C   UNL     1      -0.551   0.954   0.000  0.00  0.00    +0.184 C 
ENDBRANCH  11  19
ENDBRANCH   1  17
TORSDOF 2
