REMARK  Name = 
REMARK  3 active torsions:
REMARK  status: ('A' for Active; 'I' for Inactive)
REMARK    1  A    between atoms: C_2  and  C_3
REMARK    2  A    between atoms: C_3  and  O_4
REMARK    3  A    between atoms: O_4  and  C_5
REMARK                            x       y       z     vdW  Elec       q    Type
REMARK                         _______ _______ _______ _____ _____    ______ ____
ROOT
ATOM      1  O   UNL     1       2.143  -3.712   0.000  0.00  0.00    -0.270 OA
ATOM      2  C   UNL     1       2.143  -2.888   0.000  0.00  0.00    +0.277 C 
ATOM      3  N   UNL     1       2.858  -2.475   0.000  0.00  0.00    -0.157 NA
ATOM      4  C   UNL     1       3.572  -2.888   0.000  0.00  0.00    +0.174 A 
ATOM      5  N   UNL     1       3.572  -3.712   0.000  0.00  0.00    -0.224 NA
ATOM      6  C   UNL     1       4.287  -4.125   0.000  0.00  0.00    +0.121 A 
ATOM      7  C   UNL     1       5.001  -3.712   0.000  0.00  0.00    +0.120 A 
ATOM      8  N   UNL     1       5.001  -2.888   0.000  0.00  0.00    -0.238 NA
ATOM      9  C   UNL     1       4.287  -2.475   0.000  0.00  0.00    +0.135 A 
ENDROOT
BRANCH   2  10
ATOM     10  C   UNL     1       1.429  -2.475   0.000  0.00  0.00    +0.229 C 
BRANCH  10  11
ATOM     11  O   UNL     1       0.715  -2.888   0.000  0.00  0.00    -0.347 OA
BRANCH  11  12
ATOM     12  C   UNL     1       0.000  -2.475   0.000  0.00  0.00    +0.116 C 
ATOM     13  C   UNL     1       0.000  -1.650   0.000  0.00  0.00    +0.030 C 
ATOM     14  C   UNL     1      -0.715  -1.238   0.000  0.00  0.00    +0.002 C 
ATOM     15  C   UNL     1      -1.429  -1.650   0.000  0.00  0.00    +0.000 C 
ATOM     16  C   UNL     1      -1.429  -2.475   0.000  0.00  0.00    +0.002 C 
ATOM     17  C   UNL     1      -0.715  -2.888   0.000  0.00  0.00    +0.030 C 
ENDBRANCH  11  12
ENDBRANCH  10  11
ENDBRANCH   2  10
TORSDOF 3
