REMARK  Name = 
REMARK  5 active torsions:
REMARK  status: ('A' for Active; 'I' for Inactive)
REMARK    1  A    between atoms: C_8  and  C_10
REMARK    2  A    between atoms: C_10  and  N_11
REMARK    3  A    between atoms: N_11  and  C_12
REMARK    4  A    between atoms: C_12  and  C_13
REMARK    5  A    between atoms: C_13  and  N_14
REMARK                            x       y       z     vdW  Elec       q    Type
REMARK                         _______ _______ _______ _____ _____    ______ ____
ROOT
ATOM      1  C   UNL     1       0.000   0.825   0.000  0.00  0.00    +0.174 C 
ENDROOT
BRANCH   1   8
ATOM      2  C   UNL     1      -3.572   1.238   0.000  0.00  0.00    +0.034 C 
ATOM      3  C   UNL     1      -2.858   0.825   0.000  0.00  0.00    +0.135 C 
ATOM      4  O   UNL     1      -2.858   0.000   0.000  0.00  0.00    -0.353 OA
ATOM      5  C   UNL     1      -2.143  -0.412   0.000  0.00  0.00    +0.164 C 
ATOM      6  C   UNL     1      -1.429   0.000   0.000  0.00  0.00    +0.126 C 
ATOM      7  N   UNL     1      -1.429   0.825   0.000  0.00  0.00    -0.273 N 
ATOM      8  C   UNL     1      -0.715   1.238   0.000  0.00  0.00    +0.244 C 
ATOM      9  O   UNL     1      -0.715   2.062   0.000  0.00  0.00    -0.273 OA
ATOM     10  C   UNL     1      -2.143   1.238   0.000  0.00  0.00    +0.123 C 
ENDBRANCH   1   8
BRANCH   1  11
ATOM     11  N   UNL     1       0.715   1.238   0.000  0.00  0.00    -0.206 NA
BRANCH  11  12
ATOM     12  C   UNL     1       1.429   0.825   0.000  0.00  0.00    +0.116 C 
BRANCH  12  13
ATOM     13  C   UNL     1       2.143   1.238   0.000  0.00  0.00    +0.146 C 
BRANCH  13  14
ATOM     14  N   UNL     1       2.858   0.825   0.000  0.00  0.00    -0.248 N 
ATOM     15  N   UNL     1       2.944   0.004   0.000  0.00  0.00    -0.168 NA
ATOM     16  C   UNL     1       3.751  -0.167   0.000  0.00  0.00    +0.117 A 
ATOM     17  C   UNL     1       4.164   0.547   0.000  0.00  0.00    +0.018 A 
ATOM     18  C   UNL     1       4.984   0.634   0.000  0.00  0.00    +0.034 C 
ATOM     19  C   UNL     1       3.612   1.161   0.000  0.00  0.00    +0.092 A 
ENDBRANCH  13  14
ENDBRANCH  12  13
ENDBRANCH  11  12
ENDBRANCH   1  11
TORSDOF 5
