REMARK  Name = 
REMARK  5 active torsions:
REMARK  status: ('A' for Active; 'I' for Inactive)
REMARK    1  A    between atoms: C_2  and  C_3
REMARK    2  A    between atoms: C_3  and  C_4
REMARK    3  A    between atoms: C_3  and  N_7
REMARK    4  A    between atoms: C_4  and  C_5
REMARK    5  A    between atoms: N_10  and  C_11
REMARK                            x       y       z     vdW  Elec       q    Type
REMARK                         _______ _______ _______ _____ _____    ______ ____
ROOT
ATOM      1  C   UNL     1       5.716  -4.125   0.000  0.00  0.00    +0.089 A 
ATOM      2  C   UNL     1       5.716  -4.950   0.000  0.00  0.00    +0.076 A 
ATOM      3  C   UNL     1       5.001  -5.362   0.000  0.00  0.00    +0.054 C 
ATOM      4  N   UNL     1       6.430  -5.362   0.000  0.00  0.00    -0.234 NA
ATOM      5  C   UNL     1       7.145  -4.950   0.000  0.00  0.00    +0.131 A 
ATOM      6  N   UNL     1       7.859  -5.362   0.000  0.00  0.00    -0.293 N 
ATOM      7  C   UNL     1       7.945  -6.183   0.000  0.00  0.00    +0.092 C 
ATOM      8  C   UNL     1       8.752  -6.354   0.000  0.00  0.00    +0.023 C 
ATOM      9  C   UNL     1       9.165  -5.640   0.000  0.00  0.00    +0.023 C 
ATOM     10  C   UNL     1       8.613  -5.027   0.000  0.00  0.00    +0.092 C 
ATOM     11  C   UNL     1       7.145  -4.125   0.000  0.00  0.00    +0.036 A 
ATOM     12  C   UNL     1       6.430  -3.712   0.000  0.00  0.00    +0.021 A 
ENDROOT
BRANCH   1  15
ATOM     13  N   UNL     1       3.572  -3.712   0.000  0.00  0.00    -0.188 NA
ATOM     14  C   UNL     1       4.287  -4.125   0.000  0.00  0.00    +0.344 C 
ATOM     15  N   UNL     1       5.001  -3.712   0.000  0.00  0.00    -0.160 NA
ATOM     16  O   UNL     1       4.287  -4.950   0.000  0.00  0.00    -0.249 OA
BRANCH  13  17
ATOM     17  C   UNL     1       2.858  -4.125   0.000  0.00  0.00    +0.112 C 
BRANCH  17  19
ATOM     18  C   UNL     1       3.572  -5.362   0.000  0.00  0.00    +0.002 C 
ATOM     19  C   UNL     1       2.858  -4.950   0.000  0.00  0.00    +0.023 C 
ENDBRANCH  17  19
BRANCH  17  20
ATOM     20  C   UNL     1       2.143  -3.712   0.000  0.00  0.00    +0.127 C 
BRANCH  20  21
ATOM     21  C   UNL     1       1.429  -4.125   0.000  0.00  0.00    +0.075 C 
ATOM     22  N   UNL     1       0.715  -4.537   0.000  0.00  0.00    -0.196 NA
ENDBRANCH  20  21
ENDBRANCH  17  20
ENDBRANCH  13  17
ENDBRANCH   1  15
TORSDOF 5
