REMARK  Name = 
REMARK  1 active torsions:
REMARK  status: ('A' for Active; 'I' for Inactive)
REMARK    1  A    between atoms: N_8  and  C_9
REMARK                            x       y       z     vdW  Elec       q    Type
REMARK                         _______ _______ _______ _____ _____    ______ ____
ROOT
ATOM      1  C   UNL     1      -1.980   3.429   0.000  0.00  0.00    +0.052 C 
ATOM      2  C   UNL     1      -1.265   3.017   0.000  0.00  0.00    +0.063 A 
ATOM      3  N   UNL     1      -1.265   2.192   0.000  0.00  0.00    -0.217 NA
ATOM      4  C   UNL     1      -0.551   1.779   0.000  0.00  0.00    +0.236 A 
ATOM      5  N   UNL     1      -0.551   0.954   0.000  0.00  0.00    -0.203 NA
ATOM      6  N   UNL     1       0.164   2.192   0.000  0.00  0.00    -0.217 NA
ATOM      7  C   UNL     1       0.164   3.017   0.000  0.00  0.00    +0.063 A 
ATOM      8  C   UNL     1       0.878   3.429   0.000  0.00  0.00    +0.052 C 
ATOM      9  C   UNL     1      -0.551   3.429   0.000  0.00  0.00    +0.030 A 
ENDROOT
BRANCH   5  10
ATOM     10  C   UNL     1       0.164   0.542   0.000  0.00  0.00    +0.125 C 
ATOM     11  C   UNL     1       0.878   0.954   0.000  0.00  0.00    +0.135 C 
ATOM     12  O   UNL     1       0.672   0.129   0.000  0.00  0.00    -0.357 OA
ATOM     13  C   UNL     1       0.878  -0.696   0.000  0.00  0.00    +0.117 C 
ATOM     14  C   UNL     1       1.593  -0.283   0.000  0.00  0.00    +0.032 C 
ATOM     15  C   UNL     1       1.593   0.542   0.000  0.00  0.00    +0.034 C 
ATOM     16  C   UNL     1       0.164  -0.283   0.000  0.00  0.00    +0.054 C 
ENDBRANCH   5  10
TORSDOF 1
