REMARK  Name = 
REMARK  2 active torsions:
REMARK  status: ('A' for Active; 'I' for Inactive)
REMARK    1  A    between atoms: C_3  and  C_4
REMARK    2  A    between atoms: C_6  and  C_9
REMARK                            x       y       z     vdW  Elec       q    Type
REMARK                         _______ _______ _______ _____ _____    ______ ____
ROOT
ATOM      1 CL   UNL     1       0.000   0.000   0.000  0.00  0.00    +0.000 Cl
ENDROOT
TORSDOF 0
REMARK  Name = 
REMARK  2 active torsions:
REMARK  status: ('A' for Active; 'I' for Inactive)
REMARK    1  A    between atoms: C_3  and  C_4
REMARK    2  A    between atoms: C_6  and  C_9
REMARK                            x       y       z     vdW  Elec       q    Type
REMARK                         _______ _______ _______ _____ _____    ______ ____
ROOT
ATOM      1  C   UNL     1       3.072   1.313   0.000  0.00  0.00    +0.236 A 
ATOM      2  O   UNL     1       2.404   0.828   0.000  0.00  0.00    -0.337 OA
ATOM      3  N   UNL     1       2.659   0.044   0.000  0.00  0.00    -0.061 NA
ATOM      4  C   UNL     1       3.484   0.044   0.000  0.00  0.00    +0.181 A 
ATOM      5  N   UNL     1       3.739   0.828   0.000  0.00  0.00    -0.195 NA
ENDROOT
BRANCH   4   6
ATOM      6  C   UNL     1       3.969  -0.624   0.000  0.00  0.00    +0.079 C 
ATOM      7  C   UNL     1       3.634  -1.377   0.000  0.00  0.00    +0.096 C 
ATOM      8  N   UNL     1       4.118  -2.045   0.000  0.00  0.00    -0.218 NA
ATOM      9  C   UNL     1       4.939  -1.959   0.000  0.00  0.00    +0.089 C 
ATOM     10  C   UNL     1       5.274  -1.205   0.000  0.00  0.00    +0.019 C 
ATOM     11  C   UNL     1       4.790  -0.537   0.000  0.00  0.00    +0.011 C 
ENDBRANCH   4   6
BRANCH   1  13
ATOM     12  C   UNL     1       2.357   2.551   0.000  0.00  0.00    +0.010 C 
ATOM     13  C   UNL     1       3.072   2.138   0.000  0.00  0.00    +0.088 C 
ENDBRANCH   1  13
TORSDOF 2
