REMARK  Name = 
REMARK  2 active torsions:
REMARK  status: ('A' for Active; 'I' for Inactive)
REMARK    1  A    between atoms: N_3  and  C_4
REMARK    2  A    between atoms: N_7  and  C_10
REMARK                            x       y       z     vdW  Elec       q    Type
REMARK                         _______ _______ _______ _____ _____    ______ ____
ROOT
ATOM      1  O   UNL     1       2.143   6.315   0.000  0.00  0.00    -0.249 OA
ATOM      2  C   UNL     1       1.429   6.728   0.000  0.00  0.00    +0.345 C 
ATOM      3  N   UNL     1       1.429   7.553   0.000  0.00  0.00    -0.136 NA
ATOM      4  C   UNL     1       2.143   7.965   0.000  0.00  0.00    +0.187 A 
ATOM      5  S   UNL     1       2.897   7.630   0.000  0.00  0.00    -0.049 S 
ATOM      6  C   UNL     1       3.449   8.243   0.000  0.00  0.00    +0.059 A 
ATOM      7  C   UNL     1       3.037   8.957   0.000  0.00  0.00    +0.108 A 
ATOM      8  N   UNL     1       2.230   8.786   0.000  0.00  0.00    -0.221 NA
ATOM      9  N   UNL     1       0.715   6.315   0.000  0.00  0.00    -0.189 NA
ENDROOT
BRANCH   9  10
ATOM     10  C   UNL     1       0.715   5.490   0.000  0.00  0.00    +0.100 C 
ATOM     11  C   UNL     1       0.000   5.078   0.000  0.00  0.00    +0.039 C 
ATOM     12  C   UNL     1       0.000   4.253   0.000  0.00  0.00    +0.074 C 
ATOM     13  N   UNL     1       0.715   3.840   0.000  0.00  0.00    -0.274 NA
ATOM     14  C   UNL     1       1.429   4.253   0.000  0.00  0.00    +0.074 C 
ATOM     15  C   UNL     1       1.429   5.078   0.000  0.00  0.00    +0.039 C 
BRANCH  13  16
ATOM     16  C   UNL     1       0.715   3.015   0.000  0.00  0.00    +0.058 C 
ATOM     17  C   UNL     1       0.302   2.301   0.000  0.00  0.00    +0.017 C 
ATOM     18  C   UNL     1       1.127   2.301   0.000  0.00  0.00    +0.017 C 
ENDBRANCH  13  16
ENDBRANCH   9  10
TORSDOF 2
