REMARK  Name = 
REMARK  6 active torsions:
REMARK  status: ('A' for Active; 'I' for Inactive)
REMARK    1  A    between atoms: C_2  and  C_3
REMARK    2  A    between atoms: C_3  and  N_4
REMARK    3  A    between atoms: C_3  and  C_10
REMARK    4  A    between atoms: N_12  and  C_13
REMARK    5  A    between atoms: C_13  and  C_15
REMARK    6  A    between atoms: C_15  and  N_17
REMARK                            x       y       z     vdW  Elec       q    Type
REMARK                         _______ _______ _______ _____ _____    ______ ____
ROOT
ATOM      1  C   UNL     1      -0.964  -2.335   0.000  0.00  0.00    +0.259 C 
ATOM      2  N   UNL     1      -0.249  -1.923   0.000  0.00  0.00    -0.204 NA
ATOM      3  O   UNL     1      -0.964  -3.160   0.000  0.00  0.00    -0.272 OA
ENDROOT
BRANCH   2   4
ATOM      4  C   UNL     1       0.465  -2.335   0.000  0.00  0.00    +0.118 C 
ATOM      5  C   UNL     1       0.465  -3.160   0.000  0.00  0.00    +0.025 C 
BRANCH   4   6
ATOM      6  C   UNL     1       1.179  -1.923   0.000  0.00  0.00    +0.127 C 
ATOM      7  C   UNL     1       1.894  -2.335   0.000  0.00  0.00    +0.028 C 
BRANCH   6   8
ATOM      8  N   UNL     1       1.179  -1.098   0.000  0.00  0.00    -0.230 N 
ATOM      9  N   UNL     1       1.847  -0.613   0.000  0.00  0.00    -0.145 NA
ATOM     10  C   UNL     1       1.592   0.172   0.000  0.00  0.00    +0.221 A 
ATOM     11  N   UNL     1       0.767   0.172   0.000  0.00  0.00    -0.201 NA
ATOM     12  C   UNL     1       0.512  -0.613   0.000  0.00  0.00    +0.197 A 
ENDBRANCH   6   8
ENDBRANCH   4   6
ENDBRANCH   2   4
BRANCH   1  13
ATOM     13  C   UNL     1      -1.678  -1.923   0.000  0.00  0.00    +0.153 C 
BRANCH  13  14
ATOM     14  N   UNL     1      -2.393  -2.335   0.000  0.00  0.00    -0.273 N 
ATOM     15  C   UNL     1      -3.147  -2.000   0.000  0.00  0.00    +0.226 C 
ATOM     16  O   UNL     1      -3.318  -1.193   0.000  0.00  0.00    -0.275 OA
ATOM     17  C   UNL     1      -3.699  -2.613   0.000  0.00  0.00    +0.087 C 
ATOM     18  C   UNL     1      -3.286  -3.327   0.000  0.00  0.00    +0.031 C 
ATOM     19  C   UNL     1      -2.479  -3.156   0.000  0.00  0.00    +0.094 C 
ENDBRANCH  13  14
BRANCH  13  21
ATOM     20  C   UNL     1      -0.964  -0.685   0.000  0.00  0.00    +0.002 C 
ATOM     21  C   UNL     1      -1.678  -1.098   0.000  0.00  0.00    +0.029 C 
ENDBRANCH  13  21
ENDBRANCH   1  13
TORSDOF 6
