REMARK  Name = 
REMARK  6 active torsions:
REMARK  status: ('A' for Active; 'I' for Inactive)
REMARK    1  A    between atoms: C_2  and  C_3
REMARK    2  A    between atoms: C_3  and  N_4
REMARK    3  A    between atoms: N_4  and  C_5
REMARK    4  A    between atoms: C_5  and  C_6
REMARK    5  A    between atoms: C_5  and  C_13
REMARK    6  A    between atoms: C_6  and  C_7
REMARK                            x       y       z     vdW  Elec       q    Type
REMARK                         _______ _______ _______ _____ _____    ______ ____
ROOT
ATOM      1  C   UNL     1       0.715  -2.888   0.000  0.00  0.00    +0.172 C 
ENDROOT
BRANCH   1   2
ATOM      2  C   UNL     1       1.429  -2.475   0.000  0.00  0.00    +0.412 C 
ATOM      3  F   UNL     1       2.143  -2.062   0.000  0.00  0.00    -0.168 F 
ATOM      4  F   UNL     1       1.016  -1.760   0.000  0.00  0.00    -0.168 F 
ATOM      5  F   UNL     1       1.841  -3.189   0.000  0.00  0.00    -0.168 F 
ENDBRANCH   1   2
BRANCH   1   6
ATOM      6  N   UNL     1       0.000  -2.475   0.000  0.00  0.00    -0.208 NA
BRANCH   6   7
ATOM      7  C   UNL     1       0.000  -1.650   0.000  0.00  0.00    +0.120 C 
BRANCH   7   9
ATOM      8  O   UNL     1      -1.050  -1.991   0.000  0.00  0.00    -0.223 OA
ATOM      9  C   UNL     1      -0.715  -1.238   0.000  0.00  0.00    +0.153 C 
ATOM     10  C   UNL     1      -0.230  -0.570   0.000  0.00  0.00    +0.089 C 
ATOM     11  S   UNL     1      -0.715   0.097   0.000  0.00  0.00    -0.138 S 
ATOM     12  C   UNL     1      -1.499  -0.158   0.000  0.00  0.00    +0.060 C 
ATOM     13  C   UNL     1      -1.499  -0.983   0.000  0.00  0.00    +0.044 C 
ENDBRANCH   7   9
ENDBRANCH   6   7
ENDBRANCH   1   6
BRANCH   1  14
ATOM     14  C   UNL     1       0.715  -3.712   0.000  0.00  0.00    +0.053 C 
BRANCH  14  15
ATOM     15  C   UNL     1       1.429  -4.125   0.000  0.00  0.00    -0.017 A 
ATOM     16  C   UNL     1       1.429  -4.950   0.000  0.00  0.00    +0.016 A 
ATOM     17  C   UNL     1       2.143  -5.362   0.000  0.00  0.00    +0.099 A 
ATOM     18  N   UNL     1       2.858  -4.950   0.000  0.00  0.00    -0.242 NA
ATOM     19  C   UNL     1       2.858  -4.125   0.000  0.00  0.00    +0.099 A 
ATOM     20  C   UNL     1       2.143  -3.712   0.000  0.00  0.00    +0.016 A 
ENDBRANCH  14  15
ENDBRANCH   1  14
TORSDOF 6
