REMARK  Name = 
REMARK  4 active torsions:
REMARK  status: ('A' for Active; 'I' for Inactive)
REMARK    1  A    between atoms: C_7  and  N_10
REMARK    2  A    between atoms: C_11  and  C_13
REMARK    3  A    between atoms: C_13  and  N_14
REMARK    4  A    between atoms: C_18  and  C_21
REMARK                            x       y       z     vdW  Elec       q    Type
REMARK                         _______ _______ _______ _____ _____    ______ ____
ROOT
ATOM      1  N   UNL     1      -1.429  -4.950   0.000  0.00  0.00    -0.205 NA
ATOM      2  C   UNL     1      -0.715  -5.362   0.000  0.00  0.00    +0.264 C 
ATOM      3  O   UNL     1       0.000  -4.950   0.000  0.00  0.00    -0.271 OA
ENDROOT
BRANCH   1   9
ATOM      4  C   UNL     1      -2.143  -1.238   0.000  0.00  0.00    +0.095 C 
ATOM      5  C   UNL     1      -1.429  -1.650   0.000  0.00  0.00    +0.226 C 
ATOM      6  N   UNL     1      -1.429  -2.475   0.000  0.00  0.00    -0.279 N 
ATOM      7  C   UNL     1      -2.143  -2.888   0.000  0.00  0.00    +0.095 C 
ATOM      8  C   UNL     1      -2.143  -3.712   0.000  0.00  0.00    +0.043 C 
ATOM      9  C   UNL     1      -1.429  -4.125   0.000  0.00  0.00    +0.099 C 
ATOM     10  C   UNL     1      -0.715  -3.712   0.000  0.00  0.00    +0.043 C 
ATOM     11  C   UNL     1      -0.715  -2.888   0.000  0.00  0.00    +0.095 C 
ATOM     12  O   UNL     1      -0.715  -1.238   0.000  0.00  0.00    -0.275 OA
ENDBRANCH   1   9
BRANCH   2  13
ATOM     13  C   UNL     1      -0.715  -6.188   0.000  0.00  0.00    +0.196 C 
BRANCH  13  14
ATOM     14  N   UNL     1       0.000  -6.600   0.000  0.00  0.00    -0.285 N 
ATOM     15  C   UNL     1       0.000  -7.425   0.000  0.00  0.00    +0.265 A 
ATOM     16  O   UNL     1      -0.715  -7.838   0.000  0.00  0.00    -0.267 OA
ATOM     17  C   UNL     1       0.715  -7.838   0.000  0.00  0.00    +0.127 A 
ATOM     18  C   UNL     1       1.429  -7.425   0.000  0.00  0.00    +0.010 A 
ATOM     19  C   UNL     1       1.429  -6.600   0.000  0.00  0.00    +0.019 A 
ATOM     20  C   UNL     1       0.715  -6.188   0.000  0.00  0.00    +0.079 A 
BRANCH  17  21
ATOM     21  C   UNL     1       0.715  -8.662   0.000  0.00  0.00    +0.423 C 
ATOM     22  F   UNL     1       1.540  -8.662   0.000  0.00  0.00    -0.166 F 
ATOM     23  F   UNL     1      -0.111  -8.662   0.000  0.00  0.00    -0.166 F 
ATOM     24  F   UNL     1       0.715  -9.488   0.000  0.00  0.00    -0.166 F 
ENDBRANCH  17  21
ENDBRANCH  13  14
ENDBRANCH   2  13
TORSDOF 4
