REMARK  Name = 
REMARK  5 active torsions:
REMARK  status: ('A' for Active; 'I' for Inactive)
REMARK    1  A    between atoms: N_2  and  C_3
REMARK    2  A    between atoms: N_2  and  S_20
REMARK    3  A    between atoms: C_3  and  C_4
REMARK    4  A    between atoms: N_6  and  C_7
REMARK    5  A    between atoms: C_7  and  C_8
REMARK                            x       y       z     vdW  Elec       q    Type
REMARK                         _______ _______ _______ _____ _____    ______ ____
ROOT
ATOM      1  C   UNL     1       0.715  -1.238   0.000  0.00  0.00    +0.019 A 
ATOM      2  C   UNL     1       0.000  -1.650   0.000  0.00  0.00    +0.098 A 
ATOM      3  N   UNL     1       0.000  -2.475   0.000  0.00  0.00    -0.229 NA
ATOM      4  C   UNL     1       0.715  -2.888   0.000  0.00  0.00    +0.132 A 
ATOM      5  N   UNL     1       0.715  -3.712   0.000  0.00  0.00    -0.288 N 
ATOM      6  C   UNL     1       0.000  -4.125   0.000  0.00  0.00    +0.124 C 
ATOM      7  C   UNL     1       0.000  -4.950   0.000  0.00  0.00    +0.164 C 
ATOM      8  O   UNL     1       0.715  -5.362   0.000  0.00  0.00    -0.350 OA
ATOM      9  C   UNL     1       1.429  -4.950   0.000  0.00  0.00    +0.164 C 
ATOM     10  C   UNL     1       1.429  -4.125   0.000  0.00  0.00    +0.124 C 
ATOM     11  C   UNL     1       1.429  -2.475   0.000  0.00  0.00    +0.034 A 
ATOM     12  C   UNL     1       1.429  -1.650   0.000  0.00  0.00    +0.002 A 
ENDROOT
BRANCH   1  13
ATOM     13  C   UNL     1       0.715  -0.412   0.000  0.00  0.00    +0.143 C 
BRANCH  13  15
ATOM     14  C   UNL     1       0.000   0.825   0.000  0.00  0.00    +0.260 C 
ATOM     15  N   UNL     1       0.000   0.000   0.000  0.00  0.00    -0.199 NA
ATOM     16  O   UNL     1       0.715   1.238   0.000  0.00  0.00    -0.272 OA
BRANCH  14  17
ATOM     17  C   UNL     1      -0.715   1.238   0.000  0.00  0.00    +0.182 C 
BRANCH  17  19
ATOM     18  C   UNL     1       0.000   2.475   0.000  0.00  0.00    +0.115 C 
ATOM     19  N   UNL     1      -0.715   2.062   0.000  0.00  0.00    -0.149 NA
BRANCH  19  20
ATOM     20  S   UNL     1      -1.429   2.475   0.000  0.00  0.00    +0.046 S 
ATOM     21  C   UNL     1      -1.841   1.760   0.000  0.00  0.00    +0.196 C 
ATOM     22  O   UNL     1      -1.016   3.189   0.000  0.00  0.00    -0.157 OA
ATOM     23  O   UNL     1      -2.143   2.888   0.000  0.00  0.00    -0.157 OA
ENDBRANCH  19  20
ENDBRANCH  17  19
ENDBRANCH  14  17
ENDBRANCH  13  15
ENDBRANCH   1  13
TORSDOF 5
