REMARK  Name = 
REMARK  5 active torsions:
REMARK  status: ('A' for Active; 'I' for Inactive)
REMARK    1  A    between atoms: C_2  and  C_5
REMARK    2  A    between atoms: N_10  and  C_11
REMARK    3  A    between atoms: C_11  and  C_12
REMARK    4  A    between atoms: N_14  and  C_15
REMARK    5  A    between atoms: C_15  and  C_20
REMARK                            x       y       z     vdW  Elec       q    Type
REMARK                         _______ _______ _______ _____ _____    ______ ____
ROOT
ATOM      1  C   UNL     1       2.436   8.716   0.000  0.00  0.00    +0.089 A 
ATOM      2  C   UNL     1       2.181   7.932   0.000  0.00  0.00    +0.083 A 
ATOM      3  N   UNL     1       2.733   7.319   0.000  0.00  0.00    -0.285 N 
ATOM      4  C   UNL     1       3.540   7.490   0.000  0.00  0.00    +0.261 A 
ATOM      5  O   UNL     1       4.092   6.877   0.000  0.00  0.00    -0.267 OA
ATOM      6  C   UNL     1       3.795   8.275   0.000  0.00  0.00    +0.061 A 
ATOM      7  C   UNL     1       3.243   8.888   0.000  0.00  0.00    +0.010 A 
ENDROOT
BRANCH   1   9
ATOM      8  F   UNL     1       1.332   9.943   0.000  0.00  0.00    -0.166 F 
ATOM      9  C   UNL     1       1.884   9.330   0.000  0.00  0.00    +0.420 C 
ATOM     10  F   UNL     1       2.497   9.882   0.000  0.00  0.00    -0.166 F 
ATOM     11  F   UNL     1       1.271   8.777   0.000  0.00  0.00    -0.166 F 
ENDBRANCH   1   9
BRANCH   3  12
ATOM     12  C   UNL     1       2.478   6.534   0.000  0.00  0.00    +0.196 C 
BRANCH  12  13
ATOM     13  C   UNL     1       3.030   5.921   0.000  0.00  0.00    +0.265 C 
ATOM     14  N   UNL     1       2.775   5.136   0.000  0.00  0.00    -0.193 NA
ATOM     15  O   UNL     1       3.837   6.093   0.000  0.00  0.00    -0.271 OA
BRANCH  14  16
ATOM     16  C   UNL     1       3.328   4.523   0.000  0.00  0.00    +0.157 C 
ATOM     17  C   UNL     1       2.660   4.038   0.000  0.00  0.00    +0.034 C 
ATOM     18  C   UNL     1       2.915   3.254   0.000  0.00  0.00    +0.003 C 
ATOM     19  C   UNL     1       3.740   3.254   0.000  0.00  0.00    +0.003 C 
ATOM     20  C   UNL     1       3.995   4.038   0.000  0.00  0.00    +0.034 C 
BRANCH  16  21
ATOM     21  C   UNL     1       3.880   5.136   0.000  0.00  0.00    +0.091 C 
ATOM     22  N   UNL     1       4.431   5.750   0.000  0.00  0.00    -0.194 NA
ENDBRANCH  16  21
ENDBRANCH  14  16
ENDBRANCH  12  13
ENDBRANCH   3  12
TORSDOF 5
