REMARK  Name = 
REMARK  1 active torsions:
REMARK  status: ('A' for Active; 'I' for Inactive)
REMARK    1  A    between atoms: C_8  and  N_9
REMARK                            x       y       z     vdW  Elec       q    Type
REMARK                         _______ _______ _______ _____ _____    ______ ____
ROOT
ATOM      1 CL   UNL     1       0.000   0.000   0.000  0.00  0.00    +0.000 Cl
ENDROOT
TORSDOF 0
REMARK  Name = 
REMARK  1 active torsions:
REMARK  status: ('A' for Active; 'I' for Inactive)
REMARK    1  A    between atoms: C_8  and  N_9
REMARK                            x       y       z     vdW  Elec       q    Type
REMARK                         _______ _______ _______ _____ _____    ______ ____
ROOT
ATOM      1  N   UNL     1       5.215   0.952   0.000  0.00  0.00    -0.125 NA
ATOM      2  C   UNL     1       5.215   0.127   0.000  0.00  0.00    +0.121 A 
ATOM      3  C   UNL     1       4.501  -0.286   0.000  0.00  0.00    +0.149 A 
ATOM      4  N   UNL     1       4.501  -1.111   0.000  0.00  0.00    -0.228 NA
ATOM      5  C   UNL     1       5.215  -1.523   0.000  0.00  0.00    +0.100 A 
ATOM      6  C   UNL     1       5.929  -1.111   0.000  0.00  0.00    +0.022 A 
ATOM      7  C   UNL     1       5.929  -0.286   0.000  0.00  0.00    +0.022 A 
ENDROOT
BRANCH   3   8
ATOM      8  N   UNL     1       3.786   0.127   0.000  0.00  0.00    -0.287 N 
ATOM      9  C   UNL     1       3.786   0.952   0.000  0.00  0.00    +0.124 C 
ATOM     10  C   UNL     1       3.072   1.364   0.000  0.00  0.00    +0.164 C 
ATOM     11  O   UNL     1       2.357   0.952   0.000  0.00  0.00    -0.350 OA
ATOM     12  C   UNL     1       2.357   0.127   0.000  0.00  0.00    +0.164 C 
ATOM     13  C   UNL     1       3.072  -0.286   0.000  0.00  0.00    +0.124 C 
ENDBRANCH   3   8
TORSDOF 1
