REMARK  Name = 
REMARK  6 active torsions:
REMARK  status: ('A' for Active; 'I' for Inactive)
REMARK    1  A    between atoms: O_2  and  C_3
REMARK    2  A    between atoms: C_6  and  O_7
REMARK    3  A    between atoms: C_9  and  C_11
REMARK    4  A    between atoms: C_11  and  C_13
REMARK    5  A    between atoms: C_13  and  N_14
REMARK    6  A    between atoms: C_15  and  C_16
REMARK                            x       y       z     vdW  Elec       q    Type
REMARK                         _______ _______ _______ _____ _____    ______ ____
ROOT
ATOM      1  C   UNL     1       0.077  -2.321   0.000  0.00  0.00    +0.200 C 
ATOM      2  O   UNL     1      -0.475  -1.708   0.000  0.00  0.00    -0.216 OA
ENDROOT
BRANCH   1   5
ATOM      3  C   UNL     1       0.119  -4.504   0.000  0.00  0.00    +0.139 A 
ATOM      4  C   UNL     1       0.374  -3.719   0.000  0.00  0.00    +0.038 A 
ATOM      5  C   UNL     1      -0.178  -3.106   0.000  0.00  0.00    +0.047 A 
ATOM      6  C   UNL     1      -0.985  -3.278   0.000  0.00  0.00    +0.137 A 
ATOM      7  C   UNL     1      -1.240  -4.062   0.000  0.00  0.00    +0.040 A 
ATOM      8  C   UNL     1      -0.688  -4.675   0.000  0.00  0.00    +0.040 A 
BRANCH   6   9
ATOM      9  O   UNL     1      -1.537  -2.665   0.000  0.00  0.00    -0.472 OA
ATOM     10  C   UNL     1      -1.282  -1.880   0.000  0.00  0.00    +0.252 C 
ENDBRANCH   6   9
BRANCH   3  12
ATOM     11  C   UNL     1       0.416  -5.902   0.000  0.00  0.00    +0.252 C 
ATOM     12  O   UNL     1       0.671  -5.117   0.000  0.00  0.00    -0.471 OA
ENDBRANCH   3  12
ENDBRANCH   1   5
BRANCH   1  13
ATOM     13  C   UNL     1       0.884  -2.150   0.000  0.00  0.00    +0.145 C 
BRANCH  13  14
ATOM     14  N   UNL     1       1.139  -1.365   0.000  0.00  0.00    -0.310 N 
ATOM     15  C   UNL     1       1.923  -1.110   0.000  0.00  0.00    +0.079 A 
ATOM     16  C   UNL     1       1.923  -0.285   0.000  0.00  0.00    +0.098 A 
ATOM     17  C   UNL     1       2.638   0.127   0.000  0.00  0.00    +0.021 A 
ATOM     18  C   UNL     1       3.352  -0.285   0.000  0.00  0.00    +0.002 A 
ATOM     19  C   UNL     1       3.352  -1.110   0.000  0.00  0.00    +0.002 A 
ATOM     20  N   UNL     1       1.139  -0.030   0.000  0.00  0.00    -0.228 NA
ATOM     21  C   UNL     1       2.638  -1.523   0.000  0.00  0.00    +0.019 A 
ATOM     22  C   UNL     1       0.654  -0.698   0.000  0.00  0.00    +0.154 A 
BRANCH  22  23
ATOM     23  C   UNL     1      -0.171  -0.698   0.000  0.00  0.00    +0.245 C 
ATOM     24  O   UNL     1      -0.584   0.017   0.000  0.00  0.00    -0.212 OA
ENDBRANCH  22  23
ENDBRANCH  13  14
ENDBRANCH   1  13
TORSDOF 6
