REMARK  Name = 
REMARK  2 active torsions:
REMARK  status: ('A' for Active; 'I' for Inactive)
REMARK    1  A    between atoms: N_1  and  C_2
REMARK    2  A    between atoms: C_4  and  C_9
REMARK                            x       y       z     vdW  Elec       q    Type
REMARK                         _______ _______ _______ _____ _____    ______ ____
ROOT
ATOM      1  N   UNL     1       3.867   0.500   0.000  0.00  0.00    -0.281 N 
ATOM      2  C   UNL     1       3.200   0.983   0.000  0.00  0.00    +0.125 C 
ATOM      3  C   UNL     1       3.454   1.771   0.000  0.00  0.00    +0.174 C 
ATOM      4  C   UNL     1       4.279   1.771   0.000  0.00  0.00    +0.066 C 
ATOM      5  O   UNL     1       2.971   2.438   0.000  0.00  0.00    -0.221 OA
ATOM      6  C   UNL     1       4.533   0.983   0.000  0.00  0.00    +0.181 C 
ENDROOT
BRANCH   1   7
ATOM      7  C   UNL     1       3.867  -0.325   0.000  0.00  0.00    +0.155 A 
ATOM      8  N   UNL     1       4.583  -0.738   0.000  0.00  0.00    -0.207 NA
ATOM      9  C   UNL     1       4.583  -1.562   0.000  0.00  0.00    +0.202 A 
ATOM     10  N   UNL     1       3.867  -1.975   0.000  0.00  0.00    -0.203 NA
ATOM     11  C   UNL     1       3.154  -1.562   0.000  0.00  0.00    +0.186 A 
ATOM     12  N   UNL     1       2.367  -1.817   0.000  0.00  0.00    -0.203 NA
ATOM     13  C   UNL     1       1.883  -1.150   0.000  0.00  0.00    +0.200 A 
ATOM     14  N   UNL     1       2.367  -0.483   0.000  0.00  0.00    -0.218 NA
ATOM     15  C   UNL     1       3.154  -0.738   0.000  0.00  0.00    +0.150 A 
ENDBRANCH   1   7
BRANCH   6  16
ATOM     16  C   UNL     1       5.321   0.729   0.000  0.00  0.00    +0.383 C 
ATOM     17  O   UNL     1       5.933   1.283   0.000  0.00  0.00    -0.244 OA
ATOM     18  O   UNL     1       5.492  -0.075   0.000  0.00  0.00    -0.244 OA
ENDBRANCH   6  16
TORSDOF 2
REMARK  Name = 
REMARK  2 active torsions:
REMARK  status: ('A' for Active; 'I' for Inactive)
REMARK    1  A    between atoms: N_1  and  C_2
REMARK    2  A    between atoms: C_4  and  C_9
REMARK                            x       y       z     vdW  Elec       q    Type
REMARK                         _______ _______ _______ _____ _____    ______ ____
ROOT
ATOM      1 CL   UNL     1       0.000   0.000   0.000  0.00  0.00    +0.000 Cl
ENDROOT
TORSDOF 0
