REMARK  Name = 
REMARK  5 active torsions:
REMARK  status: ('A' for Active; 'I' for Inactive)
REMARK    1  A    between atoms: C_3  and  O_4
REMARK    2  A    between atoms: C_3  and  C_9
REMARK    3  A    between atoms: O_4  and  C_5
REMARK    4  A    between atoms: C_5  and  C_6
REMARK    5  A    between atoms: N_11  and  C_12
REMARK                            x       y       z     vdW  Elec       q    Type
REMARK                         _______ _______ _______ _____ _____    ______ ____
ROOT
ATOM      1 CL   UNL     1       0.000   0.000   0.000  0.00  0.00    +0.000 Cl
ENDROOT
TORSDOF 0
REMARK  Name = 
REMARK  5 active torsions:
REMARK  status: ('A' for Active; 'I' for Inactive)
REMARK    1  A    between atoms: C_3  and  O_4
REMARK    2  A    between atoms: C_3  and  C_9
REMARK    3  A    between atoms: O_4  and  C_5
REMARK    4  A    between atoms: C_5  and  C_6
REMARK    5  A    between atoms: N_11  and  C_12
REMARK                            x       y       z     vdW  Elec       q    Type
REMARK                         _______ _______ _______ _____ _____    ______ ____
ROOT
ATOM      1  C   UNL     1       6.040   0.163   0.000  0.00  0.00    +0.273 C 
ATOM      2  N   UNL     1       6.755   0.576   0.000  0.00  0.00    -0.176 NA
ATOM      3  O   UNL     1       6.040  -0.662   0.000  0.00  0.00    -0.270 OA
ENDROOT
BRANCH   2   4
ATOM      4  C   UNL     1       7.469   0.163   0.000  0.00  0.00    +0.093 A 
ATOM      5  C   UNL     1       7.469  -0.662   0.000  0.00  0.00    +0.117 A 
ATOM      6  N   UNL     1       8.183  -1.074   0.000  0.00  0.00    -0.225 NA
ATOM      7  C   UNL     1       8.898  -0.662   0.000  0.00  0.00    +0.170 A 
ATOM      8  N   UNL     1       9.612  -1.074   0.000  0.00  0.00    -0.107 NA
ATOM      9  C   UNL     1       8.898   0.163   0.000  0.00  0.00    +0.039 A 
ATOM     10  C   UNL     1       8.183   0.576   0.000  0.00  0.00    +0.021 A 
ENDBRANCH   2   4
BRANCH   1  12
ATOM     11  C   UNL     1       5.326   1.401   0.000  0.00  0.00    +0.042 C 
ATOM     12  C   UNL     1       5.326   0.576   0.000  0.00  0.00    +0.193 C 
BRANCH  12  13
ATOM     13  O   UNL     1       4.611   0.163   0.000  0.00  0.00    -0.347 OA
BRANCH  13  14
ATOM     14  C   UNL     1       3.897   0.576   0.000  0.00  0.00    +0.143 C 
BRANCH  14  15
ATOM     15  C   UNL     1       3.182   0.163   0.000  0.00  0.00    +0.030 C 
ATOM     16  C   UNL     1       2.357   0.163   0.000  0.00  0.00    +0.003 C 
ATOM     17  C   UNL     1       2.770  -0.551   0.000  0.00  0.00    +0.003 C 
ENDBRANCH  14  15
ENDBRANCH  13  14
ENDBRANCH  12  13
ENDBRANCH   1  12
TORSDOF 5
