REMARK  Name = 
REMARK  2 active torsions:
REMARK  status: ('A' for Active; 'I' for Inactive)
REMARK    1  A    between atoms: C_2  and  C_4
REMARK    2  A    between atoms: C_6  and  C_9
REMARK                            x       y       z     vdW  Elec       q    Type
REMARK                         _______ _______ _______ _____ _____    ______ ____
ROOT
ATOM      1  C   UNL     1       0.715  -1.238   0.000  0.00  0.00    +0.304 C 
ATOM      2  O   UNL     1       0.047  -1.722   0.000  0.00  0.00    -0.369 OA
ATOM      3  N   UNL     1       0.302  -2.507   0.000  0.00  0.00    -0.087 NA
ATOM      4  C   UNL     1       1.127  -2.507   0.000  0.00  0.00    +0.103 C 
ATOM      5  C   UNL     1       1.382  -1.722   0.000  0.00  0.00    +0.107 C 
ENDROOT
BRANCH   4   6
ATOM      6  C   UNL     1       1.612  -3.175   0.000  0.00  0.00    +0.036 A 
ATOM      7  C   UNL     1       1.276  -3.928   0.000  0.00  0.00    +0.100 A 
ATOM      8  N   UNL     1       1.761  -4.596   0.000  0.00  0.00    -0.242 NA
ATOM      9  C   UNL     1       2.582  -4.509   0.000  0.00  0.00    +0.099 A 
ATOM     10  C   UNL     1       2.917  -3.756   0.000  0.00  0.00    +0.021 A 
ATOM     11  C   UNL     1       2.432  -3.088   0.000  0.00  0.00    +0.004 A 
ENDBRANCH   4   6
BRANCH   1  13
ATOM     12  O   UNL     1       0.000   0.000   0.000  0.00  0.00    -0.242 OA
ATOM     13  C   UNL     1       0.715  -0.412   0.000  0.00  0.00    +0.407 C 
ATOM     14  O   UNL     1       1.429   0.000   0.000  0.00  0.00    -0.242 OA
ENDBRANCH   1  13
TORSDOF 2
