REMARK  Name = 
REMARK  3 active torsions:
REMARK  status: ('A' for Active; 'I' for Inactive)
REMARK    1  A    between atoms: C_2  and  C_4
REMARK    2  A    between atoms: C_8  and  O_9
REMARK    3  A    between atoms: O_9  and  C_10
REMARK                            x       y       z     vdW  Elec       q    Type
REMARK                         _______ _______ _______ _____ _____    ______ ____
ROOT
ATOM      1  C   UNL     1       1.322   2.413   0.000  0.00  0.00    +0.086 A 
ATOM      2  C   UNL     1       2.037   2.001   0.000  0.00  0.00    +0.064 A 
ATOM      3  C   UNL     1       2.751   2.413   0.000  0.00  0.00    +0.225 A 
ATOM      4  N   UNL     1       2.751   3.238   0.000  0.00  0.00    -0.210 NA
ATOM      5  C   UNL     1       2.037   3.651   0.000  0.00  0.00    +0.102 A 
ATOM      6  C   UNL     1       1.322   3.238   0.000  0.00  0.00    +0.027 A 
ENDROOT
BRANCH   1   8
ATOM      7  O   UNL     1      -0.107   2.413   0.000  0.00  0.00    -0.241 OA
ATOM      8  C   UNL     1       0.608   2.001   0.000  0.00  0.00    +0.388 C 
ATOM      9  O   UNL     1       0.608   1.176   0.000  0.00  0.00    -0.241 OA
ENDBRANCH   1   8
BRANCH   3  10
ATOM     10  O   UNL     1       3.466   2.001   0.000  0.00  0.00    -0.461 OA
BRANCH  10  11
ATOM     11  C   UNL     1       3.466   1.176   0.000  0.00  0.00    +0.199 C 
ATOM     12  C   UNL     1       2.798   0.691   0.000  0.00  0.00    +0.186 C 
ATOM     13  O   UNL     1       3.053  -0.094   0.000  0.00  0.00    -0.350 OA
ATOM     14  C   UNL     1       3.878  -0.094   0.000  0.00  0.00    +0.146 C 
ATOM     15  C   UNL     1       4.133   0.691   0.000  0.00  0.00    +0.078 C 
ENDBRANCH  10  11
ENDBRANCH   3  10
TORSDOF 3
