REMARK  Name = 
REMARK  2 active torsions:
REMARK  status: ('A' for Active; 'I' for Inactive)
REMARK    1  A    between atoms: N_1  and  C1*_2
REMARK    2  A    between atoms: C4*_11  and  C5*_17
REMARK                            x       y       z     vdW  Elec       q    Type
REMARK                         _______ _______ _______ _____ _____    ______ ____
ROOT
ATOM      1  N   UNL     1       1.608  -3.171   0.000  0.00  0.00    -0.253 N 
ATOM      2  C   UNL     1       2.429  -3.087   0.000  0.00  0.00    +0.094 A 
ATOM      3  C   UNL     1       2.917  -3.754   0.000  0.00  0.00    +0.110 A 
ATOM      4  C   UNL     1       2.579  -4.508   0.000  0.00  0.00    +0.291 A 
ATOM      5  O   UNL     1       3.067  -5.175   0.000  0.00  0.00    -0.264 OA
ATOM      6  N   UNL     1       1.758  -4.592   0.000  0.00  0.00    -0.153 NA
ATOM      7 BR   UNL     1       3.737  -3.667   0.000  0.00  0.00    -0.042 Br
ATOM      8  C   UNL     1       1.275  -3.925   0.000  0.00  0.00    +0.355 A 
ATOM      9  O   UNL     1       0.454  -4.013   0.000  0.00  0.00    -0.244 OA
ENDROOT
BRANCH   1  10
ATOM     10  C1* UNL     1       1.125  -2.504   0.000  0.00  0.00    +0.242 C 
ATOM     11  O4* UNL     1       1.379  -1.721   0.000  0.00  0.00    -0.330 OA
ATOM     12  C4* UNL     1       0.713  -1.238   0.000  0.00  0.00    +0.183 C 
ATOM     13  C3* UNL     1       0.046  -1.721   0.000  0.00  0.00    +0.216 C 
ATOM     14  O3* UNL     1      -0.742  -1.467   0.000  0.00  0.00    -0.218 OA
ATOM     15  C2* UNL     1       0.300  -2.504   0.000  0.00  0.00    +0.234 C 
ATOM     16  O2* UNL     1      -0.183  -3.171   0.000  0.00  0.00    -0.216 OA
BRANCH  12  17
ATOM     17  C5* UNL     1       0.713  -0.412   0.000  0.00  0.00    +0.214 C 
ATOM     18  O5* UNL     1       0.000   0.000   0.000  0.00  0.00    -0.218 OA
ENDBRANCH  12  17
ENDBRANCH   1  10
TORSDOF 2
