REMARK  Name = 
REMARK  8 active torsions:
REMARK  status: ('A' for Active; 'I' for Inactive)
REMARK    1  A    between atoms: C_3  and  N_9
REMARK    2  A    between atoms: C_4  and  C_7
REMARK    3  A    between atoms: N_9  and  C_22
REMARK    4  A    between atoms: N_10  and  C_20
REMARK    5  A    between atoms: C_12  and  C_20
REMARK    6  A    between atoms: C_15  and  O_26
REMARK    7  A    between atoms: C_16  and  C_32
REMARK    8  A    between atoms: C_21  and  C_22
REMARK                            x       y       z     vdW  Elec       q    Type
REMARK                         _______ _______ _______ _____ _____    ______ ____
ROOT
ATOM      1  N   UNL     1      -3.467  -1.296   0.000  0.00  0.00    -0.197 NA
ATOM      2  C   UNL     1      -3.467  -0.471   0.000  0.00  0.00    +0.157 A 
ATOM      3  C   UNL     1      -4.183  -0.058   0.000  0.00  0.00    +0.107 A 
ATOM      4  C   UNL     1      -4.896  -0.471   0.000  0.00  0.00    +0.109 A 
ATOM      5  N   UNL     1      -4.896  -1.296   0.000  0.00  0.00    -0.212 NA
ATOM      6  C   UNL     1      -4.183  -1.708   0.000  0.00  0.00    +0.221 A 
ATOM      7  N   UNL     1      -4.183  -2.533   0.000  0.00  0.00    -0.277 N 
ATOM      8  C   UNL     1      -3.517  -3.021   0.000  0.00  0.00    +0.094 C 
ATOM      9  C   UNL     1      -3.771  -3.804   0.000  0.00  0.00    +0.023 C 
ATOM     10  C   UNL     1      -4.596  -3.804   0.000  0.00  0.00    +0.024 C 
ATOM     11  C   UNL     1      -4.850  -3.021   0.000  0.00  0.00    +0.108 C 
ENDROOT
BRANCH   3  12
ATOM     12  C   UNL     1      -4.183   0.767   0.000  0.00  0.00    +0.269 C 
ATOM     13  O   UNL     1      -4.896   1.179   0.000  0.00  0.00    -0.268 OA
ATOM     14  N   UNL     1      -3.467   1.179   0.000  0.00  0.00    -0.193 NA
BRANCH  14  15
ATOM     15  C   UNL     1      -3.467   2.004   0.000  0.00  0.00    +0.181 C 
BRANCH  15  16
ATOM     16  C   UNL     1      -4.183   2.417   0.000  0.00  0.00    +0.161 A 
ATOM     17  N   UNL     1      -4.183   3.242   0.000  0.00  0.00    -0.227 NA
ATOM     18  C   UNL     1      -4.896   3.654   0.000  0.00  0.00    +0.102 A 
ATOM     19  C   UNL     1      -5.612   3.242   0.000  0.00  0.00    +0.041 A 
ATOM     20  C   UNL     1      -5.612   2.417   0.000  0.00  0.00    +0.102 A 
ATOM     21  N   UNL     1      -4.896   2.004   0.000  0.00  0.00    -0.227 NA
ENDBRANCH  15  16
ENDBRANCH  14  15
ENDBRANCH   3  12
BRANCH  11  22
ATOM     22  C   UNL     1      -5.633  -2.763   0.000  0.00  0.00    +0.202 C 
ATOM     23  O   UNL     1      -5.804  -1.958   0.000  0.00  0.00    -0.219 OA
ENDBRANCH  11  22
BRANCH   2  24
ATOM     24  N   UNL     1      -2.754  -0.058   0.000  0.00  0.00    -0.215 NA
BRANCH  24  25
ATOM     25  C   UNL     1      -2.038  -0.471   0.000  0.00  0.00    +0.140 C 
BRANCH  25  26
ATOM     26  C   UNL     1      -1.325  -0.058   0.000  0.00  0.00    +0.000 A 
ATOM     27  C   UNL     1      -0.608  -0.471   0.000  0.00  0.00    +0.001 A 
ATOM     28  C   UNL     1       0.104  -0.058   0.000  0.00  0.00    +0.038 A 
ATOM     29  C   UNL     1       0.104   0.767   0.000  0.00  0.00    +0.149 A 
ATOM     30  C   UNL     1      -0.608   1.179   0.000  0.00  0.00    +0.091 A 
ATOM     31 CL   UNL     1      -0.608   2.004   0.000  0.00  0.00    -0.079 Cl
ATOM     32  C   UNL     1      -1.325   0.767   0.000  0.00  0.00    +0.012 A 
BRANCH  29  33
ATOM     33  O   UNL     1       0.821   1.179   0.000  0.00  0.00    -0.471 OA
ATOM     34  C   UNL     1       0.821   2.004   0.000  0.00  0.00    +0.253 C 
ENDBRANCH  29  33
ENDBRANCH  25  26
ENDBRANCH  24  25
ENDBRANCH   2  24
TORSDOF 8
