REMARK  Name = 
REMARK  6 active torsions:
REMARK  status: ('A' for Active; 'I' for Inactive)
REMARK    1  A    between atoms: C_7  and  N_8
REMARK    2  A    between atoms: N_8  and  C_9
REMARK    3  A    between atoms: C_9  and  C_10
REMARK    4  A    between atoms: C_10  and  O_11
REMARK    5  A    between atoms: O_11  and  C_12
REMARK    6  A    between atoms: C_12  and  C_13
REMARK                            x       y       z     vdW  Elec       q    Type
REMARK                         _______ _______ _______ _____ _____    ______ ____
ROOT
ATOM      1  N   UNL     1       2.143   1.238   0.000  0.00  0.00    -0.217 NA
ENDROOT
BRANCH   1   5
ATOM      2  C   UNL     1       0.715  -1.238   0.000  0.00  0.00    +0.054 C 
ATOM      3  C   UNL     1       0.715  -0.412   0.000  0.00  0.00    +0.080 A 
ATOM      4  N   UNL     1       1.429   0.000   0.000  0.00  0.00    -0.231 NA
ATOM      5  C   UNL     1       1.429   0.825   0.000  0.00  0.00    +0.161 A 
ATOM      6  C   UNL     1       0.715   1.238   0.000  0.00  0.00    +0.092 A 
ATOM      7  C   UNL     1       0.715   2.062   0.000  0.00  0.00    +0.055 C 
ATOM      8  N   UNL     1       0.000   0.825   0.000  0.00  0.00    -0.244 NA
ATOM      9  C   UNL     1       0.000   0.000   0.000  0.00  0.00    +0.113 A 
ENDBRANCH   1   5
BRANCH   1  10
ATOM     10  C   UNL     1       2.858   0.825   0.000  0.00  0.00    +0.146 C 
BRANCH  10  11
ATOM     11  C   UNL     1       3.572   1.238   0.000  0.00  0.00    +0.166 C 
BRANCH  11  12
ATOM     12  O   UNL     1       4.287   0.825   0.000  0.00  0.00    -0.349 OA
BRANCH  12  13
ATOM     13  C   UNL     1       5.001   1.238   0.000  0.00  0.00    +0.172 C 
BRANCH  13  14
ATOM     14  C   UNL     1       5.716   0.825   0.000  0.00  0.00    +0.145 C 
ATOM     15  O   UNL     1       5.802   0.004   0.000  0.00  0.00    -0.354 OA
ATOM     16  C   UNL     1       6.609  -0.167   0.000  0.00  0.00    +0.142 C 
ATOM     17  C   UNL     1       7.021   0.547   0.000  0.00  0.00    +0.035 C 
ATOM     18  C   UNL     1       6.469   1.161   0.000  0.00  0.00    +0.035 C 
ENDBRANCH  13  14
ENDBRANCH  12  13
ENDBRANCH  11  12
ENDBRANCH  10  11
ENDBRANCH   1  10
TORSDOF 6
