REMARK  Name = 
REMARK  3 active torsions:
REMARK  status: ('A' for Active; 'I' for Inactive)
REMARK    1  A    between atoms: N_5  and  C_6
REMARK    2  A    between atoms: C_6  and  C_7
REMARK    3  A    between atoms: C_7  and  C_9
REMARK                            x       y       z     vdW  Elec       q    Type
REMARK                         _______ _______ _______ _____ _____    ______ ____
ROOT
ATOM      1  C   UNL     1       1.429  -4.950   0.000  0.00  0.00    +0.148 C 
ENDROOT
BRANCH   1   8
ATOM      2  C   UNL     1       1.429  -1.650   0.000  0.00  0.00    +0.052 C 
ATOM      3  C   UNL     1       1.429  -2.475   0.000  0.00  0.00    +0.062 A 
ATOM      4  C   UNL     1       0.715  -2.888   0.000  0.00  0.00    +0.048 A 
ATOM      5  C   UNL     1       0.000  -2.475   0.000  0.00  0.00    +0.037 C 
ATOM      6  C   UNL     1       0.715  -3.712   0.000  0.00  0.00    +0.259 A 
ATOM      7  O   UNL     1       0.000  -4.125   0.000  0.00  0.00    -0.267 OA
ATOM      8  N   UNL     1       1.429  -4.125   0.000  0.00  0.00    -0.275 N 
ATOM      9  C   UNL     1       2.143  -3.712   0.000  0.00  0.00    +0.181 A 
ATOM     10  N   UNL     1       2.143  -2.888   0.000  0.00  0.00    -0.230 NA
ENDBRANCH   1   8
BRANCH   1  11
ATOM     11  C   UNL     1       2.143  -5.362   0.000  0.00  0.00    +0.199 C 
ATOM     12  O   UNL     1       2.858  -4.950   0.000  0.00  0.00    -0.216 OA
BRANCH  11  13
ATOM     13  C   UNL     1       2.143  -6.188   0.000  0.00  0.00    +0.039 A 
ATOM     14  C   UNL     1       1.429  -6.600   0.000  0.00  0.00    +0.139 A 
ATOM     15  F   UNL     1       0.715  -6.188   0.000  0.00  0.00    -0.204 F 
ATOM     16  C   UNL     1       1.429  -7.425   0.000  0.00  0.00    +0.032 A 
ATOM     17  C   UNL     1       2.143  -7.838   0.000  0.00  0.00    +0.032 A 
ATOM     18  C   UNL     1       2.858  -7.425   0.000  0.00  0.00    +0.140 A 
ATOM     19  F   UNL     1       3.572  -7.838   0.000  0.00  0.00    -0.204 F 
ATOM     20  C   UNL     1       2.858  -6.600   0.000  0.00  0.00    +0.030 A 
ENDBRANCH  11  13
ENDBRANCH   1  11
TORSDOF 3
