REMARK  Name = 
REMARK  6 active torsions:
REMARK  status: ('A' for Active; 'I' for Inactive)
REMARK    1  A    between atoms: C_2  and  C_3
REMARK    2  A    between atoms: C_3  and  C_5
REMARK    3  A    between atoms: C_5  and  N_6
REMARK    4  A    between atoms: N_6  and  C_7
REMARK    5  A    between atoms: C_7  and  C_9
REMARK    6  A    between atoms: C_9  and  N_11
REMARK                            x       y       z     vdW  Elec       q    Type
REMARK                         _______ _______ _______ _____ _____    ______ ____
ROOT
ATOM      1  C   UNL     1       5.307  -3.364   0.000  0.00  0.00    +0.095 C 
ATOM      2  C   UNL     1       5.307  -4.189   0.000  0.00  0.00    +0.021 C 
ENDROOT
BRANCH   1   3
ATOM      3  C   UNL     1       6.021  -2.952   0.000  0.00  0.00    +0.121 C 
ATOM      4  C   UNL     1       6.021  -2.127   0.000  0.00  0.00    +0.028 C 
BRANCH   3   5
ATOM      5  N   UNL     1       6.736  -3.364   0.000  0.00  0.00    -0.250 N 
ATOM      6  N   UNL     1       6.822  -4.185   0.000  0.00  0.00    -0.168 NA
ATOM      7  C   UNL     1       7.629  -4.356   0.000  0.00  0.00    +0.122 A 
ATOM      8  C   UNL     1       8.041  -3.642   0.000  0.00  0.00    +0.043 A 
ATOM      9  C   UNL     1       7.489  -3.029   0.000  0.00  0.00    +0.097 A 
ENDBRANCH   3   5
ENDBRANCH   1   3
BRANCH   1  10
ATOM     10  N   UNL     1       4.592  -2.952   0.000  0.00  0.00    -0.215 NA
BRANCH  10  11
ATOM     11  C   UNL     1       3.878  -3.364   0.000  0.00  0.00    +0.121 C 
BRANCH  11  12
ATOM     12  C   UNL     1       3.163  -2.952   0.000  0.00  0.00    +0.169 C 
ATOM     13  O   UNL     1       3.163  -2.127   0.000  0.00  0.00    -0.222 OA
BRANCH  12  15
ATOM     14  C   UNL     1       1.734  -2.952   0.000  0.00  0.00    +0.003 C 
ATOM     15  C   UNL     1       2.449  -3.364   0.000  0.00  0.00    +0.034 C 
ENDBRANCH  12  15
ENDBRANCH  11  12
ENDBRANCH  10  11
ENDBRANCH   1  10
TORSDOF 6
