REMARK  Name = 
REMARK  1 active torsions:
REMARK  status: ('A' for Active; 'I' for Inactive)
REMARK    1  A    between atoms: C_5  and  C_8
REMARK                            x       y       z     vdW  Elec       q    Type
REMARK                         _______ _______ _______ _____ _____    ______ ____
ROOT
ATOM      1 CL   UNL     1       0.000   0.000   0.000  0.00  0.00    +0.000 Cl
ENDROOT
TORSDOF 0
REMARK  Name = 
REMARK  1 active torsions:
REMARK  status: ('A' for Active; 'I' for Inactive)
REMARK    1  A    between atoms: C_5  and  C_8
REMARK                            x       y       z     vdW  Elec       q    Type
REMARK                         _______ _______ _______ _____ _____    ______ ____
ROOT
ATOM      1  C   UNL     1       3.072   1.894   0.000  0.00  0.00    +0.121 C 
ATOM      2  N   UNL     1       2.357   1.482   0.000  0.00  0.00    -0.212 NA
ATOM      3  C   UNL     1       2.357   0.656   0.000  0.00  0.00    +0.126 C 
ATOM      4  C   UNL     1       3.072   0.244   0.000  0.00  0.00    +0.194 C 
ATOM      5  O   UNL     1       3.786   0.656   0.000  0.00  0.00    -0.345 OA
ATOM      6  C   UNL     1       3.786   1.482   0.000  0.00  0.00    +0.161 C 
ENDROOT
BRANCH   4   7
ATOM      7  C   UNL     1       3.072  -0.581   0.000  0.00  0.00    +0.209 A 
ATOM      8  N   UNL     1       2.404  -1.066   0.000  0.00  0.00    -0.057 NA
ATOM      9  O   UNL     1       2.659  -1.851   0.000  0.00  0.00    -0.328 OA
ATOM     10  C   UNL     1       3.484  -1.851   0.000  0.00  0.00    +0.316 A 
ATOM     11  N   UNL     1       3.739  -1.066   0.000  0.00  0.00    -0.185 NA
ENDBRANCH   4   7
TORSDOF 1
