REMARK  Name = 
REMARK  7 active torsions:
REMARK  status: ('A' for Active; 'I' for Inactive)
REMARK    1  A    between atoms: N_5  and  C_6
REMARK    2  A    between atoms: C_6  and  C_7
REMARK    3  A    between atoms: C_7  and  N_8
REMARK    4  A    between atoms: N_8  and  C_9
REMARK    5  A    between atoms: C_9  and  C_10
REMARK    6  A    between atoms: C_10  and  C_11
REMARK    7  A    between atoms: N_13  and  C_14
REMARK                            x       y       z     vdW  Elec       q    Type
REMARK                         _______ _______ _______ _____ _____    ______ ____
ROOT
ATOM      1  C   UNL     1       6.369  -4.321   0.000  0.00  0.00    +0.098 C 
ENDROOT
BRANCH   1   2
ATOM      2  N   UNL     1       5.654  -3.908   0.000  0.00  0.00    -0.215 NA
BRANCH   2   3
ATOM      3  C   UNL     1       4.940  -4.321   0.000  0.00  0.00    +0.115 C 
BRANCH   3   4
ATOM      4  C   UNL     1       4.225  -3.908   0.000  0.00  0.00    +0.146 C 
BRANCH   4   8
ATOM      5  C   UNL     1       2.282  -6.066   0.000  0.00  0.00    +0.034 C 
ATOM      6  C   UNL     1       2.618  -5.312   0.000  0.00  0.00    +0.018 A 
ATOM      7  C   UNL     1       3.425  -5.141   0.000  0.00  0.00    +0.092 A 
ATOM      8  N   UNL     1       3.511  -4.321   0.000  0.00  0.00    -0.248 N 
ATOM      9  N   UNL     1       2.757  -3.985   0.000  0.00  0.00    -0.168 NA
ATOM     10  C   UNL     1       2.205  -4.598   0.000  0.00  0.00    +0.117 A 
ENDBRANCH   4   8
ENDBRANCH   3   4
ENDBRANCH   2   3
ENDBRANCH   1   2
BRANCH   1  11
ATOM     11  C   UNL     1       7.083  -3.908   0.000  0.00  0.00    +0.106 C 
BRANCH  11  12
ATOM     12  C   UNL     1       7.798  -4.321   0.000  0.00  0.00    +0.243 C 
ATOM     13  N   UNL     1       8.512  -3.908   0.000  0.00  0.00    -0.207 NA
ATOM     14  O   UNL     1       7.798  -5.146   0.000  0.00  0.00    -0.273 OA
BRANCH  13  15
ATOM     15  C   UNL     1       9.227  -4.321   0.000  0.00  0.00    +0.095 C 
ATOM     16  C   UNL     1       9.313  -5.141   0.000  0.00  0.00    +0.022 C 
ATOM     17  C   UNL     1      10.120  -5.312   0.000  0.00  0.00    +0.002 C 
ATOM     18  C   UNL     1      10.532  -4.598   0.000  0.00  0.00    +0.002 C 
ATOM     19  C   UNL     1       9.980  -3.985   0.000  0.00  0.00    +0.022 C 
ENDBRANCH  13  15
ENDBRANCH  11  12
ENDBRANCH   1  11
TORSDOF 7
