REMARK  Name = 
REMARK  5 active torsions:
REMARK  status: ('A' for Active; 'I' for Inactive)
REMARK    1  A    between atoms: C_2  and  C_3
REMARK    2  A    between atoms: C_2  and  N_14
REMARK    3  A    between atoms: C_3  and  N_4
REMARK    4  A    between atoms: C_5  and  C_7
REMARK    5  A    between atoms: C_7  and  N_9
REMARK                            x       y       z     vdW  Elec       q    Type
REMARK                         _______ _______ _______ _____ _____    ______ ____
ROOT
ATOM      1  N   UNL     1       2.143  -1.238   0.000  0.00  0.00    -0.202 NA
ATOM      2  C   UNL     1       2.858  -0.825   0.000  0.00  0.00    +0.264 C 
ATOM      3  O   UNL     1       2.858   0.000   0.000  0.00  0.00    -0.271 OA
ENDROOT
BRANCH   2   4
ATOM      4  C   UNL     1       3.572  -1.238   0.000  0.00  0.00    +0.183 C 
ATOM      5  C   UNL     1       3.572  -2.062   0.000  0.00  0.00    +0.036 C 
BRANCH   4   6
ATOM      6  N   UNL     1       4.287  -0.825   0.000  0.00  0.00    -0.242 N 
ATOM      7  N   UNL     1       5.040  -1.161   0.000  0.00  0.00    -0.167 NA
ATOM      8  C   UNL     1       5.593  -0.547   0.000  0.00  0.00    +0.122 A 
ATOM      9  C   UNL     1       5.180   0.167   0.000  0.00  0.00    +0.043 A 
ATOM     10  C   UNL     1       4.373  -0.004   0.000  0.00  0.00    +0.097 A 
ENDBRANCH   4   6
ENDBRANCH   2   4
BRANCH   1  11
ATOM     11  C   UNL     1       1.429  -0.825   0.000  0.00  0.00    +0.131 C 
BRANCH  11  13
ATOM     12  C   UNL     1       0.715  -2.062   0.000  0.00  0.00    +0.019 C 
ATOM     13  C   UNL     1       0.715  -1.238   0.000  0.00  0.00    +0.079 C 
BRANCH  13  14
ATOM     14  N   UNL     1       0.000  -0.825   0.000  0.00  0.00    -0.268 NA
ATOM     15  C   UNL     1       0.000   0.000   0.000  0.00  0.00    +0.105 C 
ATOM     16  C   UNL     1      -0.715   0.412   0.000  0.00  0.00    +0.159 C 
ATOM     17  O   UNL     1      -1.429   0.000   0.000  0.00  0.00    -0.351 OA
ATOM     18  C   UNL     1      -1.429  -0.825   0.000  0.00  0.00    +0.159 C 
ATOM     19  C   UNL     1      -0.715  -1.238   0.000  0.00  0.00    +0.105 C 
ENDBRANCH  13  14
ENDBRANCH  11  13
ENDBRANCH   1  11
TORSDOF 5
