REMARK  Name = 
REMARK  2 active torsions:
REMARK  status: ('A' for Active; 'I' for Inactive)
REMARK    1  A    between atoms: C_2  and  C_4
REMARK    2  A    between atoms: C_10  and  N_11
REMARK                            x       y       z     vdW  Elec       q    Type
REMARK                         _______ _______ _______ _____ _____    ______ ____
ROOT
ATOM      1  C   UNL     1       4.529   4.142   0.000  0.00  0.00    +0.100 C 
ATOM      2  C   UNL     1       4.591   3.320   0.000  0.00  0.00    +0.106 C 
ATOM      3  C   UNL     1       5.272   2.855   0.000  0.00  0.00    +0.022 C 
ATOM      4  C   UNL     1       6.061   3.098   0.000  0.00  0.00    +0.002 C 
ATOM      5  C   UNL     1       6.362   3.866   0.000  0.00  0.00    +0.000 C 
ATOM      6  C   UNL     1       5.949   4.580   0.000  0.00  0.00    +0.001 C 
ATOM      7  C   UNL     1       5.134   4.703   0.000  0.00  0.00    +0.011 C 
ENDROOT
BRANCH   2   8
ATOM      8  N   UNL     1       3.876   2.907   0.000  0.00  0.00    -0.188 NA
ATOM      9  C   UNL     1       3.876   2.082   0.000  0.00  0.00    +0.345 C 
ATOM     10  N   UNL     1       4.591   1.669   0.000  0.00  0.00    -0.136 NA
ATOM     11  C   UNL     1       4.591   0.845   0.000  0.00  0.00    +0.187 A 
ATOM     12  S   UNL     1       3.923   0.359   0.000  0.00  0.00    -0.049 S 
ATOM     13  C   UNL     1       4.178  -0.425   0.000  0.00  0.00    +0.059 A 
ATOM     14  C   UNL     1       5.003  -0.425   0.000  0.00  0.00    +0.108 A 
ATOM     15  N   UNL     1       5.258   0.359   0.000  0.00  0.00    -0.221 NA
ATOM     16  O   UNL     1       3.162   1.669   0.000  0.00  0.00    -0.249 OA
ENDBRANCH   2   8
BRANCH   1  18
ATOM     17  N   UNL     1       3.116   3.929   0.000  0.00  0.00    -0.088 NA
ATOM     18  C   UNL     1       3.761   4.444   0.000  0.00  0.00    +0.262 C 
ATOM     19  O   UNL     1       3.638   5.259   0.000  0.00  0.00    -0.272 OA
ENDBRANCH   1  18
TORSDOF 2
