REMARK  Name = 
REMARK  7 active torsions:
REMARK  status: ('A' for Active; 'I' for Inactive)
REMARK    1  A    between atoms: C_2  and  C_3
REMARK    2  A    between atoms: C_3  and  C_4
REMARK    3  A    between atoms: C_3  and  C_6
REMARK    4  A    between atoms: C_6  and  N_7
REMARK    5  A    between atoms: N_7  and  C_8
REMARK    6  A    between atoms: C_8  and  C_9
REMARK    7  A    between atoms: C_9  and  C_12
REMARK                            x       y       z     vdW  Elec       q    Type
REMARK                         _______ _______ _______ _____ _____    ______ ____
ROOT
ATOM      1  C   UNL     1       0.568   1.939   0.000  0.00  0.00    +0.164 C 
ATOM      2  O   UNL     1       1.393   1.939   0.000  0.00  0.00    -0.220 OA
ATOM      3  C   UNL     1      -0.257   1.939   0.000  0.00  0.00    +0.039 C 
ENDROOT
BRANCH   1   4
ATOM      4  C   UNL     1       0.568   1.114   0.000  0.00  0.00    +0.046 A 
ATOM      5  C   UNL     1      -0.100   0.629   0.000  0.00  0.00    +0.095 A 
ATOM      6  N   UNL     1       0.155  -0.155   0.000  0.00  0.00    -0.248 N 
ATOM      7  C   UNL     1      -0.330  -0.823   0.000  0.00  0.00    +0.154 C 
ATOM      8  N   UNL     1       0.980  -0.155   0.000  0.00  0.00    -0.168 NA
ATOM      9  C   UNL     1       1.235   0.629   0.000  0.00  0.00    +0.120 A 
ENDBRANCH   1   4
BRANCH   1  10
ATOM     10  C   UNL     1       0.568   2.764   0.000  0.00  0.00    +0.123 C 
BRANCH  10  11
ATOM     11  N   UNL     1       1.282   3.177   0.000  0.00  0.00    -0.215 NA
BRANCH  11  12
ATOM     12  C   UNL     1       1.282   4.002   0.000  0.00  0.00    +0.089 C 
BRANCH  12  13
ATOM     13  C   UNL     1       1.997   4.414   0.000  0.00  0.00    +0.017 C 
BRANCH  13  14
ATOM     14  C   UNL     1       2.711   4.002   0.000  0.00  0.00    +0.001 C 
ATOM     15  C   UNL     1       2.711   3.177   0.000  0.00  0.00    +0.000 C 
ENDBRANCH  13  14
BRANCH  13  17
ATOM     16  C   UNL     1       2.711   5.652   0.000  0.00  0.00    +0.000 C 
ATOM     17  C   UNL     1       1.997   5.239   0.000  0.00  0.00    +0.001 C 
ENDBRANCH  13  17
ENDBRANCH  12  13
ENDBRANCH  11  12
ENDBRANCH  10  11
ENDBRANCH   1  10
TORSDOF 7
