REMARK  Name = 
REMARK  3 active torsions:
REMARK  status: ('A' for Active; 'I' for Inactive)
REMARK    1  A    between atoms: N_9  and  C_10
REMARK    2  A    between atoms: C_10  and  C_11
REMARK    3  A    between atoms: C_11  and  C_13
REMARK                            x       y       z     vdW  Elec       q    Type
REMARK                         _______ _______ _______ _____ _____    ______ ____
ROOT
ATOM      1 CL   UNL     1       0.000   0.000   0.000  0.00  0.00    +0.000 Cl
ENDROOT
TORSDOF 0
REMARK  Name = 
REMARK  3 active torsions:
REMARK  status: ('A' for Active; 'I' for Inactive)
REMARK    1  A    between atoms: N_9  and  C_10
REMARK    2  A    between atoms: C_10  and  C_11
REMARK    3  A    between atoms: C_11  and  C_13
REMARK                            x       y       z     vdW  Elec       q    Type
REMARK                         _______ _______ _______ _____ _____    ______ ____
ROOT
ATOM      1 CL   UNL     1       2.004   0.000   0.000  0.00  0.00    +0.000 Cl
ENDROOT
TORSDOF 0
REMARK  Name = 
REMARK  3 active torsions:
REMARK  status: ('A' for Active; 'I' for Inactive)
REMARK    1  A    between atoms: N_9  and  C_10
REMARK    2  A    between atoms: C_10  and  C_11
REMARK    3  A    between atoms: C_11  and  C_13
REMARK                            x       y       z     vdW  Elec       q    Type
REMARK                         _______ _______ _______ _____ _____    ______ ____
ROOT
ATOM      1  C   UNL     1       2.428  -5.055   0.000  0.00  0.00    +0.031 C 
ATOM      2  C   UNL     1       1.714  -4.642   0.000  0.00  0.00    -0.024 A 
ATOM      3  C   UNL     1       1.714  -3.817   0.000  0.00  0.00    -0.024 A 
ATOM      4  C   UNL     1       2.428  -3.405   0.000  0.00  0.00    +0.031 C 
ATOM      5  C   UNL     1       1.000  -3.405   0.000  0.00  0.00    +0.014 A 
ATOM      6  C   UNL     1       0.285  -3.817   0.000  0.00  0.00    +0.079 A 
ATOM      7  C   UNL     1       0.285  -4.642   0.000  0.00  0.00    +0.098 A 
ATOM      8  N   UNL     1      -0.500  -4.897   0.000  0.00  0.00    -0.224 NA
ATOM      9  C   UNL     1      -0.985  -4.230   0.000  0.00  0.00    +0.179 A 
ATOM     10  N   UNL     1      -0.500  -3.562   0.000  0.00  0.00    -0.306 N 
ATOM     11  C   UNL     1       1.000  -5.055   0.000  0.00  0.00    +0.016 A 
ENDROOT
BRANCH  10  12
ATOM     12  C   UNL     1      -0.755  -2.778   0.000  0.00  0.00    +0.142 C 
BRANCH  12  13
ATOM     13  C   UNL     1      -1.562  -2.606   0.000  0.00  0.00    +0.193 C 
ATOM     14  O   UNL     1      -2.114  -3.219   0.000  0.00  0.00    -0.219 OA
BRANCH  13  15
ATOM     15  C   UNL     1      -1.817  -1.821   0.000  0.00  0.00    +0.144 C 
ATOM     16  N   UNL     1      -2.623  -1.650   0.000  0.00  0.00    -0.129 NA
ENDBRANCH  13  15
ENDBRANCH  12  13
ENDBRANCH  10  12
TORSDOF 3
