REMARK  Name = 
REMARK  4 active torsions:
REMARK  status: ('A' for Active; 'I' for Inactive)
REMARK    1  A    between atoms: C_2  and  C_3
REMARK    2  A    between atoms: C_2  and  C_13
REMARK    3  A    between atoms: C_3  and  N_4
REMARK    4  A    between atoms: C_13  and  N_14
REMARK                            x       y       z     vdW  Elec       q    Type
REMARK                         _______ _______ _______ _____ _____    ______ ____
ROOT
ATOM      1  C   UNL     1       3.572  -3.712   0.000  0.00  0.00    +0.151 C 
ENDROOT
BRANCH   1   2
ATOM      2  N   UNL     1       2.858  -4.125   0.000  0.00  0.00    -0.184 NA
ATOM      3  C   UNL     1       2.143  -3.712   0.000  0.00  0.00    +0.345 C 
ATOM      4  N   UNL     1       1.429  -4.125   0.000  0.00  0.00    -0.136 NA
ATOM      5  C   UNL     1       0.715  -3.712   0.000  0.00  0.00    +0.187 A 
ATOM      6  S   UNL     1       0.628  -2.892   0.000  0.00  0.00    -0.049 S 
ATOM      7  C   UNL     1      -0.179  -2.720   0.000  0.00  0.00    +0.059 A 
ATOM      8  C   UNL     1      -0.591  -3.435   0.000  0.00  0.00    +0.108 A 
ATOM      9  N   UNL     1      -0.039  -4.048   0.000  0.00  0.00    -0.221 NA
ATOM     10  O   UNL     1       2.143  -2.888   0.000  0.00  0.00    -0.249 OA
ENDBRANCH   1   2
BRANCH   1  12
ATOM     11  O   UNL     1       4.287  -4.950   0.000  0.00  0.00    -0.220 OA
ATOM     12  C   UNL     1       4.287  -4.125   0.000  0.00  0.00    +0.189 C 
BRANCH  12  13
ATOM     13  C   UNL     1       5.001  -3.712   0.000  0.00  0.00    +0.107 C 
BRANCH  13  14
ATOM     14  N   UNL     1       5.716  -4.125   0.000  0.00  0.00    -0.271 NA
ATOM     15  C   UNL     1       5.716  -4.950   0.000  0.00  0.00    +0.072 C 
ATOM     16  C   UNL     1       6.430  -5.362   0.000  0.00  0.00    +0.017 C 
ATOM     17  C   UNL     1       7.145  -4.950   0.000  0.00  0.00    +0.003 C 
ATOM     18  C   UNL     1       7.145  -4.125   0.000  0.00  0.00    +0.017 C 
ATOM     19  C   UNL     1       6.430  -3.712   0.000  0.00  0.00    +0.072 C 
ENDBRANCH  13  14
ENDBRANCH  12  13
ENDBRANCH   1  12
TORSDOF 4
