REMARK  Name = 
REMARK  8 active torsions:
REMARK  status: ('A' for Active; 'I' for Inactive)
REMARK    1  A    between atoms: N_2  and  C_12
REMARK    2  A    between atoms: C_4  and  N_7
REMARK    3  A    between atoms: N_7  and  C_10
REMARK    4  A    between atoms: N_7  and  C_22
REMARK    5  A    between atoms: C_11  and  C_12
REMARK    6  A    between atoms: C_11  and  C_21
REMARK    7  A    between atoms: C_22  and  C_25
REMARK    8  A    between atoms: O_24  and  C_25
REMARK                            x       y       z     vdW  Elec       q    Type
REMARK                         _______ _______ _______ _____ _____    ______ ____
ROOT
ATOM      1  C   UNL     1       2.563   0.825   0.000  0.00  0.00    +0.149 A 
ATOM      2  N   UNL     1       1.780   1.084   0.000  0.00  0.00    -0.219 NA
ATOM      3  C   UNL     1       1.292   0.413   0.000  0.00  0.00    +0.180 A 
ATOM      4  N   UNL     1       1.780  -0.254   0.000  0.00  0.00    -0.294 N 
ATOM      5  C   UNL     1       3.276   1.238   0.000  0.00  0.00    +0.154 A 
ATOM      6  N   UNL     1       3.993   0.825   0.000  0.00  0.00    -0.207 NA
ATOM      7  C   UNL     1       3.993   0.000   0.000  0.00  0.00    +0.201 A 
ATOM      8  N   UNL     1       3.276  -0.413   0.000  0.00  0.00    -0.205 NA
ATOM      9  C   UNL     1       2.563   0.000   0.000  0.00  0.00    +0.167 A 
ENDROOT
BRANCH   4  10
ATOM     10  C   UNL     1       1.521  -1.038   0.000  0.00  0.00    +0.116 C 
BRANCH  10  11
ATOM     11  C   UNL     1       2.075  -1.650   0.000  0.00  0.00    +0.106 C 
ATOM     12  C   UNL     1       2.688  -1.100   0.000  0.00  0.00    +0.149 C 
ATOM     13  O   UNL     1       3.243  -1.713   0.000  0.00  0.00    -0.353 OA
ATOM     14  C   UNL     1       2.626  -2.263   0.000  0.00  0.00    +0.149 C 
BRANCH  11  15
ATOM     15  C   UNL     1       1.463  -2.205   0.000  0.00  0.00    +0.189 C 
ATOM     16  O   UNL     1       1.634  -3.009   0.000  0.00  0.00    -0.220 OA
ENDBRANCH  11  15
ENDBRANCH  10  11
ENDBRANCH   4  10
BRANCH   5  17
ATOM     17  N   UNL     1       3.276   2.063   0.000  0.00  0.00    -0.291 N 
BRANCH  17  18
ATOM     18  C   UNL     1       2.563   2.476   0.000  0.00  0.00    +0.074 C 
ATOM     19  C   UNL     1       1.809   2.142   0.000  0.00  0.00    +0.020 C 
ATOM     20  C   UNL     1       1.259   2.755   0.000  0.00  0.00    +0.002 C 
ATOM     21  C   UNL     1       1.671   3.472   0.000  0.00  0.00    +0.002 C 
ATOM     22  C   UNL     1       1.334   4.218   0.000  0.00  0.00    +0.000 C 
ATOM     23  C   UNL     1       2.476   3.297   0.000  0.00  0.00    +0.020 C 
ENDBRANCH  17  18
BRANCH  17  24
ATOM     24  C   UNL     1       3.993   2.476   0.000  0.00  0.00    +0.124 C 
BRANCH  24  25
ATOM     25  C   UNL     1       3.993   3.301   0.000  0.00  0.00    +0.164 C 
BRANCH  25  26
ATOM     26  O   UNL     1       4.705   3.713   0.000  0.00  0.00    -0.349 OA
ATOM     27  C   UNL     1       4.705   4.535   0.000  0.00  0.00    +0.174 C 
ENDBRANCH  25  26
ENDBRANCH  24  25
ENDBRANCH  17  24
ENDBRANCH   5  17
TORSDOF 8
