REMARK  Name = 
REMARK  6 active torsions:
REMARK  status: ('A' for Active; 'I' for Inactive)
REMARK    1  A    between atoms: C_2  and  C_4
REMARK    2  A    between atoms: N_8  and  C_9
REMARK    3  A    between atoms: C_9  and  C_10
REMARK    4  A    between atoms: N_12  and  C_13
REMARK    5  A    between atoms: C_13  and  C_14
REMARK    6  A    between atoms: C_13  and  C_17
REMARK                            x       y       z     vdW  Elec       q    Type
REMARK                         _______ _______ _______ _____ _____    ______ ____
ROOT
ATOM      1  C   UNL     1       2.507   1.127   0.000  0.00  0.00    +0.264 C 
ATOM      2  N   UNL     1       3.221   0.715   0.000  0.00  0.00    -0.206 NA
ATOM      3  O   UNL     1       2.507   1.952   0.000  0.00  0.00    -0.271 OA
ENDROOT
BRANCH   1   4
ATOM      4  C   UNL     1       1.793   0.715   0.000  0.00  0.00    +0.194 C 
BRANCH   4   6
ATOM      5  C   UNL     1       0.324   0.791   0.000  0.00  0.00    +0.120 A 
ATOM      6  N   UNL     1       1.078   1.127   0.000  0.00  0.00    -0.305 N 
ATOM      7  C   UNL     1       0.992   1.948   0.000  0.00  0.00    +0.098 A 
ATOM      8  C   UNL     1       0.185   2.119   0.000  0.00  0.00    +0.119 A 
ATOM      9  N   UNL     1      -0.228   1.405   0.000  0.00  0.00    -0.229 NA
BRANCH   5  11
ATOM     10  C   UNL     1      -0.632  -0.271   0.000  0.00  0.00    +0.008 C 
ATOM     11  C   UNL     1       0.153  -0.016   0.000  0.00  0.00    +0.057 C 
ATOM     12  C   UNL     1       0.766  -0.568   0.000  0.00  0.00    +0.008 C 
ENDBRANCH   5  11
ENDBRANCH   4   6
ENDBRANCH   1   4
BRANCH   2  13
ATOM     13  C   UNL     1       3.936   1.127   0.000  0.00  0.00    +0.095 C 
BRANCH  13  14
ATOM     14  C   UNL     1       3.936   1.952   0.000  0.00  0.00    +0.020 C 
ATOM     15  C   UNL     1       4.348   2.666   0.000  0.00  0.00    +0.002 C 
ATOM     16  C   UNL     1       3.523   2.666   0.000  0.00  0.00    +0.002 C 
ENDBRANCH  13  14
BRANCH  13  17
ATOM     17  C   UNL     1       4.651   0.715   0.000  0.00  0.00    +0.020 C 
ATOM     18  C   UNL     1       5.063   0.000   0.000  0.00  0.00    +0.002 C 
ATOM     19  C   UNL     1       5.476   0.715   0.000  0.00  0.00    +0.002 C 
ENDBRANCH  13  17
ENDBRANCH   2  13
TORSDOF 6
