REMARK  Name = 
REMARK  4 active torsions:
REMARK  status: ('A' for Active; 'I' for Inactive)
REMARK    1  A    between atoms: C_4  and  S_5
REMARK    2  A    between atoms: S_5  and  C_6
REMARK    3  A    between atoms: C_6  and  C_7
REMARK    4  A    between atoms: C_15  and  C_16
REMARK                            x       y       z     vdW  Elec       q    Type
REMARK                         _______ _______ _______ _____ _____    ______ ____
ROOT
ATOM      1  N   UNL     1       0.000  -1.650   0.000  0.00  0.00    -0.106 NA
ATOM      2  C   UNL     1       0.000  -2.475   0.000  0.00  0.00    +0.183 A 
ATOM      3  C   UNL     1      -0.715  -2.888   0.000  0.00  0.00    +0.122 A 
ATOM      4  C   UNL     1      -0.715  -3.712   0.000  0.00  0.00    +0.114 A 
ATOM      5  N   UNL     1       0.000  -4.125   0.000  0.00  0.00    -0.219 NA
ATOM      6  C   UNL     1       0.715  -3.712   0.000  0.00  0.00    +0.191 A 
ATOM      7  N   UNL     1       0.715  -2.888   0.000  0.00  0.00    -0.202 NA
ENDROOT
BRANCH   3   8
ATOM      8  C   UNL     1      -1.429  -2.475   0.000  0.00  0.00    +0.105 C 
ATOM      9  N   UNL     1      -2.143  -2.062   0.000  0.00  0.00    -0.191 NA
ENDBRANCH   3   8
BRANCH   6  10
ATOM     10  S   UNL     1       1.429  -4.125   0.000  0.00  0.00    -0.073 S 
BRANCH  10  11
ATOM     11  C   UNL     1       1.429  -4.950   0.000  0.00  0.00    +0.095 C 
BRANCH  11  12
ATOM     12  C   UNL     1       2.143  -5.362   0.000  0.00  0.00    +0.126 C 
ATOM     13  O   UNL     1       2.143  -6.188   0.000  0.00  0.00    -0.355 OA
ATOM     14  C   UNL     1       2.858  -6.600   0.000  0.00  0.00    +0.142 C 
ATOM     15  C   UNL     1       3.572  -6.188   0.000  0.00  0.00    +0.032 C 
ATOM     16  C   UNL     1       3.572  -5.362   0.000  0.00  0.00    +0.005 C 
ATOM     17  C   UNL     1       2.858  -4.950   0.000  0.00  0.00    +0.031 C 
ENDBRANCH  11  12
ENDBRANCH  10  11
ENDBRANCH   6  10
TORSDOF 4
