REMARK  Name = 
REMARK  2 active torsions:
REMARK  status: ('A' for Active; 'I' for Inactive)
REMARK    1  A    between atoms: O_2  and  C_3
REMARK    2  A    between atoms: C_7  and  N_8
REMARK                            x       y       z     vdW  Elec       q    Type
REMARK                         _______ _______ _______ _____ _____    ______ ____
ROOT
ATOM      1  N   UNL     1       1.299  -2.767   0.000  0.00  0.00    -0.186 NA
ATOM      2  C   UNL     1       1.128  -1.960   0.000  0.00  0.00    +0.345 C 
ATOM      3  N   UNL     1       0.343  -1.705   0.000  0.00  0.00    -0.142 NA
ATOM      4  C   UNL     1       0.171  -0.898   0.000  0.00  0.00    +0.155 A 
ATOM      5  N   UNL     1       0.784  -0.346   0.000  0.00  0.00    -0.233 NA
ATOM      6  C   UNL     1       0.613   0.461   0.000  0.00  0.00    +0.061 A 
ATOM      7  C   UNL     1       1.226   1.013   0.000  0.00  0.00    +0.052 C 
ATOM      8  C   UNL     1      -0.172   0.716   0.000  0.00  0.00    +0.011 A 
ATOM      9  C   UNL     1      -0.785   0.164   0.000  0.00  0.00    -0.018 A 
ATOM     10  C   UNL     1      -1.569   0.419   0.000  0.00  0.00    +0.031 C 
ATOM     11  C   UNL     1      -0.613  -0.643   0.000  0.00  0.00    +0.032 A 
ATOM     12  O   UNL     1       1.741  -1.408   0.000  0.00  0.00    -0.249 OA
ENDROOT
BRANCH   1  14
ATOM     13  C   UNL     1       2.751  -2.537   0.000  0.00  0.00    +0.135 C 
ATOM     14  C   UNL     1       2.084  -3.022   0.000  0.00  0.00    +0.124 C 
ATOM     15  C   UNL     1       2.339  -3.806   0.000  0.00  0.00    +0.024 C 
ATOM     16  C   UNL     1       3.164  -3.806   0.000  0.00  0.00    +0.004 C 
ATOM     17  C   UNL     1       3.419  -3.022   0.000  0.00  0.00    +0.031 C 
BRANCH  13  19
ATOM     18  C   UNL     1       3.466  -1.299   0.000  0.00  0.00    +0.174 C 
ATOM     19  O   UNL     1       2.751  -1.712   0.000  0.00  0.00    -0.352 OA
ENDBRANCH  13  19
ENDBRANCH   1  14
TORSDOF 2
