REMARK  Name = 
REMARK  5 active torsions:
REMARK  status: ('A' for Active; 'I' for Inactive)
REMARK    1  A    between atoms: C_2  and  C_4
REMARK    2  A    between atoms: C_4  and  N_6
REMARK    3  A    between atoms: N_10  and  C_11
REMARK    4  A    between atoms: N_14  and  C_15
REMARK    5  A    between atoms: C_15  and  C_16
REMARK                            x       y       z     vdW  Elec       q    Type
REMARK                         _______ _______ _______ _____ _____    ______ ____
ROOT
ATOM      1  N   UNL     1       1.874  -3.835   0.000  0.00  0.00    -0.262 N 
ATOM      2  C   UNL     1       2.589  -3.422   0.000  0.00  0.00    +0.328 C 
ATOM      3  N   UNL     1       3.303  -3.835   0.000  0.00  0.00    -0.159 NA
ATOM      4  O   UNL     1       2.589  -2.598   0.000  0.00  0.00    -0.250 OA
ATOM      5  C   UNL     1       1.874  -4.660   0.000  0.00  0.00    +0.116 C 
ENDROOT
BRANCH   3   6
ATOM      6  C   UNL     1       4.018  -3.422   0.000  0.00  0.00    +0.114 A 
ATOM      7  C   UNL     1       4.771  -3.758   0.000  0.00  0.00    +0.114 A 
ATOM      8  N   UNL     1       5.323  -3.145   0.000  0.00  0.00    -0.239 N 
ATOM      9  N   UNL     1       4.911  -2.430   0.000  0.00  0.00    -0.166 NA
ATOM     10  C   UNL     1       4.104  -2.602   0.000  0.00  0.00    +0.138 A 
BRANCH   8  11
ATOM     11  C   UNL     1       6.144  -3.231   0.000  0.00  0.00    +0.215 C 
BRANCH  11  12
ATOM     12  C   UNL     1       6.479  -3.985   0.000  0.00  0.00    +0.286 C 
ATOM     13  N   UNL     1       5.995  -4.652   0.000  0.00  0.00    -0.086 NA
ATOM     14  O   UNL     1       7.300  -4.071   0.000  0.00  0.00    -0.269 OA
ENDBRANCH  11  12
ENDBRANCH   8  11
ENDBRANCH   3   6
BRANCH   1  15
ATOM     15  C   UNL     1       1.160  -3.422   0.000  0.00  0.00    +0.077 C 
ATOM     16  C   UNL     1       1.160  -2.598   0.000  0.00  0.00    +0.022 C 
BRANCH  15  18
ATOM     17  C   UNL     1      -0.269  -3.422   0.000  0.00  0.00    +0.002 C 
ATOM     18  C   UNL     1       0.445  -3.835   0.000  0.00  0.00    +0.018 C 
ATOM     19  C   UNL     1       0.445  -4.660   0.000  0.00  0.00    +0.002 C 
ENDBRANCH  15  18
ENDBRANCH   1  15
TORSDOF 5
