REMARK  Name = 
REMARK  4 active torsions:
REMARK  status: ('A' for Active; 'I' for Inactive)
REMARK    1  A    between atoms: N_3  and  C_4
REMARK    2  A    between atoms: C_4  and  C_5
REMARK    3  A    between atoms: C_5  and  N_6
REMARK    4  A    between atoms: C_15  and  C_16
REMARK                            x       y       z     vdW  Elec       q    Type
REMARK                         _______ _______ _______ _____ _____    ______ ____
ROOT
ATOM      1  O   UNL     1      -0.227  -0.415   0.000  0.00  0.00    -0.251 OA
ATOM      2  C   UNL     1      -0.227  -1.240   0.000  0.00  0.00    +0.323 C 
ATOM      3  N   UNL     1      -0.941  -1.653   0.000  0.00  0.00    -0.264 N 
ATOM      4  C   UNL     1      -1.695  -1.317   0.000  0.00  0.00    +0.077 C 
ATOM      5  C   UNL     1      -2.247  -1.930   0.000  0.00  0.00    +0.022 C 
ATOM      6  C   UNL     1      -1.835  -2.645   0.000  0.00  0.00    +0.023 C 
ATOM      7  C   UNL     1      -1.028  -2.473   0.000  0.00  0.00    +0.095 C 
ATOM      8  N   UNL     1       0.487  -1.653   0.000  0.00  0.00    -0.186 NA
ENDROOT
BRANCH   4   9
ATOM      9  C   UNL     1      -1.867  -0.510   0.000  0.00  0.00    +0.018 C 
ATOM     10  C   UNL     1      -1.417   0.182   0.000  0.00  0.00    +0.002 C 
ATOM     11  C   UNL     1      -2.109   0.631   0.000  0.00  0.00    +0.000 C 
ATOM     12  C   UNL     1      -2.558  -0.061   0.000  0.00  0.00    +0.002 C 
ENDBRANCH   4   9
BRANCH   8  13
ATOM     13  C   UNL     1       1.202  -1.240   0.000  0.00  0.00    +0.141 C 
BRANCH  13  14
ATOM     14  C   UNL     1       1.917  -1.653   0.000  0.00  0.00    +0.131 C 
BRANCH  14  15
ATOM     15  N   UNL     1       2.631  -1.240   0.000  0.00  0.00    -0.306 N 
ATOM     16  C   UNL     1       3.385  -1.576   0.000  0.00  0.00    +0.179 A 
ATOM     17  N   UNL     1       3.937  -0.963   0.000  0.00  0.00    -0.222 NA
ATOM     18  C   UNL     1       3.524  -0.248   0.000  0.00  0.00    +0.119 A 
ATOM     19  C   UNL     1       2.717  -0.420   0.000  0.00  0.00    +0.098 A 
ENDBRANCH  14  15
ENDBRANCH  13  14
ENDBRANCH   8  13
TORSDOF 4
