REMARK  Name = 
REMARK  5 active torsions:
REMARK  status: ('A' for Active; 'I' for Inactive)
REMARK    1  A    between atoms: N_1  and  C_8
REMARK    2  A    between atoms: N_2  and  C_7
REMARK    3  A    between atoms: C_8  and  C_9
REMARK    4  A    between atoms: N_10  and  C_15
REMARK    5  A    between atoms: C_11  and  C_15
REMARK                            x       y       z     vdW  Elec       q    Type
REMARK                         _______ _______ _______ _____ _____    ______ ____
ROOT
ATOM      1  C   UNL     1      -0.717  -3.712   0.000  0.00  0.00    +0.200 C 
ENDROOT
BRANCH   1   2
ATOM      2  N   UNL     1      -1.429  -4.125   0.000  0.00  0.00    -0.238 N 
ATOM      3  C   UNL     1      -1.429  -4.950   0.000  0.00  0.00    +0.294 A 
ATOM      4  O   UNL     1      -0.717  -5.362   0.000  0.00  0.00    -0.264 OA
ATOM      5  C   UNL     1      -2.146  -5.362   0.000  0.00  0.00    +0.213 A 
ATOM      6  C   UNL     1      -2.858  -4.950   0.000  0.00  0.00    +0.116 A 
ATOM      7  N   UNL     1      -2.858  -4.125   0.000  0.00  0.00    -0.255 N 
ATOM      8  F   UNL     1      -2.146  -6.188   0.000  0.00  0.00    -0.198 F 
ATOM      9  C   UNL     1      -2.146  -3.712   0.000  0.00  0.00    +0.336 A 
ATOM     10  O   UNL     1      -2.146  -2.888   0.000  0.00  0.00    -0.246 OA
BRANCH   7  11
ATOM     11  C   UNL     1      -3.575  -3.712   0.000  0.00  0.00    +0.208 C 
ATOM     12  C   UNL     1      -4.329  -4.046   0.000  0.00  0.00    +0.057 C 
ATOM     13  C   UNL     1      -4.879  -3.433   0.000  0.00  0.00    +0.037 C 
ATOM     14  C   UNL     1      -4.467  -2.717   0.000  0.00  0.00    +0.144 C 
ATOM     15  O   UNL     1      -3.663  -2.892   0.000  0.00  0.00    -0.335 OA
ENDBRANCH   7  11
ENDBRANCH   1   2
BRANCH   1  16
ATOM     16  C   UNL     1      -0.717  -2.888   0.000  0.00  0.00    +0.265 C 
ATOM     17  O   UNL     1      -1.429  -2.475   0.000  0.00  0.00    -0.271 OA
ATOM     18  N   UNL     1       0.000  -2.475   0.000  0.00  0.00    -0.201 NA
BRANCH  18  19
ATOM     19  C   UNL     1       0.000  -1.650   0.000  0.00  0.00    +0.118 C 
ATOM     20  C   UNL     1      -0.717  -1.238   0.000  0.00  0.00    +0.028 C 
BRANCH  19  21
ATOM     21  C   UNL     1       0.713  -1.238   0.000  0.00  0.00    -0.003 A 
ATOM     22  C   UNL     1       0.713  -0.412   0.000  0.00  0.00    -0.003 A 
ATOM     23  C   UNL     1       1.425   0.000   0.000  0.00  0.00    -0.000 A 
ATOM     24  C   UNL     1       2.142  -0.412   0.000  0.00  0.00    -0.000 A 
ATOM     25  C   UNL     1       2.854   0.000   0.000  0.00  0.00    -0.000 A 
ATOM     26  C   UNL     1       3.571  -0.412   0.000  0.00  0.00    -0.000 A 
ATOM     27  C   UNL     1       3.571  -1.238   0.000  0.00  0.00    -0.000 A 
ATOM     28  C   UNL     1       2.854  -1.650   0.000  0.00  0.00    -0.000 A 
ATOM     29  C   UNL     1       2.142  -1.238   0.000  0.00  0.00    -0.000 A 
ATOM     30  C   UNL     1       1.425  -1.650   0.000  0.00  0.00    -0.003 A 
ENDBRANCH  19  21
ENDBRANCH  18  19
ENDBRANCH   1  16
TORSDOF 5
