REMARK  Name = 
REMARK  3 active torsions:
REMARK  status: ('A' for Active; 'I' for Inactive)
REMARK    1  A    between atoms: C_2  and  N_3
REMARK    2  A    between atoms: C_4  and  C_6
REMARK    3  A    between atoms: C_6  and  C_7
REMARK                            x       y       z     vdW  Elec       q    Type
REMARK                         _______ _______ _______ _____ _____    ______ ____
ROOT
ATOM      1  C   UNL     1       5.216  -3.497   0.000  0.00  0.00    +0.077 A 
ATOM      2  N   UNL     1       5.970  -3.833   0.000  0.00  0.00    -0.228 NA
ATOM      3  C   UNL     1       6.522  -3.220   0.000  0.00  0.00    +0.170 A 
ATOM      4  N   UNL     1       7.342  -3.306   0.000  0.00  0.00    -0.220 N 
ATOM      5  C   UNL     1       7.755  -4.021   0.000  0.00  0.00    +0.329 C 
ATOM      6  O   UNL     1       7.419  -4.774   0.000  0.00  0.00    -0.250 OA
ATOM      7  N   UNL     1       8.562  -3.849   0.000  0.00  0.00    -0.186 NA
ATOM      8  C   UNL     1       8.648  -3.029   0.000  0.00  0.00    +0.139 C 
ATOM      9  C   UNL     1       7.894  -2.693   0.000  0.00  0.00    +0.125 C 
ATOM     10  S   UNL     1       6.109  -2.505   0.000  0.00  0.00    -0.051 S 
ATOM     11  C   UNL     1       5.303  -2.677   0.000  0.00  0.00    +0.053 A 
ENDROOT
BRANCH   1  12
ATOM     12  C   UNL     1       4.502  -3.910   0.000  0.00  0.00    +0.133 C 
BRANCH  12  14
ATOM     13  N   UNL     1       3.073  -3.910   0.000  0.00  0.00    -0.205 NA
ATOM     14  C   UNL     1       3.787  -3.497   0.000  0.00  0.00    +0.247 C 
ATOM     15  O   UNL     1       3.787  -2.672   0.000  0.00  0.00    -0.273 OA
BRANCH  13  17
ATOM     16  C   UNL     1       1.644  -3.910   0.000  0.00  0.00    +0.025 C 
ATOM     17  C   UNL     1       2.358  -3.497   0.000  0.00  0.00    +0.115 C 
ENDBRANCH  13  17
ENDBRANCH  12  14
ENDBRANCH   1  12
TORSDOF 3
