REMARK  Name = 
REMARK  5 active torsions:
REMARK  status: ('A' for Active; 'I' for Inactive)
REMARK    1  A    between atoms: C_5  and  N_9
REMARK    2  A    between atoms: N_9  and  C_10
REMARK    3  A    between atoms: C_10  and  C_11
REMARK    4  A    between atoms: C_11  and  N_12
REMARK    5  A    between atoms: C_16  and  C_17
REMARK                            x       y       z     vdW  Elec       q    Type
REMARK                         _______ _______ _______ _____ _____    ______ ____
ROOT
ATOM      1  C   UNL     1      -1.899   7.487   0.000  0.00  0.00    +0.113 C 
ENDROOT
BRANCH   1   2
ATOM      2  N   UNL     1      -2.683   7.232   0.000  0.00  0.00    -0.217 NA
BRANCH   2   8
ATOM      3  C   UNL     1      -5.136   9.440   0.000  0.00  0.00    +0.000 C 
ATOM      4  C   UNL     1      -4.523   8.888   0.000  0.00  0.00    +0.000 C 
ATOM      5  C   UNL     1      -4.694   8.081   0.000  0.00  0.00    +0.001 C 
ATOM      6  C   UNL     1      -5.479   7.826   0.000  0.00  0.00    +0.000 C 
ATOM      7  C   UNL     1      -4.081   7.529   0.000  0.00  0.00    +0.017 C 
ATOM      8  C   UNL     1      -3.296   7.784   0.000  0.00  0.00    +0.073 C 
ATOM      9  C   UNL     1      -3.125   8.591   0.000  0.00  0.00    +0.017 C 
ATOM     10  C   UNL     1      -3.738   9.143   0.000  0.00  0.00    +0.001 C 
ENDBRANCH   2   8
ENDBRANCH   1   2
BRANCH   1  11
ATOM     11  C   UNL     1      -1.286   6.935   0.000  0.00  0.00    +0.128 C 
BRANCH  11  12
ATOM     12  N   UNL     1      -0.501   7.190   0.000  0.00  0.00    -0.295 N 
ATOM     13  C   UNL     1       0.166   6.705   0.000  0.00  0.00    +0.143 A 
ATOM     14  N   UNL     1       0.834   7.190   0.000  0.00  0.00    -0.133 NA
ATOM     15  N   UNL     1       0.579   7.975   0.000  0.00  0.00    -0.126 NA
ATOM     16  C   UNL     1      -0.246   7.975   0.000  0.00  0.00    +0.202 A 
BRANCH  13  17
ATOM     17  C   UNL     1       0.166   5.880   0.000  0.00  0.00    +0.059 C 
ATOM     18  C   UNL     1      -0.246   5.166   0.000  0.00  0.00    +0.008 C 
ATOM     19  C   UNL     1       0.579   5.166   0.000  0.00  0.00    +0.008 C 
ENDBRANCH  13  17
ENDBRANCH  11  12
ENDBRANCH   1  11
TORSDOF 5
