REMARK  Name = 
REMARK  3 active torsions:
REMARK  status: ('A' for Active; 'I' for Inactive)
REMARK    1  A    between atoms: C_2  and  C_5
REMARK    2  A    between atoms: C_9  and  N_10
REMARK    3  A    between atoms: N_10  and  C_11
REMARK                            x       y       z     vdW  Elec       q    Type
REMARK                         _______ _______ _______ _____ _____    ______ ____
ROOT
ATOM      1  C   UNL     1      -1.265   3.017   0.000  0.00  0.00    +0.140 A 
ATOM      2  N   UNL     1      -1.265   2.192   0.000  0.00  0.00    -0.215 NA
ATOM      3  C   UNL     1      -0.551   1.779   0.000  0.00  0.00    +0.150 A 
ATOM      4  C   UNL     1       0.164   2.192   0.000  0.00  0.00    +0.056 A 
ATOM      5  C   UNL     1       0.164   3.017   0.000  0.00  0.00    +0.103 A 
ATOM      6  N   UNL     1      -0.551   3.429   0.000  0.00  0.00    -0.229 NA
ENDROOT
BRANCH   1   8
ATOM      7  C   UNL     1      -2.694   3.842   0.000  0.00  0.00    +0.008 C 
ATOM      8  C   UNL     1      -1.980   3.429   0.000  0.00  0.00    +0.052 C 
ATOM      9  C   UNL     1      -1.567   4.144   0.000  0.00  0.00    +0.008 C 
ATOM     10  C   UNL     1      -2.392   2.715   0.000  0.00  0.00    +0.008 C 
ENDBRANCH   1   8
BRANCH   3  11
ATOM     11  N   UNL     1      -0.551   0.954   0.000  0.00  0.00    -0.219 NA
BRANCH  11  12
ATOM     12  C   UNL     1       0.164   0.542   0.000  0.00  0.00    +0.123 C 
ATOM     13  C   UNL     1       0.878   0.954   0.000  0.00  0.00    +0.135 C 
ATOM     14  O   UNL     1       0.672   0.129   0.000  0.00  0.00    -0.357 OA
ATOM     15  C   UNL     1       0.878  -0.696   0.000  0.00  0.00    +0.117 C 
ATOM     16  C   UNL     1       1.593  -0.283   0.000  0.00  0.00    +0.032 C 
ATOM     17  C   UNL     1       1.593   0.542   0.000  0.00  0.00    +0.034 C 
ATOM     18  C   UNL     1       0.164  -0.283   0.000  0.00  0.00    +0.054 C 
ENDBRANCH  11  12
ENDBRANCH   3  11
TORSDOF 3
