REMARK  Name = 
REMARK  5 active torsions:
REMARK  status: ('A' for Active; 'I' for Inactive)
REMARK    1  A    between atoms: N_7  and  C_8
REMARK    2  A    between atoms: C_8  and  C_9
REMARK    3  A    between atoms: N_11  and  C_12
REMARK    4  A    between atoms: C_12  and  C_13
REMARK    5  A    between atoms: C_13  and  N_14
REMARK                            x       y       z     vdW  Elec       q    Type
REMARK                         _______ _______ _______ _____ _____    ______ ____
ROOT
ATOM      1  C   UNL     1       2.018  -4.462   0.000  0.00  0.00    +0.265 C 
ATOM      2  N   UNL     1       2.733  -4.050   0.000  0.00  0.00    -0.202 NA
ATOM      3  O   UNL     1       2.018  -5.287   0.000  0.00  0.00    -0.271 OA
ENDROOT
BRANCH   1   4
ATOM      4  C   UNL     1       1.304  -4.050   0.000  0.00  0.00    +0.197 C 
BRANCH   4   9
ATOM      5  C   UNL     1      -0.125  -6.525   0.000  0.00  0.00    +0.138 C 
ATOM      6  N   UNL     1      -0.125  -5.700   0.000  0.00  0.00    -0.247 N 
ATOM      7  C   UNL     1       0.589  -5.287   0.000  0.00  0.00    +0.334 A 
ATOM      8  O   UNL     1       1.304  -5.700   0.000  0.00  0.00    -0.246 OA
ATOM      9  N   UNL     1       0.589  -4.462   0.000  0.00  0.00    -0.271 N 
ATOM     10  C   UNL     1      -0.125  -4.050   0.000  0.00  0.00    +0.085 A 
ATOM     11  C   UNL     1      -0.840  -4.462   0.000  0.00  0.00    +0.080 A 
ATOM     12  C   UNL     1      -0.840  -5.287   0.000  0.00  0.00    +0.266 A 
ATOM     13  O   UNL     1      -1.554  -5.700   0.000  0.00  0.00    -0.267 OA
ENDBRANCH   4   9
ENDBRANCH   1   4
BRANCH   2  14
ATOM     14  C   UNL     1       3.447  -4.462   0.000  0.00  0.00    +0.137 C 
BRANCH  14  15
ATOM     15  C   UNL     1       4.162  -4.050   0.000  0.00  0.00    +0.117 C 
BRANCH  15  16
ATOM     16  N   UNL     1       4.876  -4.462   0.000  0.00  0.00    -0.278 N 
ATOM     17  C   UNL     1       4.814  -5.285   0.000  0.00  0.00    +0.226 C 
ATOM     18  O   UNL     1       4.046  -5.586   0.000  0.00  0.00    -0.275 OA
ATOM     19  C   UNL     1       5.419  -5.846   0.000  0.00  0.00    +0.085 C 
ATOM     20  C   UNL     1       6.235  -5.723   0.000  0.00  0.00    +0.010 C 
ATOM     21  C   UNL     1       6.648  -5.008   0.000  0.00  0.00    +0.002 C 
ATOM     22  C   UNL     1       6.346  -4.240   0.000  0.00  0.00    +0.022 C 
ATOM     23  C   UNL     1       5.558  -3.997   0.000  0.00  0.00    +0.093 C 
ENDBRANCH  15  16
ENDBRANCH  14  15
ENDBRANCH   2  14
TORSDOF 5
