REMARK  Name = 
REMARK  8 active torsions:
REMARK  status: ('A' for Active; 'I' for Inactive)
REMARK    1  A    between atoms: N_2  and  C_13
REMARK    2  A    between atoms: C_4  and  N_8
REMARK    3  A    between atoms: S_6  and  C_9
REMARK    4  A    between atoms: S_6  and  C_21
REMARK    5  A    between atoms: N_8  and  C_12
REMARK    6  A    between atoms: N_8  and  C_23
REMARK    7  A    between atoms: C_9  and  C_12
REMARK    8  A    between atoms: C_13  and  C_14
REMARK                            x       y       z     vdW  Elec       q    Type
REMARK                         _______ _______ _______ _____ _____    ______ ____
ROOT
ATOM      1  C   UNL     1       2.562   0.825   0.000  0.00  0.00    +0.149 A 
ATOM      2  N   UNL     1       1.779   1.083   0.000  0.00  0.00    -0.219 NA
ATOM      3  C   UNL     1       1.292   0.412   0.000  0.00  0.00    +0.180 A 
ATOM      4  N   UNL     1       1.779  -0.254   0.000  0.00  0.00    -0.292 N 
ATOM      5  C   UNL     1       3.275   1.238   0.000  0.00  0.00    +0.154 A 
ATOM      6  N   UNL     1       3.992   0.825   0.000  0.00  0.00    -0.207 NA
ATOM      7  C   UNL     1       3.992   0.000   0.000  0.00  0.00    +0.201 A 
ATOM      8  N   UNL     1       3.275  -0.412   0.000  0.00  0.00    -0.205 NA
ATOM      9  C   UNL     1       2.562   0.000   0.000  0.00  0.00    +0.167 A 
ENDROOT
BRANCH   5  10
ATOM     10  N   UNL     1       3.275   2.062   0.000  0.00  0.00    -0.292 N 
BRANCH  10  11
ATOM     11  C   UNL     1       3.992   2.475   0.000  0.00  0.00    +0.092 C 
ATOM     12  C   UNL     1       4.704   2.062   0.000  0.00  0.00    +0.023 C 
ENDBRANCH  10  11
BRANCH  10  13
ATOM     13  C   UNL     1       2.562   2.475   0.000  0.00  0.00    +0.098 C 
ATOM     14  C   UNL     1       2.562   3.300   0.000  0.00  0.00    +0.023 C 
BRANCH  13  15
ATOM     15  C   UNL     1       1.850   2.062   0.000  0.00  0.00    +0.170 C 
BRANCH  15  16
ATOM     16  S   UNL     1       1.133   2.475   0.000  0.00  0.00    -0.008 S 
ATOM     17  O   UNL     1       0.721   1.762   0.000  0.00  0.00    -0.173 OA
ATOM     18  O   UNL     1       1.546   3.192   0.000  0.00  0.00    -0.173 OA
BRANCH  16  19
ATOM     19  C   UNL     1       0.421   2.892   0.000  0.00  0.00    +0.151 C 
ATOM     20  C   UNL     1      -0.296   2.475   0.000  0.00  0.00    +0.027 C 
ENDBRANCH  16  19
ENDBRANCH  15  16
ENDBRANCH  13  15
ENDBRANCH  10  13
ENDBRANCH   5  10
BRANCH   4  21
ATOM     21  C   UNL     1       1.521  -1.038   0.000  0.00  0.00    +0.142 C 
BRANCH  21  22
ATOM     22  C   UNL     1       0.717  -1.208   0.000  0.00  0.00    +0.177 C 
ATOM     23  C   UNL     1      -0.108  -1.208   0.000  0.00  0.00    +0.174 C 
ATOM     24  O   UNL     1      -0.362  -1.992   0.000  0.00  0.00    -0.351 OA
ATOM     25  C   UNL     1       0.304  -2.479   0.000  0.00  0.00    +0.145 C 
ATOM     26  O   UNL     1       0.629  -0.388   0.000  0.00  0.00    -0.221 OA
ATOM     27  C   UNL     1       0.971  -1.992   0.000  0.00  0.00    +0.067 C 
ENDBRANCH  21  22
ENDBRANCH   4  21
TORSDOF 8
