REMARK  Name = 
REMARK  3 active torsions:
REMARK  status: ('A' for Active; 'I' for Inactive)
REMARK    1  A    between atoms: N_8  and  C_9
REMARK    2  A    between atoms: C_9  and  C_10
REMARK    3  A    between atoms: C_10  and  N_11
REMARK                            x       y       z     vdW  Elec       q    Type
REMARK                         _______ _______ _______ _____ _____    ______ ____
ROOT
ATOM      1  C   UNL     1      -0.697  -4.316   0.000  0.00  0.00    +0.075 C 
ATOM      2  C   UNL     1       0.123  -4.402   0.000  0.00  0.00    +0.156 A 
ATOM      3  O   UNL     1       0.536  -5.117   0.000  0.00  0.00    -0.356 OA
ATOM      4  N   UNL     1       1.343  -4.946   0.000  0.00  0.00    -0.060 NA
ATOM      5  C   UNL     1       1.429  -4.125   0.000  0.00  0.00    +0.197 A 
ATOM      6  N   UNL     1       2.143  -3.712   0.000  0.00  0.00    -0.139 NA
ATOM      7  C   UNL     1       2.858  -4.125   0.000  0.00  0.00    +0.345 C 
ATOM      8  N   UNL     1       3.572  -3.712   0.000  0.00  0.00    -0.185 NA
ATOM      9  O   UNL     1       2.858  -4.950   0.000  0.00  0.00    -0.249 OA
ATOM     10  C   UNL     1       0.675  -3.789   0.000  0.00  0.00    +0.075 A 
ENDROOT
BRANCH   8  11
ATOM     11  C   UNL     1       4.287  -4.125   0.000  0.00  0.00    +0.134 C 
BRANCH  11  12
ATOM     12  C   UNL     1       5.001  -3.712   0.000  0.00  0.00    +0.096 C 
BRANCH  12  13
ATOM     13  N   UNL     1       5.716  -4.125   0.000  0.00  0.00    -0.267 NA
ATOM     14  C   UNL     1       5.716  -4.950   0.000  0.00  0.00    +0.105 C 
ATOM     15  C   UNL     1       6.430  -5.362   0.000  0.00  0.00    +0.159 C 
ATOM     16  O   UNL     1       7.145  -4.950   0.000  0.00  0.00    -0.351 OA
ATOM     17  C   UNL     1       7.145  -4.125   0.000  0.00  0.00    +0.159 C 
ATOM     18  C   UNL     1       6.430  -3.712   0.000  0.00  0.00    +0.105 C 
ENDBRANCH  12  13
ENDBRANCH  11  12
ENDBRANCH   8  11
TORSDOF 3
