REMARK  Name = 
REMARK  3 active torsions:
REMARK  status: ('A' for Active; 'I' for Inactive)
REMARK    1  A    between atoms: C_6  and  N_7
REMARK    2  A    between atoms: C_8  and  C_10
REMARK    3  A    between atoms: C_10  and  C_13
REMARK                            x       y       z     vdW  Elec       q    Type
REMARK                         _______ _______ _______ _____ _____    ______ ____
ROOT
ATOM      1  N   UNL     1      -0.023  -3.530   0.000  0.00  0.00    -0.200 NA
ATOM      2  C   UNL     1      -0.636  -4.082   0.000  0.00  0.00    +0.308 C 
ATOM      3  O   UNL     1      -0.465  -4.889   0.000  0.00  0.00    -0.267 OA
ENDROOT
BRANCH   1   6
ATOM      4  O   UNL     1       1.429  -2.475   0.000  0.00  0.00    -0.221 OA
ATOM      5  C   UNL     1       1.429  -3.300   0.000  0.00  0.00    +0.172 C 
ATOM      6  C   UNL     1       0.761  -3.785   0.000  0.00  0.00    +0.126 C 
ATOM      7  C   UNL     1       1.016  -4.569   0.000  0.00  0.00    +0.024 C 
ATOM      8  C   UNL     1       1.841  -4.569   0.000  0.00  0.00    +0.005 C 
ATOM      9  C   UNL     1       2.096  -3.785   0.000  0.00  0.00    +0.035 C 
ENDBRANCH   1   6
BRANCH   2  10
ATOM     10  C   UNL     1      -1.421  -3.827   0.000  0.00  0.00    +0.366 C 
ATOM     11  F   UNL     1      -1.676  -4.612   0.000  0.00  0.00    -0.188 F 
ATOM     12  F   UNL     1      -1.166  -3.042   0.000  0.00  0.00    -0.188 F 
BRANCH  10  13
ATOM     13  C   UNL     1      -2.205  -3.572   0.000  0.00  0.00    +0.128 A 
ATOM     14  N   UNL     1      -2.377  -2.765   0.000  0.00  0.00    -0.242 NA
ATOM     15  C   UNL     1      -3.162  -2.510   0.000  0.00  0.00    +0.099 A 
ATOM     16  C   UNL     1      -3.775  -3.062   0.000  0.00  0.00    +0.021 A 
ATOM     17  C   UNL     1      -3.603  -3.869   0.000  0.00  0.00    +0.003 A 
ATOM     18  C   UNL     1      -2.819  -4.124   0.000  0.00  0.00    +0.021 A 
ENDBRANCH  10  13
ENDBRANCH   2  10
TORSDOF 3
