REMARK  Name = 
REMARK  4 active torsions:
REMARK  status: ('A' for Active; 'I' for Inactive)
REMARK    1  A    between atoms: C_8  and  C_9
REMARK    2  A    between atoms: C_9  and  C_10
REMARK    3  A    between atoms: C_10  and  N_11
REMARK    4  A    between atoms: N_11  and  C_12
REMARK                            x       y       z     vdW  Elec       q    Type
REMARK                         _______ _______ _______ _____ _____    ______ ____
ROOT
ATOM      1  N   UNL     1       0.282   0.432   0.000  0.00  0.00    -0.219 NA
ENDROOT
BRANCH   1   2
ATOM      2  C   UNL     1       0.866  -0.151   0.000  0.00  0.00    +0.077 C 
ATOM      3  C   UNL     1       0.866  -0.976   0.000  0.00  0.00    +0.040 C 
ATOM      4  C   UNL     1       0.063  -1.169   0.000  0.00  0.00    +0.004 C 
ATOM      5  C   UNL     1       0.673  -1.778   0.000  0.00  0.00    +0.004 C 
ATOM      6  C   UNL     1       1.690  -0.976   0.000  0.00  0.00    +0.118 C 
ATOM      7  O   UNL     1       2.405  -1.389   0.000  0.00  0.00    -0.356 OA
ATOM      8  C   UNL     1       3.119  -0.976   0.000  0.00  0.00    +0.142 C 
ATOM      9  C   UNL     1       3.119  -0.151   0.000  0.00  0.00    +0.032 C 
ATOM     10  C   UNL     1       2.405   0.262   0.000  0.00  0.00    +0.006 C 
ATOM     11  C   UNL     1       1.690  -0.151   0.000  0.00  0.00    +0.043 C 
ENDBRANCH   1   2
BRANCH   1  12
ATOM     12  C   UNL     1      -0.515   0.219   0.000  0.00  0.00    +0.093 C 
BRANCH  12  13
ATOM     13  C   UNL     1      -1.098   0.802   0.000  0.00  0.00    +0.048 C 
BRANCH  13  16
ATOM     14  C   UNL     1      -1.741  -0.873   0.000  0.00  0.00    +0.054 C 
ATOM     15  C   UNL     1      -2.191  -0.181   0.000  0.00  0.00    +0.076 A 
ATOM     16  C   UNL     1      -1.895   0.589   0.000  0.00  0.00    +0.008 A 
ATOM     17  C   UNL     1      -2.536   1.108   0.000  0.00  0.00    +0.053 A 
ATOM     18  C   UNL     1      -2.493   1.932   0.000  0.00  0.00    +0.051 C 
ATOM     19  N   UNL     1      -3.228   0.659   0.000  0.00  0.00    -0.253 N 
ATOM     20  C   UNL     1      -3.998   0.954   0.000  0.00  0.00    +0.153 C 
ATOM     21  N   UNL     1      -3.015  -0.138   0.000  0.00  0.00    -0.174 NA
ENDBRANCH  13  16
ENDBRANCH  12  13
ENDBRANCH   1  12
TORSDOF 4
