REMARK  Name = 
REMARK  6 active torsions:
REMARK  status: ('A' for Active; 'I' for Inactive)
REMARK    1  A    between atoms: N_5  and  C_6
REMARK    2  A    between atoms: C_6  and  C_7
REMARK    3  A    between atoms: C_7  and  C_8
REMARK    4  A    between atoms: C_8  and  N_9
REMARK    5  A    between atoms: C_10  and  C_12
REMARK    6  A    between atoms: C_12  and  C_15
REMARK                            x       y       z     vdW  Elec       q    Type
REMARK                         _______ _______ _______ _____ _____    ______ ____
ROOT
ATOM      1  N   UNL     1       2.143  -8.662   0.000  0.00  0.00    -0.205 NA
ATOM      2  C   UNL     1       2.143  -9.488   0.000  0.00  0.00    +0.244 C 
ATOM      3  O   UNL     1       2.858  -9.900   0.000  0.00  0.00    -0.273 OA
ENDROOT
BRANCH   2   4
ATOM      4  C   UNL     1       1.429  -9.900   0.000  0.00  0.00    +0.091 C 
ATOM      5  C   UNL     1       1.841 -10.614   0.000  0.00  0.00    +0.014 C 
ATOM      6  C   UNL     1       1.016  -9.185   0.000  0.00  0.00    +0.014 C 
BRANCH   4   7
ATOM      7  C   UNL     1       0.715 -10.312   0.000  0.00  0.00    +0.005 A 
ATOM      8  C   UNL     1       0.000  -9.900   0.000  0.00  0.00    +0.095 A 
ATOM      9  N   UNL     1      -0.715 -10.312   0.000  0.00  0.00    -0.243 NA
ATOM     10  C   UNL     1      -0.715 -11.137   0.000  0.00  0.00    +0.099 A 
ATOM     11  C   UNL     1       0.000 -11.550   0.000  0.00  0.00    +0.020 A 
ATOM     12  C   UNL     1       0.715 -11.137   0.000  0.00  0.00    -0.001 A 
ENDBRANCH   4   7
ENDBRANCH   2   4
BRANCH   1  13
ATOM     13  C   UNL     1       2.858  -8.250   0.000  0.00  0.00    +0.117 C 
BRANCH  13  14
ATOM     14  C   UNL     1       2.858  -7.425   0.000  0.00  0.00    +0.041 C 
BRANCH  14  15
ATOM     15  C   UNL     1       3.572  -7.013   0.000  0.00  0.00    +0.074 C 
BRANCH  15  20
ATOM     16  C   UNL     1       3.572  -3.712   0.000  0.00  0.00    +0.090 C 
ATOM     17  N   UNL     1       3.572  -4.537   0.000  0.00  0.00    -0.269 NA
ATOM     18  C   UNL     1       2.858  -4.950   0.000  0.00  0.00    +0.090 C 
ATOM     19  C   UNL     1       2.858  -5.775   0.000  0.00  0.00    +0.090 C 
ATOM     20  N   UNL     1       3.572  -6.188   0.000  0.00  0.00    -0.270 NA
ATOM     21  C   UNL     1       4.287  -5.775   0.000  0.00  0.00    +0.090 C 
ATOM     22  C   UNL     1       4.287  -4.950   0.000  0.00  0.00    +0.090 C 
ENDBRANCH  15  20
ENDBRANCH  14  15
ENDBRANCH  13  14
ENDBRANCH   1  13
TORSDOF 6
