REMARK  Name = 
REMARK  5 active torsions:
REMARK  status: ('A' for Active; 'I' for Inactive)
REMARK    1  A    between atoms: C_2  and  C_3
REMARK    2  A    between atoms: C_2  and  C_13
REMARK    3  A    between atoms: C_3  and  N_4
REMARK    4  A    between atoms: N_4  and  C_5
REMARK    5  A    between atoms: C_5  and  C_6
REMARK                            x       y       z     vdW  Elec       q    Type
REMARK                         _______ _______ _______ _____ _____    ______ ____
ROOT
ATOM      1  C   UNL     1      -1.429  -1.650   0.000  0.00  0.00    +0.093 C 
ENDROOT
BRANCH   1   3
ATOM      2  C   UNL     1      -2.143  -2.888   0.000  0.00  0.00    +0.006 C 
ATOM      3  C   UNL     1      -2.143  -2.062   0.000  0.00  0.00    +0.040 C 
BRANCH   3   4
ATOM      4  C   UNL     1      -2.858  -1.650   0.000  0.00  0.00    -0.018 A 
ATOM      5  C   UNL     1      -2.858  -0.825   0.000  0.00  0.00    +0.016 A 
ATOM      6  C   UNL     1      -3.572  -0.412   0.000  0.00  0.00    +0.099 A 
ATOM      7  N   UNL     1      -4.287  -0.825   0.000  0.00  0.00    -0.242 NA
ATOM      8  C   UNL     1      -4.287  -1.650   0.000  0.00  0.00    +0.099 A 
ATOM      9  C   UNL     1      -3.572  -2.062   0.000  0.00  0.00    +0.016 A 
ENDBRANCH   3   4
ENDBRANCH   1   3
BRANCH   1  10
ATOM     10  N   UNL     1      -0.715  -2.062   0.000  0.00  0.00    -0.218 NA
BRANCH  10  11
ATOM     11  C   UNL     1       0.000  -1.650   0.000  0.00  0.00    +0.089 C 
BRANCH  11  12
ATOM     12  C   UNL     1       0.715  -2.062   0.000  0.00  0.00    +0.022 C 
ATOM     13  C   UNL     1       1.429  -1.650   0.000  0.00  0.00    +0.023 C 
ATOM     14  C   UNL     1       2.143  -2.062   0.000  0.00  0.00    -0.031 C 
ATOM     15  C   UNL     1       2.143  -2.888   0.000  0.00  0.00    -0.031 C 
ATOM     16  C   UNL     1       1.429  -3.300   0.000  0.00  0.00    +0.022 C 
ATOM     17  C   UNL     1       1.223  -2.475   0.000  0.00  0.00    +0.009 C 
ATOM     18  C   UNL     1       0.715  -2.888   0.000  0.00  0.00    +0.006 C 
ENDBRANCH  11  12
ENDBRANCH  10  11
ENDBRANCH   1  10
TORSDOF 5
