REMARK  Name = 
REMARK  4 active torsions:
REMARK  status: ('A' for Active; 'I' for Inactive)
REMARK    1  A    between atoms: C_2  and  C_5
REMARK    2  A    between atoms: N_9  and  C_10
REMARK    3  A    between atoms: C_10  and  C_11
REMARK    4  A    between atoms: N_13  and  C_14
REMARK                            x       y       z     vdW  Elec       q    Type
REMARK                         _______ _______ _______ _____ _____    ______ ____
ROOT
ATOM      1  C   UNL     1       2.037   3.651   0.000  0.00  0.00    +0.127 A 
ATOM      2  C   UNL     1       2.751   3.238   0.000  0.00  0.00    +0.265 A 
ATOM      3  O   UNL     1       2.751   2.413   0.000  0.00  0.00    -0.267 OA
ATOM      4  N   UNL     1       3.466   3.651   0.000  0.00  0.00    -0.285 N 
ATOM      5  C   UNL     1       3.466   4.476   0.000  0.00  0.00    +0.079 A 
ATOM      6  C   UNL     1       2.751   4.888   0.000  0.00  0.00    +0.019 A 
ATOM      7  C   UNL     1       2.037   4.476   0.000  0.00  0.00    +0.010 A 
ENDROOT
BRANCH   1   9
ATOM      8  F   UNL     1       0.608   2.826   0.000  0.00  0.00    -0.166 F 
ATOM      9  C   UNL     1       1.322   3.238   0.000  0.00  0.00    +0.423 C 
ATOM     10  F   UNL     1       0.910   3.953   0.000  0.00  0.00    -0.166 F 
ATOM     11  F   UNL     1       1.735   2.524   0.000  0.00  0.00    -0.166 F 
ENDBRANCH   1   9
BRANCH   4  12
ATOM     12  C   UNL     1       4.180   3.238   0.000  0.00  0.00    +0.196 C 
BRANCH  12  13
ATOM     13  C   UNL     1       4.180   2.413   0.000  0.00  0.00    +0.265 C 
ATOM     14  N   UNL     1       4.895   2.001   0.000  0.00  0.00    -0.203 NA
ATOM     15  O   UNL     1       3.466   2.001   0.000  0.00  0.00    -0.271 OA
BRANCH  14  16
ATOM     16  C   UNL     1       4.895   1.176   0.000  0.00  0.00    +0.127 C 
ATOM     17  C   UNL     1       4.227   0.691   0.000  0.00  0.00    +0.164 C 
ATOM     18  O   UNL     1       4.482  -0.094   0.000  0.00  0.00    -0.352 OA
ATOM     19  C   UNL     1       5.307  -0.094   0.000  0.00  0.00    +0.144 C 
ATOM     20  C   UNL     1       5.562   0.691   0.000  0.00  0.00    +0.056 C 
ENDBRANCH  14  16
ENDBRANCH  12  13
ENDBRANCH   4  12
TORSDOF 4
