REMARK  Name = 
REMARK  3 active torsions:
REMARK  status: ('A' for Active; 'I' for Inactive)
REMARK    1  A    between atoms: C_7  and  C_8
REMARK    2  A    between atoms: C_8  and  C_9
REMARK    3  A    between atoms: N_11  and  C_12
REMARK                            x       y       z     vdW  Elec       q    Type
REMARK                         _______ _______ _______ _____ _____    ______ ____
ROOT
ATOM      1  C   UNL     1      -2.344  -3.652   0.000  0.00  0.00    +0.246 C 
ATOM      2  N   UNL     1      -3.129  -3.397   0.000  0.00  0.00    -0.205 NA
ATOM      3  O   UNL     1      -2.173  -4.459   0.000  0.00  0.00    -0.273 OA
ENDROOT
BRANCH   2   4
ATOM      4  C   UNL     1      -3.742  -3.949   0.000  0.00  0.00    +0.121 C 
ATOM      5  C   UNL     1      -4.549  -3.778   0.000  0.00  0.00    +0.172 C 
ATOM      6  S   UNL     1      -4.962  -4.492   0.000  0.00  0.00    -0.008 S 
ATOM      7  O   UNL     1      -5.629  -4.007   0.000  0.00  0.00    -0.173 OA
ATOM      8  O   UNL     1      -5.513  -5.105   0.000  0.00  0.00    -0.173 OA
ATOM      9  C   UNL     1      -4.410  -5.105   0.000  0.00  0.00    +0.153 C 
ATOM     10  C   UNL     1      -3.656  -4.770   0.000  0.00  0.00    +0.049 C 
ENDBRANCH   2   4
BRANCH   1  11
ATOM     11  C   UNL     1      -1.731  -3.100   0.000  0.00  0.00    +0.117 C 
BRANCH  11  14
ATOM     12  C   UNL     1      -0.279  -2.045   0.000  0.00  0.00    +0.055 C 
ATOM     13  C   UNL     1      -0.279  -2.870   0.000  0.00  0.00    +0.097 A 
ATOM     14  C   UNL     1      -0.947  -3.355   0.000  0.00  0.00    +0.037 A 
ATOM     15  C   UNL     1      -0.692  -4.140   0.000  0.00  0.00    +0.151 A 
ATOM     16  C   UNL     1      -1.177  -4.807   0.000  0.00  0.00    +0.075 C 
ATOM     17  O   UNL     1       0.133  -4.140   0.000  0.00  0.00    -0.358 OA
ATOM     18  N   UNL     1       0.388  -3.355   0.000  0.00  0.00    -0.082 NA
ENDBRANCH  11  14
ENDBRANCH   1  11
TORSDOF 3
