REMARK  Name = 
REMARK  4 active torsions:
REMARK  status: ('A' for Active; 'I' for Inactive)
REMARK    1  A    between atoms: C_2  and  N_3
REMARK    2  A    between atoms: C_2  and  C_15
REMARK    3  A    between atoms: C_4  and  C_6
REMARK    4  A    between atoms: C_6  and  N_7
REMARK                            x       y       z     vdW  Elec       q    Type
REMARK                         _______ _______ _______ _____ _____    ______ ____
ROOT
ATOM      1  N   UNL     1       1.429  -2.475   0.000  0.00  0.00    -0.203 NA
ATOM      2  C   UNL     1       2.143  -2.888   0.000  0.00  0.00    +0.266 C 
ATOM      3  O   UNL     1       2.143  -3.712   0.000  0.00  0.00    -0.271 OA
ENDROOT
BRANCH   1   5
ATOM      4  C   UNL     1       0.715  -3.712   0.000  0.00  0.00    +0.026 C 
ATOM      5  C   UNL     1       0.715  -2.888   0.000  0.00  0.00    +0.122 C 
BRANCH   5   6
ATOM      6  C   UNL     1       0.000  -2.475   0.000  0.00  0.00    +0.135 C 
ATOM      7  O   UNL     1      -0.086  -1.655   0.000  0.00  0.00    -0.354 OA
ATOM      8  C   UNL     1      -0.893  -1.483   0.000  0.00  0.00    +0.142 C 
ATOM      9  C   UNL     1      -1.306  -2.197   0.000  0.00  0.00    +0.035 C 
ATOM     10  C   UNL     1      -0.754  -2.811   0.000  0.00  0.00    +0.034 C 
ENDBRANCH   5   6
ENDBRANCH   1   5
BRANCH   2  11
ATOM     11  C   UNL     1       2.858  -2.475   0.000  0.00  0.00    +0.217 C 
BRANCH  11  12
ATOM     12  N   UNL     1       3.572  -2.888   0.000  0.00  0.00    -0.204 N 
ATOM     13  C   UNL     1       3.572  -3.712   0.000  0.00  0.00    +0.277 A 
ATOM     14  O   UNL     1       2.858  -4.125   0.000  0.00  0.00    -0.265 OA
ATOM     15  C   UNL     1       4.287  -4.125   0.000  0.00  0.00    +0.067 A 
ATOM     16  C   UNL     1       5.001  -3.712   0.000  0.00  0.00    +0.069 A 
ATOM     17  C   UNL     1       5.001  -2.888   0.000  0.00  0.00    +0.295 A 
ATOM     18  O   UNL     1       5.716  -2.475   0.000  0.00  0.00    -0.264 OA
ATOM     19  N   UNL     1       4.287  -2.475   0.000  0.00  0.00    -0.124 NA
ENDBRANCH  11  12
ENDBRANCH   2  11
TORSDOF 4
