REMARK  Name = 
REMARK  4 active torsions:
REMARK  status: ('A' for Active; 'I' for Inactive)
REMARK    1  A    between atoms: C_2  and  C_4
REMARK    2  A    between atoms: C_7  and  N_10
REMARK    3  A    between atoms: C_11  and  C_13
REMARK    4  A    between atoms: C_13  and  C_14
REMARK                            x       y       z     vdW  Elec       q    Type
REMARK                         _______ _______ _______ _____ _____    ______ ____
ROOT
ATOM      1  N   UNL     1       2.858  -4.950   0.000  0.00  0.00    -0.207 NA
ATOM      2  C   UNL     1       2.143  -5.362   0.000  0.00  0.00    +0.246 C 
ATOM      3  O   UNL     1       1.429  -4.950   0.000  0.00  0.00    -0.273 OA
ENDROOT
BRANCH   1   7
ATOM      4  C   UNL     1       2.858  -2.475   0.000  0.00  0.00    +0.104 C 
ATOM      5  C   UNL     1       2.143  -2.888   0.000  0.00  0.00    +0.013 C 
ATOM      6  C   UNL     1       2.143  -3.712   0.000  0.00  0.00    +0.022 C 
ATOM      7  C   UNL     1       2.858  -4.125   0.000  0.00  0.00    +0.095 C 
ATOM      8  C   UNL     1       3.572  -3.712   0.000  0.00  0.00    +0.022 C 
ATOM      9  C   UNL     1       3.572  -2.888   0.000  0.00  0.00    +0.013 C 
BRANCH   4  11
ATOM     10  O   UNL     1       2.143  -1.238   0.000  0.00  0.00    -0.246 OA
ATOM     11  C   UNL     1       2.858  -1.650   0.000  0.00  0.00    +0.364 C 
ATOM     12  O   UNL     1       3.572  -1.238   0.000  0.00  0.00    -0.246 OA
ENDBRANCH   4  11
ENDBRANCH   1   7
BRANCH   2  13
ATOM     13  C   UNL     1       2.143  -6.188   0.000  0.00  0.00    +0.113 C 
BRANCH  13  14
ATOM     14  C   UNL     1       1.429  -6.600   0.000  0.00  0.00    -0.010 A 
ATOM     15  C   UNL     1       0.715  -6.188   0.000  0.00  0.00    +0.017 A 
ATOM     16  C   UNL     1       0.000  -6.600   0.000  0.00  0.00    +0.099 A 
ATOM     17  N   UNL     1       0.000  -7.425   0.000  0.00  0.00    -0.242 NA
ATOM     18  C   UNL     1       0.715  -7.838   0.000  0.00  0.00    +0.099 A 
ATOM     19  C   UNL     1       1.429  -7.425   0.000  0.00  0.00    +0.017 A 
ENDBRANCH  13  14
ENDBRANCH   2  13
TORSDOF 4
