REMARK  Name = 
REMARK  1 active torsions:
REMARK  status: ('A' for Active; 'I' for Inactive)
REMARK    1  A    between atoms: C_6  and  C_8
REMARK                            x       y       z     vdW  Elec       q    Type
REMARK                         _______ _______ _______ _____ _____    ______ ____
ROOT
ATOM      1 CL   UNL     1       0.000   0.000   0.000  0.00  0.00    +0.000 Cl
ENDROOT
TORSDOF 0
REMARK  Name = 
REMARK  1 active torsions:
REMARK  status: ('A' for Active; 'I' for Inactive)
REMARK    1  A    between atoms: C_6  and  C_8
REMARK                            x       y       z     vdW  Elec       q    Type
REMARK                         _______ _______ _______ _____ _____    ______ ____
ROOT
ATOM      1  C   UNL     1       2.357   1.956   0.000  0.00  0.00    +0.077 C 
ATOM      2  C   UNL     1       2.842   1.288   0.000  0.00  0.00    +0.181 A 
ATOM      3  N   UNL     1       2.587   0.504   0.000  0.00  0.00    -0.195 NA
ATOM      4  C   UNL     1       3.255   0.019   0.000  0.00  0.00    +0.239 A 
ATOM      5  O   UNL     1       3.922   0.504   0.000  0.00  0.00    -0.337 OA
ATOM      6  N   UNL     1       3.667   1.288   0.000  0.00  0.00    -0.061 NA
ENDROOT
BRANCH   4   7
ATOM      7  C   UNL     1       3.255  -0.806   0.000  0.00  0.00    +0.114 C 
ATOM      8  C   UNL     1       2.671  -1.390   0.000  0.00  0.00    +0.099 C 
ATOM      9  N   UNL     1       3.255  -1.973   0.000  0.00  0.00    -0.217 NA
ATOM     10  C   UNL     1       3.838  -1.390   0.000  0.00  0.00    +0.099 C 
ENDBRANCH   4   7
TORSDOF 1
