REMARK  Name = 
REMARK  2 active torsions:
REMARK  status: ('A' for Active; 'I' for Inactive)
REMARK    1  A    between atoms: C_2  and  N_3
REMARK    2  A    between atoms: C_2  and  C_12
REMARK                            x       y       z     vdW  Elec       q    Type
REMARK                         _______ _______ _______ _____ _____    ______ ____
ROOT
ATOM      1  N   UNL     1       1.429  -1.650   0.000  0.00  0.00    -0.189 NA
ATOM      2  C   UNL     1       2.143  -2.062   0.000  0.00  0.00    +0.347 C 
ATOM      3  N   UNL     1       2.858  -1.650   0.000  0.00  0.00    -0.108 NA
ATOM      4  C   UNL     1       3.572  -2.062   0.000  0.00  0.00    +0.317 A 
ATOM      5  O   UNL     1       3.659  -2.883   0.000  0.00  0.00    -0.419 OA
ATOM      6  C   UNL     1       4.466  -3.054   0.000  0.00  0.00    +0.204 A 
ATOM      7  C   UNL     1       4.878  -2.340   0.000  0.00  0.00    +0.144 A 
ATOM      8  N   UNL     1       4.326  -1.727   0.000  0.00  0.00    -0.191 NA
ATOM      9  O   UNL     1       2.143  -2.888   0.000  0.00  0.00    -0.249 OA
ENDROOT
BRANCH   1  11
ATOM     10  C   UNL     1       0.715  -2.888   0.000  0.00  0.00    +0.023 C 
ATOM     11  C   UNL     1       0.715  -2.062   0.000  0.00  0.00    +0.097 C 
BRANCH  11  12
ATOM     12  C   UNL     1       0.000  -1.650   0.000  0.00  0.00    +0.025 C 
ATOM     13  C   UNL     1       0.000  -0.825   0.000  0.00  0.00    +0.034 C 
ATOM     14  C   UNL     1      -0.715  -0.412   0.000  0.00  0.00    +0.142 C 
ATOM     15  O   UNL     1      -1.429  -0.825   0.000  0.00  0.00    -0.354 OA
ATOM     16  C   UNL     1      -1.429  -1.650   0.000  0.00  0.00    +0.142 C 
ATOM     17  C   UNL     1      -0.715  -2.062   0.000  0.00  0.00    +0.034 C 
ENDBRANCH  11  12
ENDBRANCH   1  11
TORSDOF 2
