REMARK  Name = 
REMARK  6 active torsions:
REMARK  status: ('A' for Active; 'I' for Inactive)
REMARK    1  A    between atoms: C_2  and  O_3
REMARK    2  A    between atoms: C_2  and  C_17
REMARK    3  A    between atoms: O_3  and  C_4
REMARK    4  A    between atoms: C_4  and  C_5
REMARK    5  A    between atoms: C_5  and  C_7
REMARK    6  A    between atoms: C_7  and  N_8
REMARK                            x       y       z     vdW  Elec       q    Type
REMARK                         _______ _______ _______ _____ _____    ______ ____
ROOT
ATOM      1  C   UNL     1       2.858  -0.825   0.000  0.00  0.00    +0.204 C 
ATOM      2  O   UNL     1       2.858   0.000   0.000  0.00  0.00    -0.218 OA
ENDROOT
BRANCH   1   3
ATOM      3  C   UNL     1       3.572  -1.238   0.000  0.00  0.00    +0.146 C 
BRANCH   3   4
ATOM      4  N   UNL     1       4.287  -0.825   0.000  0.00  0.00    -0.276 N 
ATOM      5  C   UNL     1       5.001  -1.238   0.000  0.00  0.00    +0.259 A 
ATOM      6  O   UNL     1       5.001  -2.062   0.000  0.00  0.00    -0.267 OA
ATOM      7  C   UNL     1       5.716  -0.825   0.000  0.00  0.00    +0.048 A 
ATOM      8  C   UNL     1       6.430  -1.238   0.000  0.00  0.00    +0.037 C 
ATOM      9  C   UNL     1       5.716   0.000   0.000  0.00  0.00    +0.062 A 
ATOM     10  C   UNL     1       6.430   0.412   0.000  0.00  0.00    +0.052 C 
ATOM     11  N   UNL     1       5.001   0.412   0.000  0.00  0.00    -0.230 NA
ATOM     12  C   UNL     1       4.287   0.000   0.000  0.00  0.00    +0.181 A 
ENDBRANCH   3   4
ENDBRANCH   1   3
BRANCH   1  13
ATOM     13  C   UNL     1       2.143  -1.238   0.000  0.00  0.00    +0.177 C 
BRANCH  13  14
ATOM     14  O   UNL     1       1.429  -0.825   0.000  0.00  0.00    -0.349 OA
BRANCH  14  16
ATOM     15  C   UNL     1       0.715  -2.062   0.000  0.00  0.00    +0.037 C 
ATOM     16  C   UNL     1       0.715  -1.238   0.000  0.00  0.00    +0.138 C 
BRANCH  16  17
ATOM     17  C   UNL     1       0.000  -0.825   0.000  0.00  0.00    +0.005 A 
ATOM     18  C   UNL     1       0.000   0.000   0.000  0.00  0.00    -0.001 A 
ATOM     19  C   UNL     1      -0.715   0.412   0.000  0.00  0.00    +0.011 A 
ATOM     20  C   UNL     1      -1.429   0.000   0.000  0.00  0.00    +0.058 A 
ATOM     21 CL   UNL     1      -2.143   0.412   0.000  0.00  0.00    -0.082 Cl
ATOM     22  C   UNL     1      -1.429  -0.825   0.000  0.00  0.00    +0.011 A 
ATOM     23  C   UNL     1      -0.715  -1.238   0.000  0.00  0.00    -0.001 A 
ENDBRANCH  16  17
ENDBRANCH  14  16
ENDBRANCH  13  14
ENDBRANCH   1  13
TORSDOF 6
