REMARK  Name = 
REMARK  7 active torsions:
REMARK  status: ('A' for Active; 'I' for Inactive)
REMARK    1  A    between atoms: C_2  and  C_3
REMARK    2  A    between atoms: C_3  and  O_4
REMARK    3  A    between atoms: C_3  and  C_11
REMARK    4  A    between atoms: O_4  and  C_5
REMARK    5  A    between atoms: N_13  and  C_14
REMARK    6  A    between atoms: C_14  and  C_15
REMARK    7  A    between atoms: C_15  and  C_16
REMARK                            x       y       z     vdW  Elec       q    Type
REMARK                         _______ _______ _______ _____ _____    ______ ____
ROOT
ATOM      1  C   UNL     1       0.715  -1.238   0.000  0.00  0.00    +0.269 C 
ATOM      2  N   UNL     1       1.429  -1.650   0.000  0.00  0.00    -0.203 NA
ATOM      3  O   UNL     1       0.715  -0.412   0.000  0.00  0.00    -0.271 OA
ENDROOT
BRANCH   2   4
ATOM      4  C   UNL     1       2.143  -1.238   0.000  0.00  0.00    +0.123 C 
BRANCH   4   5
ATOM      5  C   UNL     1       2.858  -1.650   0.000  0.00  0.00    +0.091 C 
BRANCH   5   6
ATOM      6  C   UNL     1       3.572  -1.238   0.000  0.00  0.00    +0.167 A 
ATOM      7  N   UNL     1       4.326  -1.573   0.000  0.00  0.00    -0.173 NA
ATOM      8  C   UNL     1       4.878  -0.960   0.000  0.00  0.00    +0.388 A 
ATOM      9  O   UNL     1       5.699  -1.046   0.000  0.00  0.00    -0.241 OA
ATOM     10  N   UNL     1       4.466  -0.245   0.000  0.00  0.00    -0.087 NA
ATOM     11  N   UNL     1       3.659  -0.417   0.000  0.00  0.00    -0.129 NA
ENDBRANCH   5   6
ENDBRANCH   4   5
ENDBRANCH   2   4
BRANCH   1  12
ATOM     12  C   UNL     1       0.000  -1.650   0.000  0.00  0.00    +0.192 C 
BRANCH  12  14
ATOM     13  C   UNL     1       0.715  -2.888   0.000  0.00  0.00    +0.003 C 
ATOM     14  C   UNL     1       0.000  -2.475   0.000  0.00  0.00    +0.039 C 
ENDBRANCH  12  14
BRANCH  12  15
ATOM     15  O   UNL     1      -0.715  -1.238   0.000  0.00  0.00    -0.349 OA
BRANCH  15  16
ATOM     16  C   UNL     1      -1.429  -1.650   0.000  0.00  0.00    +0.116 C 
ATOM     17  C   UNL     1      -2.143  -1.238   0.000  0.00  0.00    +0.030 C 
ATOM     18  C   UNL     1      -2.858  -1.650   0.000  0.00  0.00    +0.002 C 
ATOM     19  C   UNL     1      -2.858  -2.475   0.000  0.00  0.00    +0.000 C 
ATOM     20  C   UNL     1      -2.143  -2.888   0.000  0.00  0.00    +0.002 C 
ATOM     21  C   UNL     1      -1.429  -2.475   0.000  0.00  0.00    +0.030 C 
ENDBRANCH  15  16
ENDBRANCH  12  15
ENDBRANCH   1  12
TORSDOF 7
