REMARK  Name = 
REMARK  2 active torsions:
REMARK  status: ('A' for Active; 'I' for Inactive)
REMARK    1  A    between atoms: C_5  and  N_6
REMARK    2  A    between atoms: C_10  and  C_11
REMARK                            x       y       z     vdW  Elec       q    Type
REMARK                         _______ _______ _______ _____ _____    ______ ____
ROOT
ATOM      1 CL   UNL     1       0.000   0.000   0.000  0.00  0.00    +0.000 Cl
ENDROOT
TORSDOF 0
REMARK  Name = 
REMARK  2 active torsions:
REMARK  status: ('A' for Active; 'I' for Inactive)
REMARK    1  A    between atoms: C_5  and  N_6
REMARK    2  A    between atoms: C_10  and  C_11
REMARK                            x       y       z     vdW  Elec       q    Type
REMARK                         _______ _______ _______ _____ _____    ______ ____
ROOT
ATOM      1 CL   UNL     1       2.004   0.000   0.000  0.00  0.00    +0.000 Cl
ENDROOT
TORSDOF 0
REMARK  Name = 
REMARK  2 active torsions:
REMARK  status: ('A' for Active; 'I' for Inactive)
REMARK    1  A    between atoms: C_5  and  N_6
REMARK    2  A    between atoms: C_10  and  C_11
REMARK                            x       y       z     vdW  Elec       q    Type
REMARK                         _______ _______ _______ _____ _____    ______ ____
ROOT
ATOM      1  N   UNL     1      -0.959  -2.920   0.000  0.00  0.00    -0.298 N 
ATOM      2  C   UNL     1      -0.291  -2.435   0.000  0.00  0.00    +0.144 A 
ATOM      3  N   UNL     1      -0.546  -1.650   0.000  0.00  0.00    -0.133 NA
ATOM      4  N   UNL     1      -1.371  -1.650   0.000  0.00  0.00    -0.126 NA
ATOM      5  C   UNL     1      -1.626  -2.435   0.000  0.00  0.00    +0.202 A 
ENDROOT
BRANCH   2   6
ATOM      6  C   UNL     1       0.493  -2.690   0.000  0.00  0.00    +0.076 C 
ATOM      7  C   UNL     1       0.665  -3.497   0.000  0.00  0.00    +0.096 C 
ATOM      8  N   UNL     1       1.450  -3.752   0.000  0.00  0.00    -0.218 NA
ATOM      9  C   UNL     1       2.063  -3.199   0.000  0.00  0.00    +0.089 C 
ATOM     10  C   UNL     1       1.891  -2.393   0.000  0.00  0.00    +0.019 C 
ATOM     11  C   UNL     1       1.107  -2.138   0.000  0.00  0.00    +0.010 C 
ENDBRANCH   2   6
BRANCH   1  13
ATOM     12  C   UNL     1      -0.546  -4.459   0.000  0.00  0.00    +0.025 C 
ATOM     13  C   UNL     1      -0.959  -3.744   0.000  0.00  0.00    +0.088 C 
ATOM     14  C   UNL     1      -1.371  -4.459   0.000  0.00  0.00    +0.025 C 
ENDBRANCH   1  13
TORSDOF 2
