REMARK  Name = 
REMARK  2 active torsions:
REMARK  status: ('A' for Active; 'I' for Inactive)
REMARK    1  A    between atoms: N_1  and  C_6
REMARK    2  A    between atoms: C_14  and  C_17
REMARK                            x       y       z     vdW  Elec       q    Type
REMARK                         _______ _______ _______ _____ _____    ______ ____
ROOT
ATOM      1  N   UNL     1       1.137  -1.363   0.000  0.00  0.00    -0.271 N 
ATOM      2  C   UNL     1       0.650  -0.696   0.000  0.00  0.00    +0.182 A 
ATOM      3  N   UNL     1       1.137  -0.029   0.000  0.00  0.00    -0.217 NA
ATOM      4  C   UNL     1       1.921  -0.283   0.000  0.00  0.00    +0.175 A 
ATOM      5  C   UNL     1       2.638   0.129   0.000  0.00  0.00    +0.301 A 
ATOM      6  O   UNL     1       2.638   0.954   0.000  0.00  0.00    -0.263 OA
ATOM      7  N   UNL     1       3.350  -0.283   0.000  0.00  0.00    -0.184 NA
ATOM      8  C   UNL     1       3.350  -1.108   0.000  0.00  0.00    +0.203 A 
ATOM      9  N   UNL     1       2.638  -1.521   0.000  0.00  0.00    -0.205 NA
ATOM     10  C   UNL     1       1.921  -1.108   0.000  0.00  0.00    +0.171 A 
ENDROOT
BRANCH   1  11
ATOM     11  C   UNL     1       0.883  -2.150   0.000  0.00  0.00    +0.207 C 
ATOM     12  C   UNL     1       0.096  -2.404   0.000  0.00  0.00    +0.057 C 
ATOM     13  C   UNL     1       0.096  -3.229   0.000  0.00  0.00    +0.037 C 
ATOM     14  C   UNL     1       0.883  -3.483   0.000  0.00  0.00    +0.150 C 
ATOM     15  O   UNL     1       1.367  -2.817   0.000  0.00  0.00    -0.335 OA
BRANCH  14  16
ATOM     16  C   UNL     1       1.137  -4.267   0.000  0.00  0.00    +0.211 C 
ATOM     17  O   UNL     1       0.583  -4.879   0.000  0.00  0.00    -0.218 OA
ENDBRANCH  14  16
ENDBRANCH   1  11
TORSDOF 2
