REMARK  Name = 
REMARK  4 active torsions:
REMARK  status: ('A' for Active; 'I' for Inactive)
REMARK    1  A    between atoms: N_4  and  C_5
REMARK    2  A    between atoms: C_5  and  C_6
REMARK    3  A    between atoms: C_6  and  C_8
REMARK    4  A    between atoms: C_8  and  N_9
REMARK                            x       y       z     vdW  Elec       q    Type
REMARK                         _______ _______ _______ _____ _____    ______ ____
ROOT
ATOM      1  C   UNL     1       4.287  -4.950   0.000  0.00  0.00    +0.190 C 
ATOM      2  O   UNL     1       3.572  -5.362   0.000  0.00  0.00    -0.220 OA
ENDROOT
BRANCH   1   3
ATOM      3  C   UNL     1       4.287  -4.125   0.000  0.00  0.00    +0.108 C 
BRANCH   3  10
ATOM      4  C   UNL     1       2.858  -1.650   0.000  0.00  0.00    +0.034 C 
ATOM      5  C   UNL     1       2.858  -2.475   0.000  0.00  0.00    +0.131 C 
ATOM      6  O   UNL     1       2.143  -2.888   0.000  0.00  0.00    -0.356 OA
ATOM      7  C   UNL     1       2.143  -3.712   0.000  0.00  0.00    +0.131 C 
ATOM      8  C   UNL     1       1.429  -4.125   0.000  0.00  0.00    +0.034 C 
ATOM      9  C   UNL     1       2.858  -4.125   0.000  0.00  0.00    +0.102 C 
ATOM     10  N   UNL     1       3.572  -3.712   0.000  0.00  0.00    -0.266 NA
ATOM     11  C   UNL     1       3.572  -2.888   0.000  0.00  0.00    +0.102 C 
ENDBRANCH   3  10
ENDBRANCH   1   3
BRANCH   1  12
ATOM     12  C   UNL     1       5.001  -5.362   0.000  0.00  0.00    +0.145 C 
BRANCH  12  13
ATOM     13  N   UNL     1       5.001  -6.188   0.000  0.00  0.00    -0.276 N 
ATOM     14  C   UNL     1       4.287  -6.600   0.000  0.00  0.00    +0.259 A 
ATOM     15  O   UNL     1       3.572  -6.188   0.000  0.00  0.00    -0.267 OA
ATOM     16  C   UNL     1       4.287  -7.425   0.000  0.00  0.00    +0.048 A 
ATOM     17  C   UNL     1       3.572  -7.838   0.000  0.00  0.00    +0.037 C 
ATOM     18  C   UNL     1       5.001  -7.838   0.000  0.00  0.00    +0.062 A 
ATOM     19  C   UNL     1       5.001  -8.662   0.000  0.00  0.00    +0.052 C 
ATOM     20  N   UNL     1       5.716  -7.425   0.000  0.00  0.00    -0.230 NA
ATOM     21  C   UNL     1       5.716  -6.600   0.000  0.00  0.00    +0.181 A 
ENDBRANCH  12  13
ENDBRANCH   1  12
TORSDOF 4
