REMARK  Name = 
REMARK  5 active torsions:
REMARK  status: ('A' for Active; 'I' for Inactive)
REMARK    1  A    between atoms: O_2  and  C_3
REMARK    2  A    between atoms: C_3  and  C_4
REMARK    3  A    between atoms: C_4  and  N_5
REMARK    4  A    between atoms: C_6  and  C_18
REMARK    5  A    between atoms: C_10  and  S_14
REMARK                            x       y       z     vdW  Elec       q    Type
REMARK                         _______ _______ _______ _____ _____    ______ ____
ROOT
ATOM      1  N   UNL     1       1.139  -1.365   0.000  0.00  0.00    -0.309 N 
ATOM      2  C   UNL     1       1.923  -1.110   0.000  0.00  0.00    +0.079 A 
ATOM      3  C   UNL     1       1.923  -0.285   0.000  0.00  0.00    +0.100 A 
ATOM      4  C   UNL     1       2.638   0.127   0.000  0.00  0.00    +0.041 A 
ATOM      5  C   UNL     1       3.352  -0.285   0.000  0.00  0.00    +0.127 A 
ATOM      6  C   UNL     1       3.352  -1.110   0.000  0.00  0.00    +0.022 A 
ATOM      7  N   UNL     1       1.139  -0.030   0.000  0.00  0.00    -0.227 NA
ATOM      8  C   UNL     1       2.638  -1.523   0.000  0.00  0.00    +0.020 A 
ATOM      9  C   UNL     1       0.654  -0.698   0.000  0.00  0.00    +0.144 A 
ENDROOT
BRANCH   9  10
ATOM     10  C   UNL     1      -0.171  -0.698   0.000  0.00  0.00    +0.036 A 
ATOM     11  C   UNL     1      -0.584   0.017   0.000  0.00  0.00    +0.033 A 
ATOM     12  C   UNL     1      -1.409   0.017   0.000  0.00  0.00    +0.140 A 
ATOM     13  F   UNL     1      -1.821   0.731   0.000  0.00  0.00    -0.204 F 
ATOM     14  C   UNL     1      -1.821  -0.698   0.000  0.00  0.00    +0.030 A 
ATOM     15  C   UNL     1      -1.409  -1.412   0.000  0.00  0.00    +0.002 A 
ATOM     16  C   UNL     1      -0.584  -1.412   0.000  0.00  0.00    +0.003 A 
ENDBRANCH   9  10
BRANCH   5  17
ATOM     17  S   UNL     1       4.067   0.127   0.000  0.00  0.00    +0.094 S 
ATOM     18  N   UNL     1       3.654   0.842   0.000  0.00  0.00    +0.039 NA
ATOM     19  O   UNL     1       4.479  -0.587   0.000  0.00  0.00    -0.150 OA
ATOM     20  O   UNL     1       4.781   0.540   0.000  0.00  0.00    -0.150 OA
ENDBRANCH   5  17
BRANCH   1  21
ATOM     21  C   UNL     1       0.884  -2.150   0.000  0.00  0.00    +0.139 C 
BRANCH  21  22
ATOM     22  C   UNL     1       0.077  -2.321   0.000  0.00  0.00    +0.167 C 
BRANCH  22  24
ATOM     23  C   UNL     1      -0.985  -3.278   0.000  0.00  0.00    +0.174 C 
ATOM     24  O   UNL     1      -0.178  -3.106   0.000  0.00  0.00    -0.349 OA
ENDBRANCH  22  24
ENDBRANCH  21  22
ENDBRANCH   1  21
TORSDOF 5
