REMARK  Name = 
REMARK  8 active torsions:
REMARK  status: ('A' for Active; 'I' for Inactive)
REMARK    1  A    between atoms: N_1  and  C_2
REMARK    2  A    between atoms: C_4  and  O_12
REMARK    3  A    between atoms: C_9  and  O_13
REMARK    4  A    between atoms: C_11  and  C_19
REMARK    5  A    between atoms: O_12  and  C_15
REMARK    6  A    between atoms: O_13  and  C_16
REMARK    7  A    between atoms: C_17  and  O_21
REMARK    8  A    between atoms: C_19  and  O_21
REMARK                            x       y       z     vdW  Elec       q    Type
REMARK                         _______ _______ _______ _____ _____    ______ ____
ROOT
ATOM      1  C   UNL     1       1.125  -2.504   0.000  0.00  0.00    +0.253 C 
ATOM      2  O   UNL     1       1.379  -1.721   0.000  0.00  0.00    -0.327 OA
ATOM      3  C   UNL     1       0.713  -1.238   0.000  0.00  0.00    +0.204 C 
ATOM      4  C   UNL     1       0.046  -1.721   0.000  0.00  0.00    +0.244 C 
ATOM      5  C   UNL     1       0.300  -2.504   0.000  0.00  0.00    +0.260 C 
ENDROOT
BRANCH   1   6
ATOM      6  N   UNL     1       1.608  -3.171   0.000  0.00  0.00    -0.250 N 
ATOM      7  C   UNL     1       2.429  -3.087   0.000  0.00  0.00    +0.117 A 
ATOM      8  C   UNL     1       2.917  -3.754   0.000  0.00  0.00    +0.215 A 
ATOM      9  C   UNL     1       2.579  -4.508   0.000  0.00  0.00    +0.312 A 
ATOM     10  O   UNL     1       3.067  -5.175   0.000  0.00  0.00    -0.263 OA
ATOM     11  N   UNL     1       1.758  -4.592   0.000  0.00  0.00    -0.151 NA
ATOM     12  F   UNL     1       3.737  -3.667   0.000  0.00  0.00    -0.197 F 
ATOM     13  C   UNL     1       1.275  -3.925   0.000  0.00  0.00    +0.355 A 
ATOM     14  O   UNL     1       0.454  -4.013   0.000  0.00  0.00    -0.244 OA
ENDBRANCH   1   6
BRANCH   4  15
ATOM     15  O   UNL     1      -0.742  -1.467   0.000  0.00  0.00    -0.446 OA
BRANCH  15  16
ATOM     16  C   UNL     1      -0.912  -0.658   0.000  0.00  0.00    +0.318 C 
ATOM     17  C   UNL     1      -0.300  -0.108   0.000  0.00  0.00    +0.121 C 
ATOM     18  O   UNL     1      -1.696  -0.404   0.000  0.00  0.00    -0.250 OA
ENDBRANCH  15  16
ENDBRANCH   4  15
BRANCH   5  19
ATOM     19  O   UNL     1      -0.183  -3.171   0.000  0.00  0.00    -0.444 OA
BRANCH  19  20
ATOM     20  C   UNL     1      -1.004  -3.087   0.000  0.00  0.00    +0.318 C 
ATOM     21  C   UNL     1      -1.342  -2.333   0.000  0.00  0.00    +0.121 C 
ATOM     22  O   UNL     1      -1.492  -3.754   0.000  0.00  0.00    -0.250 OA
ENDBRANCH  19  20
ENDBRANCH   5  19
BRANCH   3  23
ATOM     23  C   UNL     1       0.713  -0.412   0.000  0.00  0.00    +0.242 C 
BRANCH  23  24
ATOM     24  O   UNL     1       1.425   0.000   0.000  0.00  0.00    -0.446 OA
BRANCH  24  25
ATOM     25  C   UNL     1       2.142  -0.412   0.000  0.00  0.00    +0.318 C 
ATOM     26  C   UNL     1       2.854   0.000   0.000  0.00  0.00    +0.121 C 
ATOM     27  O   UNL     1       2.142  -1.238   0.000  0.00  0.00    -0.250 OA
ENDBRANCH  24  25
ENDBRANCH  23  24
ENDBRANCH   3  23
TORSDOF 8
