REMARK  Name = 
REMARK  4 active torsions:
REMARK  status: ('A' for Active; 'I' for Inactive)
REMARK    1  A    between atoms: C_2  and  C_4
REMARK    2  A    between atoms: C_4  and  N_5
REMARK    3  A    between atoms: C_9  and  C_10
REMARK    4  A    between atoms: C_10  and  N_11
REMARK                            x       y       z     vdW  Elec       q    Type
REMARK                         _______ _______ _______ _____ _____    ______ ____
ROOT
ATOM      1  C   UNL     1       1.429   1.650   0.000  0.00  0.00    +0.148 C 
ENDROOT
BRANCH   1   2
ATOM      2  N   UNL     1       2.143   2.062   0.000  0.00  0.00    -0.184 NA
ATOM      3  C   UNL     1       2.858   1.650   0.000  0.00  0.00    +0.345 C 
ATOM      4  N   UNL     1       3.572   2.062   0.000  0.00  0.00    -0.139 NA
ATOM      5  C   UNL     1       4.287   1.650   0.000  0.00  0.00    +0.197 A 
ATOM      6  N   UNL     1       4.373   0.830   0.000  0.00  0.00    -0.060 NA
ATOM      7  O   UNL     1       5.180   0.658   0.000  0.00  0.00    -0.356 OA
ATOM      8  C   UNL     1       5.593   1.373   0.000  0.00  0.00    +0.156 A 
ATOM      9  C   UNL     1       6.413   1.459   0.000  0.00  0.00    +0.075 C 
ATOM     10  C   UNL     1       5.040   1.986   0.000  0.00  0.00    +0.075 A 
ATOM     11  O   UNL     1       2.858   0.825   0.000  0.00  0.00    -0.249 OA
ENDBRANCH   1   2
BRANCH   1  14
ATOM     12  N   UNL     1      -0.715   2.062   0.000  0.00  0.00    -0.268 NA
ATOM     13  C   UNL     1       0.000   1.650   0.000  0.00  0.00    +0.104 C 
ATOM     14  C   UNL     1       0.715   2.062   0.000  0.00  0.00    +0.153 C 
ATOM     15  O   UNL     1       0.715   2.888   0.000  0.00  0.00    -0.352 OA
ATOM     16  C   UNL     1       0.000   3.300   0.000  0.00  0.00    +0.159 C 
ATOM     17  C   UNL     1      -0.715   2.888   0.000  0.00  0.00    +0.105 C 
BRANCH  12  18
ATOM     18  C   UNL     1      -1.429   1.650   0.000  0.00  0.00    +0.072 C 
BRANCH  18  20
ATOM     19  C   UNL     1      -2.858   1.650   0.000  0.00  0.00    +0.001 C 
ATOM     20  C   UNL     1      -2.143   2.062   0.000  0.00  0.00    +0.016 C 
ATOM     21  C   UNL     1      -2.143   2.888   0.000  0.00  0.00    +0.001 C 
ENDBRANCH  18  20
ENDBRANCH  12  18
ENDBRANCH   1  14
TORSDOF 4
