REMARK  Name = 
REMARK  3 active torsions:
REMARK  status: ('A' for Active; 'I' for Inactive)
REMARK    1  A    between atoms: C_3  and  C_5
REMARK    2  A    between atoms: C_5  and  N_6
REMARK    3  A    between atoms: C_9  and  N_12
REMARK                            x       y       z     vdW  Elec       q    Type
REMARK                         _______ _______ _______ _____ _____    ______ ____
ROOT
ATOM      1  N   UNL     1      -0.107   8.065   0.000  0.00  0.00    -0.265 NA
ATOM      2  C   UNL     1      -0.107   7.240   0.000  0.00  0.00    +0.074 C 
ATOM      3  C   UNL     1       0.608   6.828   0.000  0.00  0.00    +0.039 C 
ATOM      4  C   UNL     1       1.322   7.240   0.000  0.00  0.00    +0.100 C 
ATOM      5  C   UNL     1       1.322   8.065   0.000  0.00  0.00    +0.039 C 
ATOM      6  C   UNL     1       0.608   8.478   0.000  0.00  0.00    +0.074 C 
ENDROOT
BRANCH   4   7
ATOM      7  N   UNL     1       2.037   6.828   0.000  0.00  0.00    -0.189 NA
ATOM      8  C   UNL     1       2.037   6.003   0.000  0.00  0.00    +0.345 C 
ATOM      9  N   UNL     1       2.751   5.590   0.000  0.00  0.00    -0.136 NA
ATOM     10  C   UNL     1       2.751   4.765   0.000  0.00  0.00    +0.187 A 
ATOM     11  S   UNL     1       2.084   4.280   0.000  0.00  0.00    -0.049 S 
ATOM     12  C   UNL     1       2.339   3.496   0.000  0.00  0.00    +0.059 A 
ATOM     13  C   UNL     1       3.164   3.496   0.000  0.00  0.00    +0.108 A 
ATOM     14  N   UNL     1       3.419   4.280   0.000  0.00  0.00    -0.221 NA
ATOM     15  O   UNL     1       1.322   5.590   0.000  0.00  0.00    -0.249 OA
ENDBRANCH   4   7
BRANCH   1  16
ATOM     16  C   UNL     1      -0.821   8.478   0.000  0.00  0.00    +0.160 C 
BRANCH  16  19
ATOM     17  C   UNL     1      -2.965   8.065   0.000  0.00  0.00    +0.139 C 
ATOM     18  N   UNL     1      -2.250   8.478   0.000  0.00  0.00    -0.202 NA
ATOM     19  C   UNL     1      -1.536   8.065   0.000  0.00  0.00    +0.258 C 
ATOM     20  O   UNL     1      -1.536   7.240   0.000  0.00  0.00    -0.272 OA
ENDBRANCH  16  19
ENDBRANCH   1  16
TORSDOF 3
