REMARK  Name = 
REMARK  6 active torsions:
REMARK  status: ('A' for Active; 'I' for Inactive)
REMARK    1  A    between atoms: C_2  and  C_4
REMARK    2  A    between atoms: C_4  and  N_5
REMARK    3  A    between atoms: C_9  and  C_10
REMARK    4  A    between atoms: C_10  and  N_11
REMARK    5  A    between atoms: C_12  and  C_14
REMARK    6  A    between atoms: C_14  and  N_16
REMARK                            x       y       z     vdW  Elec       q    Type
REMARK                         _______ _______ _______ _____ _____    ______ ____
ROOT
ATOM      1  C   UNL     1       1.429   1.650   0.000  0.00  0.00    +0.146 C 
ENDROOT
BRANCH   1   4
ATOM      2  N   UNL     1      -0.715   2.062   0.000  0.00  0.00    -0.268 NA
ATOM      3  C   UNL     1       0.000   1.650   0.000  0.00  0.00    +0.104 C 
ATOM      4  C   UNL     1       0.715   2.062   0.000  0.00  0.00    +0.153 C 
ATOM      5  O   UNL     1       0.715   2.888   0.000  0.00  0.00    -0.352 OA
ATOM      6  C   UNL     1       0.000   3.300   0.000  0.00  0.00    +0.159 C 
ATOM      7  C   UNL     1      -0.715   2.888   0.000  0.00  0.00    +0.105 C 
BRANCH   2   8
ATOM      8  C   UNL     1      -1.429   1.650   0.000  0.00  0.00    +0.072 C 
BRANCH   8  10
ATOM      9  C   UNL     1      -2.858   1.650   0.000  0.00  0.00    +0.001 C 
ATOM     10  C   UNL     1      -2.143   2.062   0.000  0.00  0.00    +0.016 C 
ATOM     11  C   UNL     1      -2.143   2.888   0.000  0.00  0.00    +0.001 C 
ENDBRANCH   8  10
ENDBRANCH   2   8
ENDBRANCH   1   4
BRANCH   1  12
ATOM     12  N   UNL     1       2.143   2.062   0.000  0.00  0.00    -0.201 NA
ATOM     13  C   UNL     1       2.858   1.650   0.000  0.00  0.00    +0.264 C 
ATOM     14  O   UNL     1       2.858   0.825   0.000  0.00  0.00    -0.271 OA
BRANCH  13  15
ATOM     15  C   UNL     1       3.572   2.062   0.000  0.00  0.00    +0.184 C 
ATOM     16  C   UNL     1       3.572   2.888   0.000  0.00  0.00    +0.036 C 
BRANCH  15  17
ATOM     17  N   UNL     1       4.287   1.650   0.000  0.00  0.00    -0.223 N 
ATOM     18  N   UNL     1       4.373   0.830   0.000  0.00  0.00    -0.145 NA
ATOM     19  C   UNL     1       5.180   0.658   0.000  0.00  0.00    +0.221 A 
ATOM     20  N   UNL     1       5.593   1.373   0.000  0.00  0.00    -0.201 NA
ATOM     21  C   UNL     1       5.040   1.986   0.000  0.00  0.00    +0.198 A 
ENDBRANCH  15  17
ENDBRANCH  13  15
ENDBRANCH   1  12
TORSDOF 6
