REMARK  Name = 
REMARK  6 active torsions:
REMARK  status: ('A' for Active; 'I' for Inactive)
REMARK    1  A    between atoms: C_2  and  C_5
REMARK    2  A    between atoms: C_8  and  C_9
REMARK    3  A    between atoms: C_9  and  C_10
REMARK    4  A    between atoms: C_10  and  N_11
REMARK    5  A    between atoms: C_12  and  C_14
REMARK    6  A    between atoms: C_14  and  C_15
REMARK                            x       y       z     vdW  Elec       q    Type
REMARK                         _______ _______ _______ _____ _____    ______ ____
ROOT
ATOM      1  C   UNL     1       3.163  -2.952   0.000  0.00  0.00    +0.076 C 
ENDROOT
BRANCH   1   4
ATOM      2  C   UNL     1       1.556  -4.356   0.000  0.00  0.00    +0.065 A 
ATOM      3  N   UNL     1       2.363  -4.185   0.000  0.00  0.00    -0.247 NA
ATOM      4  C   UNL     1       2.449  -3.364   0.000  0.00  0.00    +0.090 A 
ATOM      5  S   UNL     1       1.695  -3.029   0.000  0.00  0.00    -0.071 S 
ATOM      6  C   UNL     1       1.143  -3.642   0.000  0.00  0.00    +0.051 A 
BRANCH   2   8
ATOM      7  C   UNL     1       0.885  -5.864   0.000  0.00  0.00    +0.006 C 
ATOM      8  C   UNL     1       1.220  -5.110   0.000  0.00  0.00    +0.036 C 
ATOM      9  C   UNL     1       0.467  -4.774   0.000  0.00  0.00    +0.006 C 
ATOM     10  C   UNL     1       1.974  -5.446   0.000  0.00  0.00    +0.006 C 
ENDBRANCH   2   8
ENDBRANCH   1   4
BRANCH   1  11
ATOM     11  C   UNL     1       3.878  -3.364   0.000  0.00  0.00    +0.122 C 
BRANCH  11  12
ATOM     12  N   UNL     1       4.592  -2.952   0.000  0.00  0.00    -0.205 NA
ATOM     13  C   UNL     1       5.307  -3.364   0.000  0.00  0.00    +0.242 C 
ATOM     14  O   UNL     1       5.307  -4.189   0.000  0.00  0.00    -0.273 OA
BRANCH  13  15
ATOM     15  C   UNL     1       6.021  -2.952   0.000  0.00  0.00    +0.091 C 
BRANCH  15  16
ATOM     16  C   UNL     1       6.736  -3.364   0.000  0.00  0.00    +0.031 C 
ATOM     17  C   UNL     1       6.822  -4.185   0.000  0.00  0.00    -0.031 C 
ATOM     18  C   UNL     1       7.629  -4.356   0.000  0.00  0.00    -0.031 C 
ATOM     19  C   UNL     1       8.041  -3.642   0.000  0.00  0.00    +0.026 C 
ATOM     20  C   UNL     1       7.489  -3.029   0.000  0.00  0.00    +0.009 C 
ENDBRANCH  15  16
ENDBRANCH  13  15
ENDBRANCH  11  12
ENDBRANCH   1  11
TORSDOF 6
