REMARK  Name = 
REMARK  5 active torsions:
REMARK  status: ('A' for Active; 'I' for Inactive)
REMARK    1  A    between atoms: S_2  and  N_5
REMARK    2  A    between atoms: C_8  and  N_11
REMARK    3  A    between atoms: N_14  and  C_15
REMARK    4  A    between atoms: C_15  and  C_16
REMARK    5  A    between atoms: C_16  and  C_17
REMARK                            x       y       z     vdW  Elec       q    Type
REMARK                         _______ _______ _______ _____ _____    ______ ____
ROOT
ATOM      1  N   UNL     1       2.143  -3.712   0.000  0.00  0.00    -0.189 NA
ATOM      2  C   UNL     1       2.858  -4.125   0.000  0.00  0.00    +0.339 C 
ATOM      3  N   UNL     1       3.572  -3.712   0.000  0.00  0.00    -0.187 NA
ATOM      4  O   UNL     1       2.858  -4.950   0.000  0.00  0.00    -0.249 OA
ENDROOT
BRANCH   1   8
ATOM      5  N   UNL     1       0.000  -4.950   0.000  0.00  0.00    -0.159 NA
ATOM      6  C   UNL     1       0.715  -5.362   0.000  0.00  0.00    +0.097 C 
ATOM      7  C   UNL     1       1.429  -4.950   0.000  0.00  0.00    +0.041 C 
ATOM      8  C   UNL     1       1.429  -4.125   0.000  0.00  0.00    +0.100 C 
ATOM      9  C   UNL     1       0.715  -3.712   0.000  0.00  0.00    +0.041 C 
ATOM     10  C   UNL     1       0.000  -4.125   0.000  0.00  0.00    +0.097 C 
BRANCH   5  12
ATOM     11  C   UNL     1      -1.429  -5.775   0.000  0.00  0.00    +0.196 C 
ATOM     12  S   UNL     1      -0.715  -5.362   0.000  0.00  0.00    +0.046 S 
ATOM     13  O   UNL     1      -1.127  -4.648   0.000  0.00  0.00    -0.157 OA
ATOM     14  O   UNL     1      -0.302  -6.077   0.000  0.00  0.00    -0.157 OA
ENDBRANCH   5  12
ENDBRANCH   1   8
BRANCH   3  15
ATOM     15  C   UNL     1       4.287  -4.125   0.000  0.00  0.00    +0.122 C 
BRANCH  15  16
ATOM     16  C   UNL     1       5.001  -3.712   0.000  0.00  0.00    +0.051 C 
BRANCH  16  17
ATOM     17  C   UNL     1       5.716  -4.125   0.000  0.00  0.00    -0.001 A 
ATOM     18  C   UNL     1       5.716  -4.950   0.000  0.00  0.00    +0.095 A 
ATOM     19  N   UNL     1       6.430  -5.362   0.000  0.00  0.00    -0.243 NA
ATOM     20  C   UNL     1       7.145  -4.950   0.000  0.00  0.00    +0.099 A 
ATOM     21  C   UNL     1       7.145  -4.125   0.000  0.00  0.00    +0.020 A 
ATOM     22  C   UNL     1       6.430  -3.712   0.000  0.00  0.00    -0.001 A 
ENDBRANCH  16  17
ENDBRANCH  15  16
ENDBRANCH   3  15
TORSDOF 5
