REMARK  Name = 
REMARK  2 active torsions:
REMARK  status: ('A' for Active; 'I' for Inactive)
REMARK    1  A    between atoms: C_3  and  C_5
REMARK    2  A    between atoms: C_5  and  C_8
REMARK                            x       y       z     vdW  Elec       q    Type
REMARK                         _______ _______ _______ _____ _____    ______ ____
ROOT
ATOM      1 CL   UNL     1       0.000   0.000   0.000  0.00  0.00    +0.000 Cl
ENDROOT
TORSDOF 0
REMARK  Name = 
REMARK  2 active torsions:
REMARK  status: ('A' for Active; 'I' for Inactive)
REMARK    1  A    between atoms: C_3  and  C_5
REMARK    2  A    between atoms: C_5  and  C_8
REMARK                            x       y       z     vdW  Elec       q    Type
REMARK                         _______ _______ _______ _____ _____    ______ ____
ROOT
ATOM      1  C   UNL     1       3.293  -0.588   0.000  0.00  0.00    +0.114 C 
ATOM      2  C   UNL     1       2.880  -1.302   0.000  0.00  0.00    +0.016 C 
ATOM      3  C   UNL     1       3.705  -1.302   0.000  0.00  0.00    +0.016 C 
ENDROOT
BRANCH   1   4
ATOM      4  C   UNL     1       3.925  -0.058   0.000  0.00  0.00    +0.007 A 
ATOM      5  C   UNL     1       4.700  -0.340   0.000  0.00  0.00    +0.095 A 
ATOM      6  N   UNL     1       5.332   0.190   0.000  0.00  0.00    -0.243 NA
ATOM      7  C   UNL     1       5.189   1.003   0.000  0.00  0.00    +0.099 A 
ATOM      8  C   UNL     1       4.414   1.285   0.000  0.00  0.00    +0.020 A 
ATOM      9  C   UNL     1       3.782   0.755   0.000  0.00  0.00    -0.001 A 
ENDBRANCH   1   4
BRANCH   1  11
ATOM     10  O   UNL     1       1.886  -0.340   0.000  0.00  0.00    -0.245 OA
ATOM     11  C   UNL     1       2.661  -0.058   0.000  0.00  0.00    +0.368 C 
ATOM     12  O   UNL     1       2.804   0.755   0.000  0.00  0.00    -0.245 OA
ENDBRANCH   1  11
TORSDOF 2
