REMARK  Name = 
REMARK  4 active torsions:
REMARK  status: ('A' for Active; 'I' for Inactive)
REMARK    1  A    between atoms: C_7  and  N_8
REMARK    2  A    between atoms: C_9  and  C_11
REMARK    3  A    between atoms: C_11  and  O_12
REMARK    4  A    between atoms: O_12  and  C_13
REMARK                            x       y       z     vdW  Elec       q    Type
REMARK                         _______ _______ _______ _____ _____    ______ ____
ROOT
ATOM      1  N   UNL     1       0.715  -2.888   0.000  0.00  0.00    -0.175 NA
ATOM      2  C   UNL     1       1.429  -2.475   0.000  0.00  0.00    +0.276 C 
ATOM      3  O   UNL     1       1.429  -1.650   0.000  0.00  0.00    -0.270 OA
ENDROOT
BRANCH   1   6
ATOM      4  F   UNL     1      -0.715  -3.712   0.000  0.00  0.00    -0.201 F 
ATOM      5  C   UNL     1      -0.715  -2.888   0.000  0.00  0.00    +0.174 A 
ATOM      6  C   UNL     1       0.000  -2.475   0.000  0.00  0.00    +0.104 A 
ATOM      7  C   UNL     1       0.000  -1.650   0.000  0.00  0.00    +0.040 A 
ATOM      8  C   UNL     1      -0.715  -1.238   0.000  0.00  0.00    +0.100 A 
ATOM      9  N   UNL     1      -1.429  -1.650   0.000  0.00  0.00    -0.240 NA
ATOM     10  C   UNL     1      -1.429  -2.475   0.000  0.00  0.00    +0.130 A 
ENDBRANCH   1   6
BRANCH   2  11
ATOM     11  C   UNL     1       2.143  -2.888   0.000  0.00  0.00    +0.229 C 
BRANCH  11  12
ATOM     12  O   UNL     1       2.858  -2.475   0.000  0.00  0.00    -0.347 OA
BRANCH  12  13
ATOM     13  C   UNL     1       3.572  -2.888   0.000  0.00  0.00    +0.116 C 
ATOM     14  C   UNL     1       3.572  -3.712   0.000  0.00  0.00    +0.030 C 
ATOM     15  C   UNL     1       4.287  -4.125   0.000  0.00  0.00    +0.002 C 
ATOM     16  C   UNL     1       5.001  -3.712   0.000  0.00  0.00    +0.000 C 
ATOM     17  C   UNL     1       5.001  -2.888   0.000  0.00  0.00    +0.002 C 
ATOM     18  C   UNL     1       4.287  -2.475   0.000  0.00  0.00    +0.030 C 
ENDBRANCH  12  13
ENDBRANCH  11  12
ENDBRANCH   2  11
TORSDOF 4
