REMARK  Name = 
REMARK  2 active torsions:
REMARK  status: ('A' for Active; 'I' for Inactive)
REMARK    1  A    between atoms: C_2  and  C_4
REMARK    2  A    between atoms: C_4  and  N_5
REMARK                            x       y       z     vdW  Elec       q    Type
REMARK                         _______ _______ _______ _____ _____    ______ ____
ROOT
ATOM      1  N   UNL     1       0.568   1.114   0.000  0.00  0.00    -0.238 N 
ATOM      2  N   UNL     1      -0.100   0.629   0.000  0.00  0.00    -0.166 NA
ATOM      3  C   UNL     1       0.155  -0.155   0.000  0.00  0.00    +0.140 A 
ATOM      4  C   UNL     1       0.980  -0.155   0.000  0.00  0.00    +0.129 A 
ATOM      5  N   UNL     1       1.465  -0.823   0.000  0.00  0.00    -0.125 NA
ATOM      6  C   UNL     1       1.235   0.629   0.000  0.00  0.00    +0.115 A 
ENDROOT
BRANCH   1   7
ATOM      7  C   UNL     1       0.568   1.939   0.000  0.00  0.00    +0.215 C 
BRANCH   7   9
ATOM      8  N   UNL     1      -0.147   3.177   0.000  0.00  0.00    -0.086 NA
ATOM      9  C   UNL     1      -0.147   2.352   0.000  0.00  0.00    +0.286 C 
ATOM     10  O   UNL     1      -0.861   1.939   0.000  0.00  0.00    -0.269 OA
ENDBRANCH   7   9
ENDBRANCH   1   7
TORSDOF 2
