REMARK  Name = 
REMARK  6 active torsions:
REMARK  status: ('A' for Active; 'I' for Inactive)
REMARK    1  A    between atoms: C_2  and  C_3
REMARK    2  A    between atoms: C_2  and  C_16
REMARK    3  A    between atoms: C_3  and  N_4
REMARK    4  A    between atoms: C_5  and  C_7
REMARK    5  A    between atoms: C_7  and  C_10
REMARK    6  A    between atoms: C_16  and  N_17
REMARK                            x       y       z     vdW  Elec       q    Type
REMARK                         _______ _______ _______ _____ _____    ______ ____
ROOT
ATOM      1  N   UNL     1       5.001  -2.062   0.000  0.00  0.00    -0.205 NA
ATOM      2  C   UNL     1       4.287  -2.475   0.000  0.00  0.00    +0.244 C 
ATOM      3  O   UNL     1       3.572  -2.062   0.000  0.00  0.00    -0.273 OA
ENDROOT
BRANCH   2   4
ATOM      4  C   UNL     1       4.287  -3.300   0.000  0.00  0.00    +0.091 C 
ATOM      5  C   UNL     1       3.462  -3.300   0.000  0.00  0.00    +0.014 C 
ATOM      6  C   UNL     1       5.112  -3.300   0.000  0.00  0.00    +0.014 C 
BRANCH   4   7
ATOM      7  C   UNL     1       4.287  -4.125   0.000  0.00  0.00    +0.005 A 
ATOM      8  C   UNL     1       3.572  -4.537   0.000  0.00  0.00    +0.095 A 
ATOM      9  N   UNL     1       3.572  -5.362   0.000  0.00  0.00    -0.243 NA
ATOM     10  C   UNL     1       4.287  -5.775   0.000  0.00  0.00    +0.099 A 
ATOM     11  C   UNL     1       5.001  -5.362   0.000  0.00  0.00    +0.020 A 
ATOM     12  C   UNL     1       5.001  -4.537   0.000  0.00  0.00    -0.001 A 
ENDBRANCH   4   7
ENDBRANCH   2   4
BRANCH   1  13
ATOM     13  C   UNL     1       5.001  -1.238   0.000  0.00  0.00    +0.116 C 
BRANCH  13  15
ATOM     14  C   UNL     1       6.430  -1.238   0.000  0.00  0.00    +0.003 C 
ATOM     15  C   UNL     1       5.716  -0.825   0.000  0.00  0.00    +0.038 C 
BRANCH  15  16
ATOM     16  C   UNL     1       5.716   0.000   0.000  0.00  0.00    +0.074 C 
BRANCH  16  17
ATOM     17  N   UNL     1       6.430   0.412   0.000  0.00  0.00    -0.268 NA
ATOM     18  C   UNL     1       7.145   0.000   0.000  0.00  0.00    +0.105 C 
ATOM     19  C   UNL     1       7.859   0.412   0.000  0.00  0.00    +0.159 C 
ATOM     20  O   UNL     1       7.859   1.238   0.000  0.00  0.00    -0.351 OA
ATOM     21  C   UNL     1       7.145   1.650   0.000  0.00  0.00    +0.159 C 
ATOM     22  C   UNL     1       6.430   1.238   0.000  0.00  0.00    +0.105 C 
ENDBRANCH  16  17
ENDBRANCH  15  16
ENDBRANCH  13  15
ENDBRANCH   1  13
TORSDOF 6
