REMARK  Name = 
REMARK  4 active torsions:
REMARK  status: ('A' for Active; 'I' for Inactive)
REMARK    1  A    between atoms: N_6  and  C_7
REMARK    2  A    between atoms: C_7  and  C_8
REMARK    3  A    between atoms: C_8  and  N_9
REMARK    4  A    between atoms: N_12  and  C_13
REMARK                            x       y       z     vdW  Elec       q    Type
REMARK                         _______ _______ _______ _____ _____    ______ ____
ROOT
ATOM      1  N   UNL     1       3.572   1.238   0.000  0.00  0.00    -0.185 NA
ATOM      2  C   UNL     1       4.287   0.825   0.000  0.00  0.00    +0.345 C 
ATOM      3  N   UNL     1       5.001   1.238   0.000  0.00  0.00    -0.142 NA
ATOM      4  O   UNL     1       4.287   0.000   0.000  0.00  0.00    -0.249 OA
ENDROOT
BRANCH   3   5
ATOM      5  C   UNL     1       5.716   0.825   0.000  0.00  0.00    +0.154 A 
ATOM      6  N   UNL     1       5.802   0.004   0.000  0.00  0.00    -0.234 N 
ATOM      7  C   UNL     1       5.189  -0.547   0.000  0.00  0.00    +0.155 C 
ATOM      8  N   UNL     1       6.609  -0.167   0.000  0.00  0.00    -0.172 NA
ATOM      9  C   UNL     1       7.021   0.547   0.000  0.00  0.00    +0.082 A 
ATOM     10  C   UNL     1       7.842   0.634   0.000  0.00  0.00    +0.054 C 
ATOM     11  C   UNL     1       6.469   1.161   0.000  0.00  0.00    +0.052 A 
ENDBRANCH   3   5
BRANCH   1  12
ATOM     12  C   UNL     1       2.858   0.825   0.000  0.00  0.00    +0.134 C 
BRANCH  12  13
ATOM     13  C   UNL     1       2.143   1.238   0.000  0.00  0.00    +0.096 C 
BRANCH  13  17
ATOM     14  C   UNL     1       0.715  -1.238   0.000  0.00  0.00    +0.001 C 
ATOM     15  C   UNL     1       0.715  -0.412   0.000  0.00  0.00    +0.016 C 
ATOM     16  C   UNL     1       1.429   0.000   0.000  0.00  0.00    +0.072 C 
ATOM     17  N   UNL     1       1.429   0.825   0.000  0.00  0.00    -0.271 NA
ATOM     18  C   UNL     1       0.715   1.238   0.000  0.00  0.00    +0.072 C 
ATOM     19  C   UNL     1       0.000   0.825   0.000  0.00  0.00    +0.017 C 
ATOM     20  C   UNL     1       0.000   0.000   0.000  0.00  0.00    +0.003 C 
ENDBRANCH  13  17
ENDBRANCH  12  13
ENDBRANCH   1  12
TORSDOF 4
