REMARK  Name = 
REMARK  5 active torsions:
REMARK  status: ('A' for Active; 'I' for Inactive)
REMARK    1  A    between atoms: N_3  and  C_4
REMARK    2  A    between atoms: C_4  and  C_5
REMARK    3  A    between atoms: C_5  and  N_6
REMARK    4  A    between atoms: C_12  and  C_14
REMARK    5  A    between atoms: N_18  and  C_19
REMARK                            x       y       z     vdW  Elec       q    Type
REMARK                         _______ _______ _______ _____ _____    ______ ____
ROOT
ATOM      1  C   UNL     1       2.143  -3.712   0.000  0.00  0.00    +0.096 C 
ENDROOT
BRANCH   1   2
ATOM      2  N   UNL     1       1.429  -4.125   0.000  0.00  0.00    -0.268 NA
ATOM      3  C   UNL     1       0.715  -3.712   0.000  0.00  0.00    +0.094 C 
ATOM      4  C   UNL     1       0.000  -4.125   0.000  0.00  0.00    +0.111 C 
ATOM      5  N   UNL     1       0.000  -4.950   0.000  0.00  0.00    -0.277 N 
ATOM      6  C   UNL     1      -0.715  -5.362   0.000  0.00  0.00    +0.225 C 
ATOM      7  O   UNL     1      -0.715  -6.188   0.000  0.00  0.00    -0.275 OA
ATOM      8  C   UNL     1       0.715  -5.362   0.000  0.00  0.00    +0.111 C 
ATOM      9  C   UNL     1       1.429  -4.950   0.000  0.00  0.00    +0.094 C 
BRANCH   6  10
ATOM     10  C   UNL     1      -1.429  -4.950   0.000  0.00  0.00    +0.077 C 
ATOM     11  C   UNL     1      -1.643  -4.153   0.000  0.00  0.00    +0.009 C 
ATOM     12  C   UNL     1      -2.439  -4.367   0.000  0.00  0.00    +0.001 C 
ATOM     13  C   UNL     1      -2.226  -5.163   0.000  0.00  0.00    +0.009 C 
ENDBRANCH   6  10
ENDBRANCH   1   2
BRANCH   1  14
ATOM     14  C   UNL     1       2.858  -4.125   0.000  0.00  0.00    +0.134 C 
BRANCH  14  18
ATOM     15  O   UNL     1       4.287  -4.950   0.000  0.00  0.00    -0.249 OA
ATOM     16  C   UNL     1       4.287  -4.125   0.000  0.00  0.00    +0.344 C 
ATOM     17  N   UNL     1       5.001  -3.712   0.000  0.00  0.00    -0.159 NA
ATOM     18  N   UNL     1       3.572  -3.712   0.000  0.00  0.00    -0.185 NA
BRANCH  17  19
ATOM     19  C   UNL     1       5.716  -4.125   0.000  0.00  0.00    +0.094 A 
ATOM     20  C   UNL     1       5.716  -4.950   0.000  0.00  0.00    +0.115 A 
ATOM     21  N   UNL     1       6.430  -5.362   0.000  0.00  0.00    -0.241 NA
ATOM     22  C   UNL     1       7.145  -4.950   0.000  0.00  0.00    +0.099 A 
ATOM     23  C   UNL     1       7.145  -4.125   0.000  0.00  0.00    +0.022 A 
ATOM     24  C   UNL     1       6.430  -3.712   0.000  0.00  0.00    +0.020 A 
ENDBRANCH  17  19
ENDBRANCH  14  18
ENDBRANCH   1  14
TORSDOF 5
