REMARK  Name = 
REMARK  8 active torsions:
REMARK  status: ('A' for Active; 'I' for Inactive)
REMARK    1  A    between atoms: C_2  and  C_3
REMARK    2  A    between atoms: C_2  and  N_9
REMARK    3  A    between atoms: C_3  and  N_4
REMARK    4  A    between atoms: N_9  and  C_10
REMARK    5  A    between atoms: C_10  and  C_11
REMARK    6  A    between atoms: N_13  and  C_14
REMARK    7  A    between atoms: C_14  and  C_15
REMARK    8  A    between atoms: C_15  and  C_16
REMARK                            x       y       z     vdW  Elec       q    Type
REMARK                         _______ _______ _______ _____ _____    ______ ____
ROOT
ATOM      1  N   UNL     1       2.469  -1.040   0.000  0.00  0.00    -0.208 NA
ENDROOT
BRANCH   1   3
ATOM      2  C   UNL     1       1.754  -2.277   0.000  0.00  0.00    +0.021 C 
ATOM      3  C   UNL     1       1.754  -1.452   0.000  0.00  0.00    +0.098 C 
BRANCH   3   4
ATOM      4  C   UNL     1       1.040  -1.040   0.000  0.00  0.00    +0.145 C 
BRANCH   4   5
ATOM      5  N   UNL     1       0.325  -1.452   0.000  0.00  0.00    -0.248 N 
ATOM      6  N   UNL     1      -0.429  -1.117   0.000  0.00  0.00    -0.168 NA
ATOM      7  C   UNL     1      -0.981  -1.730   0.000  0.00  0.00    +0.122 A 
ATOM      8  C   UNL     1      -0.568  -2.444   0.000  0.00  0.00    +0.043 A 
ATOM      9  C   UNL     1       0.239  -2.272   0.000  0.00  0.00    +0.097 A 
ENDBRANCH   4   5
ENDBRANCH   3   4
ENDBRANCH   1   3
BRANCH   1  10
ATOM     10  C   UNL     1       3.183  -1.452   0.000  0.00  0.00    +0.175 C 
BRANCH  10  11
ATOM     11  C   UNL     1       3.897  -1.040   0.000  0.00  0.00    +0.259 C 
ATOM     12  N   UNL     1       4.612  -1.452   0.000  0.00  0.00    -0.203 NA
ATOM     13  O   UNL     1       3.897  -0.215   0.000  0.00  0.00    -0.272 OA
BRANCH  12  14
ATOM     14  C   UNL     1       5.326  -1.040   0.000  0.00  0.00    +0.131 C 
BRANCH  14  15
ATOM     15  C   UNL     1       6.041  -1.452   0.000  0.00  0.00    +0.129 C 
BRANCH  15  16
ATOM     16  C   UNL     1       6.755  -1.040   0.000  0.00  0.00    +0.075 C 
ATOM     17  N   UNL     1       7.470  -0.627   0.000  0.00  0.00    -0.196 NA
ENDBRANCH  15  16
ENDBRANCH  14  15
ENDBRANCH  12  14
ENDBRANCH  10  11
ENDBRANCH   1  10
TORSDOF 8
