REMARK  Name = 
REMARK  4 active torsions:
REMARK  status: ('A' for Active; 'I' for Inactive)
REMARK    1  A    between atoms: N_4  and  C_5
REMARK    2  A    between atoms: N_13  and  C_14
REMARK    3  A    between atoms: C_14  and  C_15
REMARK    4  A    between atoms: C_15  and  C_16
REMARK                            x       y       z     vdW  Elec       q    Type
REMARK                         _______ _______ _______ _____ _____    ______ ____
ROOT
ATOM      1  C   UNL     1      -1.429  -2.475   0.000  0.00  0.00    +0.115 C 
ATOM      2  C   UNL     1      -0.715  -2.888   0.000  0.00  0.00    +0.117 C 
ATOM      3  N   UNL     1       0.000  -2.475   0.000  0.00  0.00    -0.261 N 
ATOM      4  C   UNL     1       0.715  -2.888   0.000  0.00  0.00    +0.323 C 
ATOM      5  N   UNL     1       1.429  -2.475   0.000  0.00  0.00    -0.188 NA
ATOM      6  O   UNL     1       0.715  -3.712   0.000  0.00  0.00    -0.251 OA
ATOM      7  C   UNL     1       0.000  -1.650   0.000  0.00  0.00    +0.095 C 
ATOM      8  C   UNL     1      -0.715  -1.238   0.000  0.00  0.00    +0.023 C 
ATOM      9  C   UNL     1      -1.429  -1.650   0.000  0.00  0.00    +0.025 C 
ENDROOT
BRANCH   1  12
ATOM     10  C   UNL     1      -3.572  -2.888   0.000  0.00  0.00    +0.096 C 
ATOM     11  C   UNL     1      -2.858  -2.475   0.000  0.00  0.00    +0.242 C 
ATOM     12  N   UNL     1      -2.143  -2.888   0.000  0.00  0.00    -0.205 NA
ATOM     13  O   UNL     1      -2.858  -1.650   0.000  0.00  0.00    -0.273 OA
ENDBRANCH   1  12
BRANCH   5  14
ATOM     14  C   UNL     1       2.143  -2.888   0.000  0.00  0.00    +0.123 C 
BRANCH  14  15
ATOM     15  C   UNL     1       2.858  -2.475   0.000  0.00  0.00    +0.069 C 
BRANCH  15  16
ATOM     16  C   UNL     1       3.572  -2.888   0.000  0.00  0.00    +0.061 A 
ATOM     17  N   UNL     1       3.572  -3.712   0.000  0.00  0.00    -0.248 NA
ATOM     18  C   UNL     1       4.287  -4.125   0.000  0.00  0.00    +0.098 A 
ATOM     19  C   UNL     1       5.001  -3.712   0.000  0.00  0.00    +0.021 A 
ATOM     20  C   UNL     1       5.001  -2.888   0.000  0.00  0.00    +0.003 A 
ATOM     21  C   UNL     1       4.287  -2.475   0.000  0.00  0.00    +0.015 A 
ENDBRANCH  15  16
ENDBRANCH  14  15
ENDBRANCH   5  14
TORSDOF 4
