REMARK  Name = 
REMARK  5 active torsions:
REMARK  status: ('A' for Active; 'I' for Inactive)
REMARK    1  A    between atoms: N_2  and  C_4
REMARK    2  A    between atoms: C_4  and  C_5
REMARK    3  A    between atoms: C_4  and  C_16
REMARK    4  A    between atoms: C_5  and  N_6
REMARK    5  A    between atoms: C_7  and  C_9
REMARK                            x       y       z     vdW  Elec       q    Type
REMARK                         _______ _______ _______ _____ _____    ______ ____
ROOT
ATOM      1  C   UNL     1       3.513  -3.717   0.000  0.00  0.00    +0.136 C 
ENDROOT
BRANCH   1   2
ATOM      2  N   UNL     1       3.926  -3.002   0.000  0.00  0.00    -0.200 NA
ATOM      3  C   UNL     1       4.751  -3.002   0.000  0.00  0.00    +0.261 C 
ATOM      4  O   UNL     1       5.163  -2.288   0.000  0.00  0.00    -0.269 OA
BRANCH   3   5
ATOM      5  C   UNL     1       5.163  -3.717   0.000  0.00  0.00    +0.029 C 
ATOM      6  C   UNL     1       4.699  -4.398   0.000  0.00  0.00    +0.031 C 
ATOM      7  C   UNL     1       4.942  -5.187   0.000  0.00  0.00    +0.005 C 
ATOM      8  C   UNL     1       5.710  -5.488   0.000  0.00  0.00    +0.001 C 
ATOM      9  C   UNL     1       6.424  -5.075   0.000  0.00  0.00    +0.005 C 
ATOM     10  C   UNL     1       6.547  -4.260   0.000  0.00  0.00    +0.026 C 
ATOM     11  C   UNL     1       5.986  -3.655   0.000  0.00  0.00    -0.026 C 
ENDBRANCH   3   5
ENDBRANCH   1   2
BRANCH   1  12
ATOM     12  C   UNL     1       2.688  -3.717   0.000  0.00  0.00    +0.105 C 
BRANCH  12  13
ATOM     13  C   UNL     1       2.276  -4.431   0.000  0.00  0.00    +0.034 A 
ATOM     14  C   UNL     1       1.455  -4.517   0.000  0.00  0.00    +0.094 A 
ATOM     15  N   UNL     1       1.284  -5.324   0.000  0.00  0.00    -0.248 N 
ATOM     16  C   UNL     1       0.530  -5.660   0.000  0.00  0.00    +0.154 C 
ATOM     17  N   UNL     1       1.998  -5.737   0.000  0.00  0.00    -0.168 NA
ATOM     18  C   UNL     1       2.611  -5.185   0.000  0.00  0.00    +0.119 A 
ENDBRANCH  12  13
BRANCH  12  20
ATOM     19  C   UNL     1       1.451  -3.002   0.000  0.00  0.00    +0.090 C 
ATOM     20  N   UNL     1       2.276  -3.002   0.000  0.00  0.00    -0.266 NA
ATOM     21  C   UNL     1       2.688  -2.288   0.000  0.00  0.00    +0.090 C 
ENDBRANCH  12  20
ENDBRANCH   1  12
TORSDOF 5
