REMARK  Name = 
REMARK  2 active torsions:
REMARK  status: ('A' for Active; 'I' for Inactive)
REMARK    1  A    between atoms: C_6  and  N_7
REMARK    2  A    between atoms: C_8  and  C_10
REMARK                            x       y       z     vdW  Elec       q    Type
REMARK                         _______ _______ _______ _____ _____    ______ ____
ROOT
ATOM      1 CL   UNL     1       1.322   7.240   0.000  0.00  0.00    -0.080 Cl
ATOM      2  C   UNL     1       2.037   6.828   0.000  0.00  0.00    +0.089 A 
ATOM      3  C   UNL     1       2.037   6.003   0.000  0.00  0.00    +0.087 A 
ATOM      4 CL   UNL     1       1.322   5.590   0.000  0.00  0.00    -0.080 Cl
ATOM      5  C   UNL     1       2.751   5.590   0.000  0.00  0.00    +0.104 A 
ATOM      6  C   UNL     1       3.466   6.003   0.000  0.00  0.00    +0.116 A 
ATOM      7  N   UNL     1       3.466   6.828   0.000  0.00  0.00    -0.240 NA
ATOM      8  C   UNL     1       2.751   7.240   0.000  0.00  0.00    +0.111 A 
ENDROOT
BRANCH   5   9
ATOM      9  N   UNL     1       2.751   4.765   0.000  0.00  0.00    -0.175 NA
ATOM     10  C   UNL     1       3.466   4.353   0.000  0.00  0.00    +0.273 C 
ATOM     11  O   UNL     1       4.180   4.765   0.000  0.00  0.00    -0.270 OA
BRANCH  10  12
ATOM     12  C   UNL     1       3.466   3.528   0.000  0.00  0.00    +0.193 C 
ATOM     13  O   UNL     1       2.798   3.043   0.000  0.00  0.00    -0.347 OA
ATOM     14  C   UNL     1       3.053   2.258   0.000  0.00  0.00    +0.143 C 
ATOM     15  C   UNL     1       3.878   2.258   0.000  0.00  0.00    +0.035 C 
ATOM     16  C   UNL     1       4.133   3.043   0.000  0.00  0.00    +0.042 C 
ENDBRANCH  10  12
ENDBRANCH   5   9
TORSDOF 2
