REMARK  Name = 
REMARK  3 active torsions:
REMARK  status: ('A' for Active; 'I' for Inactive)
REMARK    1  A    between atoms: N_3  and  C_4
REMARK    2  A    between atoms: C_4  and  C_5
REMARK    3  A    between atoms: C_5  and  C_6
REMARK                            x       y       z     vdW  Elec       q    Type
REMARK                         _______ _______ _______ _____ _____    ______ ____
ROOT
ATOM      1  O   UNL     1       0.055  -3.238   0.000  0.00  0.00    -0.251 OA
ATOM      2  C   UNL     1       0.055  -2.413   0.000  0.00  0.00    +0.323 C 
ATOM      3  N   UNL     1      -0.659  -2.000   0.000  0.00  0.00    -0.263 N 
ATOM      4  C   UNL     1      -0.551  -1.182   0.000  0.00  0.00    +0.095 C 
ATOM      5  C   UNL     1      -1.054  -0.528   0.000  0.00  0.00    +0.022 C 
ATOM      6  C   UNL     1      -1.872  -0.420   0.000  0.00  0.00    +0.002 C 
ATOM      7  C   UNL     1      -2.526  -0.922   0.000  0.00  0.00    +0.000 C 
ATOM      8  C   UNL     1      -2.634  -1.740   0.000  0.00  0.00    +0.002 C 
ATOM      9  C   UNL     1      -2.131  -2.395   0.000  0.00  0.00    +0.022 C 
ATOM     10  C   UNL     1      -1.314  -2.502   0.000  0.00  0.00    +0.095 C 
ATOM     11  N   UNL     1       0.770  -2.000   0.000  0.00  0.00    -0.188 NA
ENDROOT
BRANCH  11  12
ATOM     12  C   UNL     1       1.484  -2.413   0.000  0.00  0.00    +0.123 C 
BRANCH  12  13
ATOM     13  C   UNL     1       2.199  -2.000   0.000  0.00  0.00    +0.069 C 
BRANCH  13  14
ATOM     14  C   UNL     1       2.913  -2.413   0.000  0.00  0.00    +0.061 A 
ATOM     15  N   UNL     1       2.913  -3.238   0.000  0.00  0.00    -0.248 NA
ATOM     16  C   UNL     1       3.628  -3.650   0.000  0.00  0.00    +0.098 A 
ATOM     17  C   UNL     1       4.342  -3.238   0.000  0.00  0.00    +0.021 A 
ATOM     18  C   UNL     1       4.342  -2.413   0.000  0.00  0.00    +0.003 A 
ATOM     19  C   UNL     1       3.628  -2.000   0.000  0.00  0.00    +0.015 A 
ENDBRANCH  13  14
ENDBRANCH  12  13
ENDBRANCH  11  12
TORSDOF 3
