REMARK  Name = 
REMARK  4 active torsions:
REMARK  status: ('A' for Active; 'I' for Inactive)
REMARK    1  A    between atoms: C_7  and  N_10
REMARK    2  A    between atoms: C_11  and  C_13
REMARK    3  A    between atoms: C_13  and  N_14
REMARK    4  A    between atoms: C_20  and  C_21
REMARK                            x       y       z     vdW  Elec       q    Type
REMARK                         _______ _______ _______ _____ _____    ______ ____
ROOT
ATOM      1  N   UNL     1       2.858  -4.950   0.000  0.00  0.00    -0.205 NA
ATOM      2  C   UNL     1       2.143  -5.362   0.000  0.00  0.00    +0.266 C 
ATOM      3  O   UNL     1       1.429  -4.950   0.000  0.00  0.00    -0.271 OA
ENDROOT
BRANCH   1   9
ATOM      4  C   UNL     1       2.143  -1.238   0.000  0.00  0.00    +0.095 C 
ATOM      5  C   UNL     1       2.858  -1.650   0.000  0.00  0.00    +0.226 C 
ATOM      6  N   UNL     1       2.858  -2.475   0.000  0.00  0.00    -0.279 N 
ATOM      7  C   UNL     1       2.143  -2.888   0.000  0.00  0.00    +0.095 C 
ATOM      8  C   UNL     1       2.143  -3.712   0.000  0.00  0.00    +0.043 C 
ATOM      9  C   UNL     1       2.858  -4.125   0.000  0.00  0.00    +0.099 C 
ATOM     10  C   UNL     1       3.572  -3.712   0.000  0.00  0.00    +0.043 C 
ATOM     11  C   UNL     1       3.572  -2.888   0.000  0.00  0.00    +0.095 C 
ATOM     12  O   UNL     1       3.572  -1.238   0.000  0.00  0.00    -0.275 OA
ENDBRANCH   1   9
BRANCH   2  13
ATOM     13  C   UNL     1       2.143  -6.188   0.000  0.00  0.00    +0.217 C 
BRANCH  13  14
ATOM     14  N   UNL     1       1.429  -6.600   0.000  0.00  0.00    -0.207 N 
ATOM     15  C   UNL     1       0.715  -6.188   0.000  0.00  0.00    +0.286 A 
ATOM     16  O   UNL     1       0.715  -5.362   0.000  0.00  0.00    -0.265 OA
ATOM     17  C   UNL     1       0.000  -6.600   0.000  0.00  0.00    +0.123 A 
ATOM     18  C   UNL     1       0.000  -7.425   0.000  0.00  0.00    +0.008 A 
ATOM     19  C   UNL     1      -0.715  -7.838   0.000  0.00  0.00    +0.033 C 
ATOM     20  C   UNL     1       0.715  -7.838   0.000  0.00  0.00    +0.076 A 
ATOM     21  C   UNL     1       0.715  -8.662   0.000  0.00  0.00    +0.054 C 
ATOM     22  N   UNL     1       1.429  -7.425   0.000  0.00  0.00    -0.171 NA
BRANCH  17  23
ATOM     23  C   UNL     1      -0.715  -6.188   0.000  0.00  0.00    +0.105 C 
ATOM     24  N   UNL     1      -1.429  -5.775   0.000  0.00  0.00    -0.191 NA
ENDBRANCH  17  23
ENDBRANCH  13  14
ENDBRANCH   2  13
TORSDOF 4
