REMARK  Name = 
REMARK  3 active torsions:
REMARK  status: ('A' for Active; 'I' for Inactive)
REMARK    1  A    between atoms: C_2  and  C_4
REMARK    2  A    between atoms: N_11  and  C_12
REMARK    3  A    between atoms: C_12  and  C_13
REMARK                            x       y       z     vdW  Elec       q    Type
REMARK                         _______ _______ _______ _____ _____    ______ ____
ROOT
ATOM      1  C   UNL     1      -2.247   2.755   0.000  0.00  0.00    +0.112 A 
ATOM      2  S   UNL     1      -1.695   2.142   0.000  0.00  0.00    -0.033 S 
ATOM      3  C   UNL     1      -0.941   2.478   0.000  0.00  0.00    +0.209 A 
ATOM      4  N   UNL     1      -0.227   2.065   0.000  0.00  0.00    -0.134 NA
ATOM      5  C   UNL     1       0.487   2.478   0.000  0.00  0.00    +0.345 C 
ATOM      6  N   UNL     1       1.202   2.065   0.000  0.00  0.00    -0.187 NA
ATOM      7  O   UNL     1       0.487   3.303   0.000  0.00  0.00    -0.249 OA
ATOM      8  N   UNL     1      -1.028   3.298   0.000  0.00  0.00    -0.124 NA
ATOM      9  N   UNL     1      -1.835   3.470   0.000  0.00  0.00    -0.144 NA
ENDROOT
BRANCH   1  11
ATOM     10  C   UNL     1      -3.553   3.336   0.000  0.00  0.00    +0.007 C 
ATOM     11  C   UNL     1      -3.068   2.669   0.000  0.00  0.00    +0.048 C 
ATOM     12  C   UNL     1      -3.403   1.915   0.000  0.00  0.00    +0.007 C 
ENDBRANCH   1  11
BRANCH   6  13
ATOM     13  C   UNL     1       1.917   2.478   0.000  0.00  0.00    +0.117 C 
BRANCH  13  14
ATOM     14  C   UNL     1       2.631   2.065   0.000  0.00  0.00    +0.022 C 
ATOM     15  C   UNL     1       2.845   1.268   0.000  0.00  0.00    +0.002 C 
ATOM     16  C   UNL     1       3.641   1.482   0.000  0.00  0.00    +0.000 C 
ATOM     17  C   UNL     1       3.428   2.279   0.000  0.00  0.00    +0.002 C 
ENDBRANCH  13  14
ENDBRANCH   6  13
TORSDOF 3
