REMARK  Name = 
REMARK  4 active torsions:
REMARK  status: ('A' for Active; 'I' for Inactive)
REMARK    1  A    between atoms: C_5  and  C_6
REMARK    2  A    between atoms: C_6  and  C_7
REMARK    3  A    between atoms: N_9  and  C_10
REMARK    4  A    between atoms: C_10  and  C_16
REMARK                            x       y       z     vdW  Elec       q    Type
REMARK                         _______ _______ _______ _____ _____    ______ ____
ROOT
ATOM      1  C   UNL     1       2.738  -5.146   0.000  0.00  0.00    +0.246 C 
ATOM      2  N   UNL     1       3.452  -4.734   0.000  0.00  0.00    -0.198 NA
ATOM      3  O   UNL     1       2.738  -5.971   0.000  0.00  0.00    -0.273 OA
ENDROOT
BRANCH   2   4
ATOM      4  C   UNL     1       4.167  -5.146   0.000  0.00  0.00    +0.171 C 
ATOM      5  C   UNL     1       3.636  -5.778   0.000  0.00  0.00    +0.031 C 
ATOM      6  C   UNL     1       3.918  -6.553   0.000  0.00  0.00    +0.002 C 
ATOM      7  C   UNL     1       4.731  -6.697   0.000  0.00  0.00    +0.000 C 
ATOM      8  C   UNL     1       5.261  -6.065   0.000  0.00  0.00    +0.002 C 
ATOM      9  C   UNL     1       4.979  -5.290   0.000  0.00  0.00    +0.031 C 
BRANCH   4  10
ATOM     10  C   UNL     1       4.449  -4.371   0.000  0.00  0.00    +0.382 C 
ATOM     11  O   UNL     1       3.918  -3.739   0.000  0.00  0.00    -0.244 OA
ATOM     12  O   UNL     1       5.261  -4.228   0.000  0.00  0.00    -0.244 OA
ENDBRANCH   4  10
ENDBRANCH   2   4
BRANCH   1  13
ATOM     13  C   UNL     1       2.023  -4.734   0.000  0.00  0.00    +0.115 C 
BRANCH  13  18
ATOM     14  C   UNL     1       2.023  -1.434   0.000  0.00  0.00    +0.052 C 
ATOM     15  C   UNL     1       2.023  -2.259   0.000  0.00  0.00    +0.059 A 
ATOM     16  N   UNL     1       1.309  -2.671   0.000  0.00  0.00    -0.248 NA
ATOM     17  C   UNL     1       1.309  -3.496   0.000  0.00  0.00    +0.095 A 
ATOM     18  C   UNL     1       2.023  -3.909   0.000  0.00  0.00    +0.006 A 
ATOM     19  C   UNL     1       2.738  -3.496   0.000  0.00  0.00    -0.001 A 
ATOM     20  C   UNL     1       2.738  -2.671   0.000  0.00  0.00    +0.014 A 
ENDBRANCH  13  18
ENDBRANCH   1  13
TORSDOF 4
