REMARK  Name = 
REMARK  2 active torsions:
REMARK  status: ('A' for Active; 'I' for Inactive)
REMARK    1  A    between atoms: C_2  and  C_3
REMARK    2  A    between atoms: N_10  and  C_11
REMARK                            x       y       z     vdW  Elec       q    Type
REMARK                         _______ _______ _______ _____ _____    ______ ____
ROOT
ATOM      1  C   UNL     1       0.640   6.320   0.000  0.00  0.00    +0.079 A 
ATOM      2  C   UNL     1       1.192   5.707   0.000  0.00  0.00    +0.029 A 
ATOM      3  C   UNL     1       1.020   4.900   0.000  0.00  0.00    +0.035 C 
ATOM      4  C   UNL     1       1.945   6.043   0.000  0.00  0.00    +0.175 A 
ATOM      5  N   UNL     1       2.660   5.630   0.000  0.00  0.00    -0.141 NA
ATOM      6  C   UNL     1       2.660   4.805   0.000  0.00  0.00    +0.345 C 
ATOM      7  N   UNL     1       3.374   4.393   0.000  0.00  0.00    -0.189 NA
ATOM      8  O   UNL     1       1.945   4.393   0.000  0.00  0.00    -0.249 OA
ATOM      9  N   UNL     1       1.859   6.863   0.000  0.00  0.00    -0.132 NA
ATOM     10  N   UNL     1       1.052   7.035   0.000  0.00  0.00    -0.151 NA
ENDROOT
BRANCH   7  11
ATOM     11  C   UNL     1       3.374   3.568   0.000  0.00  0.00    +0.097 C 
ATOM     12  C   UNL     1       2.962   2.853   0.000  0.00  0.00    +0.023 C 
ATOM     13  C   UNL     1       3.787   2.853   0.000  0.00  0.00    +0.023 C 
ENDBRANCH   7  11
BRANCH   1  15
ATOM     14  C   UNL     1      -0.666   6.901   0.000  0.00  0.00    +0.007 C 
ATOM     15  C   UNL     1      -0.181   6.234   0.000  0.00  0.00    +0.047 C 
ENDBRANCH   1  15
TORSDOF 2
