REMARK  Name = 
REMARK  5 active torsions:
REMARK  status: ('A' for Active; 'I' for Inactive)
REMARK    1  A    between atoms: C_7  and  N_8
REMARK    2  A    between atoms: C_9  and  C_11
REMARK    3  A    between atoms: C_11  and  O_12
REMARK    4  A    between atoms: O_12  and  C_13
REMARK    5  A    between atoms: C_13  and  C_14
REMARK                            x       y       z     vdW  Elec       q    Type
REMARK                         _______ _______ _______ _____ _____    ______ ____
ROOT
ATOM      1  N   UNL     1       2.143  -0.412   0.000  0.00  0.00    -0.172 NA
ATOM      2  C   UNL     1       2.858  -0.825   0.000  0.00  0.00    +0.276 C 
ATOM      3  O   UNL     1       2.858  -1.650   0.000  0.00  0.00    -0.270 OA
ENDROOT
BRANCH   1   6
ATOM      4  O   UNL     1       2.143  -2.062   0.000  0.00  0.00    -0.285 OA
ATOM      5  C   UNL     1       1.429  -1.650   0.000  0.00  0.00    +0.214 A 
ATOM      6  C   UNL     1       1.429  -0.825   0.000  0.00  0.00    +0.131 A 
ATOM      7  C   UNL     1       0.715  -0.412   0.000  0.00  0.00    +0.119 A 
ATOM      8  N   UNL     1       0.000  -0.825   0.000  0.00  0.00    -0.241 NA
ATOM      9  C   UNL     1       0.000  -1.650   0.000  0.00  0.00    +0.102 A 
ATOM     10  C   UNL     1       0.715  -2.062   0.000  0.00  0.00    +0.064 A 
ENDBRANCH   1   6
BRANCH   2  11
ATOM     11  C   UNL     1       3.572  -0.412   0.000  0.00  0.00    +0.229 C 
BRANCH  11  12
ATOM     12  O   UNL     1       4.287  -0.825   0.000  0.00  0.00    -0.344 OA
BRANCH  12  13
ATOM     13  C   UNL     1       5.001  -0.412   0.000  0.00  0.00    +0.143 C 
BRANCH  13  14
ATOM     14  C   UNL     1       5.716  -0.825   0.000  0.00  0.00    +0.030 C 
ATOM     15  C   UNL     1       6.128  -1.540   0.000  0.00  0.00    +0.003 C 
ATOM     16  C   UNL     1       6.541  -0.825   0.000  0.00  0.00    +0.003 C 
ENDBRANCH  13  14
ENDBRANCH  12  13
ENDBRANCH  11  12
ENDBRANCH   2  11
TORSDOF 5
