REMARK  Name = 
REMARK  3 active torsions:
REMARK  status: ('A' for Active; 'I' for Inactive)
REMARK    1  A    between atoms: N_3  and  C_4
REMARK    2  A    between atoms: N_11  and  C_12
REMARK    3  A    between atoms: C_17  and  N_18
REMARK                            x       y       z     vdW  Elec       q    Type
REMARK                         _______ _______ _______ _____ _____    ______ ____
ROOT
ATOM      1  C   UNL     1       2.092  -2.981   0.000  0.00  0.00    +0.106 A 
ATOM      2  C   UNL     1       1.378  -3.394   0.000  0.00  0.00    +0.147 A 
ATOM      3  N   UNL     1       1.378  -4.219   0.000  0.00  0.00    -0.228 NA
ATOM      4  C   UNL     1       2.092  -4.631   0.000  0.00  0.00    +0.100 A 
ATOM      5  C   UNL     1       2.807  -4.219   0.000  0.00  0.00    +0.022 A 
ATOM      6  C   UNL     1       2.807  -3.394   0.000  0.00  0.00    +0.021 A 
ENDROOT
BRANCH   2   7
ATOM      7  N   UNL     1       0.663  -2.981   0.000  0.00  0.00    -0.287 N 
ATOM      8  C   UNL     1       0.663  -2.156   0.000  0.00  0.00    +0.124 C 
ATOM      9  C   UNL     1      -0.051  -1.744   0.000  0.00  0.00    +0.164 C 
ATOM     10  O   UNL     1      -0.766  -2.156   0.000  0.00  0.00    -0.350 OA
ATOM     11  C   UNL     1      -0.766  -2.981   0.000  0.00  0.00    +0.164 C 
ATOM     12  C   UNL     1      -0.051  -3.394   0.000  0.00  0.00    +0.124 C 
ENDBRANCH   2   7
BRANCH   1  15
ATOM     13  O   UNL     1       3.521  -2.156   0.000  0.00  0.00    -0.249 OA
ATOM     14  C   UNL     1       2.807  -1.744   0.000  0.00  0.00    +0.344 C 
ATOM     15  N   UNL     1       2.092  -2.156   0.000  0.00  0.00    -0.158 NA
ATOM     16  N   UNL     1       2.807  -0.919   0.000  0.00  0.00    -0.189 NA
BRANCH  16  17
ATOM     17  C   UNL     1       3.521  -0.506   0.000  0.00  0.00    +0.097 C 
ATOM     18  C   UNL     1       4.203  -0.971   0.000  0.00  0.00    +0.022 C 
ATOM     19  C   UNL     1       4.991  -0.728   0.000  0.00  0.00    +0.002 C 
ATOM     20  C   UNL     1       5.293   0.040   0.000  0.00  0.00    +0.000 C 
ATOM     21  C   UNL     1       4.880   0.754   0.000  0.00  0.00    +0.000 C 
ATOM     22  C   UNL     1       4.064   0.877   0.000  0.00  0.00    +0.002 C 
ATOM     23  C   UNL     1       3.459   0.316   0.000  0.00  0.00    +0.022 C 
ENDBRANCH  16  17
ENDBRANCH   1  15
TORSDOF 3
