REMARK  Name = 
REMARK  5 active torsions:
REMARK  status: ('A' for Active; 'I' for Inactive)
REMARK    1  A    between atoms: N_7  and  C_8
REMARK    2  A    between atoms: C_8  and  C_9
REMARK    3  A    between atoms: C_9  and  C_11
REMARK    4  A    between atoms: C_11  and  N_12
REMARK    5  A    between atoms: C_15  and  C_18
REMARK                            x       y       z     vdW  Elec       q    Type
REMARK                         _______ _______ _______ _____ _____    ______ ____
ROOT
ATOM      1  C   UNL     1      -0.398   2.975   0.000  0.00  0.00    +0.142 C 
ENDROOT
BRANCH   1  11
ATOM      2  C   UNL     1       2.784   0.698   0.000  0.00  0.00    +0.031 C 
ATOM      3  C   UNL     1       2.070   1.110   0.000  0.00  0.00    -0.024 A 
ATOM      4  C   UNL     1       2.070   1.935   0.000  0.00  0.00    -0.024 A 
ATOM      5  C   UNL     1       2.784   2.348   0.000  0.00  0.00    +0.031 C 
ATOM      6  C   UNL     1       1.356   2.348   0.000  0.00  0.00    +0.014 A 
ATOM      7  C   UNL     1       0.641   1.935   0.000  0.00  0.00    +0.079 A 
ATOM      8  C   UNL     1       0.641   1.110   0.000  0.00  0.00    +0.098 A 
ATOM      9  N   UNL     1      -0.143   0.856   0.000  0.00  0.00    -0.224 NA
ATOM     10  C   UNL     1      -0.628   1.523   0.000  0.00  0.00    +0.179 A 
ATOM     11  N   UNL     1      -0.143   2.190   0.000  0.00  0.00    -0.306 N 
ATOM     12  C   UNL     1       1.356   0.698   0.000  0.00  0.00    +0.016 A 
ENDBRANCH   1  11
BRANCH   1  13
ATOM     13  C   UNL     1       0.154   3.588   0.000  0.00  0.00    +0.190 C 
ATOM     14  O   UNL     1       0.961   3.417   0.000  0.00  0.00    -0.220 OA
BRANCH  13  15
ATOM     15  C   UNL     1      -0.101   4.373   0.000  0.00  0.00    +0.107 C 
BRANCH  15  16
ATOM     16  N   UNL     1       0.451   4.986   0.000  0.00  0.00    -0.270 NA
ATOM     17  C   UNL     1       1.258   4.814   0.000  0.00  0.00    +0.073 C 
ATOM     18  C   UNL     1       1.810   5.427   0.000  0.00  0.00    +0.027 C 
ATOM     19  C   UNL     1       1.555   6.212   0.000  0.00  0.00    +0.083 C 
ATOM     20  C   UNL     1       0.748   6.383   0.000  0.00  0.00    +0.027 C 
ATOM     21  C   UNL     1       0.196   5.770   0.000  0.00  0.00    +0.073 C 
BRANCH  19  22
ATOM     22  C   UNL     1       2.107   6.825   0.000  0.00  0.00    +0.260 C 
ATOM     23  N   UNL     1       2.914   6.654   0.000  0.00  0.00    -0.088 NA
ATOM     24  O   UNL     1       1.852   7.610   0.000  0.00  0.00    -0.272 OA
ENDBRANCH  19  22
ENDBRANCH  15  16
ENDBRANCH  13  15
ENDBRANCH   1  13
TORSDOF 5
