REMARK  Name = 
REMARK  5 active torsions:
REMARK  status: ('A' for Active; 'I' for Inactive)
REMARK    1  A    between atoms: C_2  and  C_3
REMARK    2  A    between atoms: C_6  and  C_7
REMARK    3  A    between atoms: C_7  and  C_8
REMARK    4  A    between atoms: C_8  and  N_9
REMARK    5  A    between atoms: C_10  and  C_12
REMARK                            x       y       z     vdW  Elec       q    Type
REMARK                         _______ _______ _______ _____ _____    ______ ____
ROOT
ATOM      1  C   UNL     1       2.102  -1.996   0.000  0.00  0.00    +0.122 C 
ENDROOT
BRANCH   1   2
ATOM      2  N   UNL     1       2.816  -2.408   0.000  0.00  0.00    -0.203 NA
ATOM      3  C   UNL     1       3.530  -1.996   0.000  0.00  0.00    +0.269 C 
ATOM      4  O   UNL     1       3.530  -1.171   0.000  0.00  0.00    -0.271 OA
BRANCH   3   5
ATOM      5  C   UNL     1       4.245  -2.408   0.000  0.00  0.00    +0.193 C 
ATOM      6  O   UNL     1       4.331  -3.229   0.000  0.00  0.00    -0.347 OA
ATOM      7  C   UNL     1       5.138  -3.400   0.000  0.00  0.00    +0.143 C 
ATOM      8  C   UNL     1       5.551  -2.686   0.000  0.00  0.00    +0.035 C 
ATOM      9  C   UNL     1       4.999  -2.073   0.000  0.00  0.00    +0.042 C 
ENDBRANCH   3   5
ENDBRANCH   1   2
BRANCH   1  10
ATOM     10  C   UNL     1       1.387  -2.408   0.000  0.00  0.00    +0.076 C 
BRANCH  10  13
ATOM     11  C   UNL     1      -0.633  -1.718   0.000  0.00  0.00    +0.027 A 
ATOM     12  S   UNL     1      -0.081  -2.331   0.000  0.00  0.00    -0.075 S 
ATOM     13  C   UNL     1       0.672  -1.996   0.000  0.00  0.00    +0.090 A 
ATOM     14  N   UNL     1       0.586  -1.175   0.000  0.00  0.00    -0.241 NA
ATOM     15  C   UNL     1      -0.221  -1.004   0.000  0.00  0.00    +0.101 A 
BRANCH  11  17
ATOM     16  C   UNL     1      -1.939  -1.137   0.000  0.00  0.00    +0.006 C 
ATOM     17  C   UNL     1      -1.454  -1.804   0.000  0.00  0.00    +0.035 C 
ENDBRANCH  11  17
ENDBRANCH  10  13
ENDBRANCH   1  10
TORSDOF 5
