REMARK  Name = 
REMARK  6 active torsions:
REMARK  status: ('A' for Active; 'I' for Inactive)
REMARK    1  A    between atoms: C_2  and  C_3
REMARK    2  A    between atoms: C_3  and  C_4
REMARK    3  A    between atoms: C_4  and  N_6
REMARK    4  A    between atoms: C_4  and  C_15
REMARK    5  A    between atoms: C_7  and  C_9
REMARK    6  A    between atoms: C_9  and  N_10
REMARK                            x       y       z     vdW  Elec       q    Type
REMARK                         _______ _______ _______ _____ _____    ______ ____
ROOT
ATOM      1  N   UNL     1      -0.147   3.177   0.000  0.00  0.00    -0.196 NA
ATOM      2  C   UNL     1      -0.147   2.352   0.000  0.00  0.00    +0.267 C 
ATOM      3  O   UNL     1      -0.861   1.939   0.000  0.00  0.00    -0.271 OA
ENDROOT
BRANCH   1   4
ATOM      4  C   UNL     1      -0.861   3.589   0.000  0.00  0.00    +0.171 C 
ATOM      5  C   UNL     1      -1.274   2.875   0.000  0.00  0.00    +0.033 C 
BRANCH   4   6
ATOM      6  C   UNL     1      -0.449   4.304   0.000  0.00  0.00    +0.382 C 
ATOM      7  O   UNL     1      -0.861   5.018   0.000  0.00  0.00    -0.244 OA
ATOM      8  O   UNL     1       0.376   4.304   0.000  0.00  0.00    -0.244 OA
ENDBRANCH   4   6
BRANCH   4   9
ATOM      9  C   UNL     1      -1.576   4.002   0.000  0.00  0.00    +0.031 C 
BRANCH   9  11
ATOM     10  C   UNL     1      -2.290   5.239   0.000  0.00  0.00    +0.000 C 
ATOM     11  C   UNL     1      -1.576   4.827   0.000  0.00  0.00    +0.002 C 
ENDBRANCH   9  11
ENDBRANCH   4   9
ENDBRANCH   1   4
BRANCH   2  12
ATOM     12  C   UNL     1       0.568   1.939   0.000  0.00  0.00    +0.214 C 
BRANCH  12  13
ATOM     13  N   UNL     1       0.568   1.114   0.000  0.00  0.00    -0.240 N 
ATOM     14  N   UNL     1      -0.100   0.629   0.000  0.00  0.00    -0.167 NA
ATOM     15  C   UNL     1       0.155  -0.155   0.000  0.00  0.00    +0.122 A 
ATOM     16  C   UNL     1       0.980  -0.155   0.000  0.00  0.00    +0.043 A 
ATOM     17  C   UNL     1       1.235   0.629   0.000  0.00  0.00    +0.097 A 
ENDBRANCH  12  13
ENDBRANCH   2  12
TORSDOF 6
