REMARK  Name = 
REMARK  4 active torsions:
REMARK  status: ('A' for Active; 'I' for Inactive)
REMARK    1  A    between atoms: C_2  and  C_4
REMARK    2  A    between atoms: C_7  and  N_10
REMARK    3  A    between atoms: C_11  and  C_13
REMARK    4  A    between atoms: C_13  and  C_14
REMARK                            x       y       z     vdW  Elec       q    Type
REMARK                         _______ _______ _______ _____ _____    ______ ____
ROOT
ATOM      1  N   UNL     1       2.037   6.828   0.000  0.00  0.00    -0.207 NA
ATOM      2  C   UNL     1       2.037   6.003   0.000  0.00  0.00    +0.247 C 
ATOM      3  O   UNL     1       1.322   5.590   0.000  0.00  0.00    -0.273 OA
ENDROOT
BRANCH   1   7
ATOM      4  C   UNL     1      -0.107   8.065   0.000  0.00  0.00    +0.000 C 
ATOM      5  C   UNL     1      -0.107   7.240   0.000  0.00  0.00    +0.002 C 
ATOM      6  C   UNL     1       0.608   6.828   0.000  0.00  0.00    +0.022 C 
ATOM      7  C   UNL     1       1.322   7.240   0.000  0.00  0.00    +0.095 C 
ATOM      8  C   UNL     1       1.322   8.065   0.000  0.00  0.00    +0.022 C 
ATOM      9  C   UNL     1       0.608   8.478   0.000  0.00  0.00    +0.002 C 
BRANCH   4  11
ATOM     10  C   UNL     1      -1.536   8.065   0.000  0.00  0.00    +0.000 C 
ATOM     11  C   UNL     1      -0.821   8.478   0.000  0.00  0.00    +0.000 C 
ATOM     12  C   UNL     1      -0.821   9.303   0.000  0.00  0.00    +0.000 C 
ENDBRANCH   4  11
ENDBRANCH   1   7
BRANCH   2  13
ATOM     13  C   UNL     1       2.751   5.590   0.000  0.00  0.00    +0.134 C 
BRANCH  13  14
ATOM     14  C   UNL     1       2.751   4.765   0.000  0.00  0.00    +0.091 A 
ATOM     15  N   UNL     1       2.084   4.280   0.000  0.00  0.00    -0.152 NA
ATOM     16  N   UNL     1       2.339   3.496   0.000  0.00  0.00    -0.153 NA
ATOM     17  C   UNL     1       3.164   3.496   0.000  0.00  0.00    +0.082 A 
ATOM     18  C   UNL     1       3.649   2.828   0.000  0.00  0.00    +0.054 C 
ATOM     19  C   UNL     1       3.419   4.280   0.000  0.00  0.00    +0.033 A 
ENDBRANCH  13  14
ENDBRANCH   2  13
TORSDOF 4
