REMARK  Name = 
REMARK  3 active torsions:
REMARK  status: ('A' for Active; 'I' for Inactive)
REMARK    1  A    between atoms: N_3  and  C_4
REMARK    2  A    between atoms: C_4  and  C_5
REMARK    3  A    between atoms: C_5  and  N_6
REMARK                            x       y       z     vdW  Elec       q    Type
REMARK                         _______ _______ _______ _____ _____    ______ ____
ROOT
ATOM      1  O   UNL     1       0.715  -2.888   0.000  0.00  0.00    -0.251 OA
ATOM      2  C   UNL     1       0.715  -2.062   0.000  0.00  0.00    +0.323 C 
ATOM      3  N   UNL     1       0.000  -1.650   0.000  0.00  0.00    -0.263 N 
ATOM      4  C   UNL     1       0.000  -0.825   0.000  0.00  0.00    +0.095 C 
ATOM      5  C   UNL     1      -0.715  -0.412   0.000  0.00  0.00    +0.022 C 
ATOM      6  C   UNL     1      -1.429  -0.825   0.000  0.00  0.00    +0.003 C 
ATOM      7  C   UNL     1      -1.429   0.000   0.000  0.00  0.00    +0.000 C 
ATOM      8  C   UNL     1      -2.143   0.412   0.000  0.00  0.00    +0.000 C 
ATOM      9  C   UNL     1      -2.858   0.000   0.000  0.00  0.00    +0.000 C 
ATOM     10  C   UNL     1      -2.858  -0.825   0.000  0.00  0.00    +0.000 C 
ATOM     11  C   UNL     1      -2.143  -1.238   0.000  0.00  0.00    +0.000 C 
ATOM     12  C   UNL     1      -1.429  -1.650   0.000  0.00  0.00    +0.022 C 
ATOM     13  C   UNL     1      -0.715  -2.062   0.000  0.00  0.00    +0.095 C 
ATOM     14  N   UNL     1       1.429  -1.650   0.000  0.00  0.00    -0.186 NA
ENDROOT
BRANCH  14  15
ATOM     15  C   UNL     1       2.143  -2.062   0.000  0.00  0.00    +0.141 C 
BRANCH  15  16
ATOM     16  C   UNL     1       2.858  -1.650   0.000  0.00  0.00    +0.131 C 
BRANCH  16  17
ATOM     17  N   UNL     1       3.572  -2.062   0.000  0.00  0.00    -0.306 N 
ATOM     18  C   UNL     1       3.659  -2.883   0.000  0.00  0.00    +0.179 A 
ATOM     19  N   UNL     1       4.466  -3.054   0.000  0.00  0.00    -0.222 NA
ATOM     20  C   UNL     1       4.878  -2.340   0.000  0.00  0.00    +0.119 A 
ATOM     21  C   UNL     1       4.326  -1.727   0.000  0.00  0.00    +0.098 A 
ENDBRANCH  16  17
ENDBRANCH  15  16
ENDBRANCH  14  15
TORSDOF 3
