REMARK  Name = 
REMARK  6 active torsions:
REMARK  status: ('A' for Active; 'I' for Inactive)
REMARK    1  A    between atoms: C_2  and  C_3
REMARK    2  A    between atoms: C_2  and  C_11
REMARK    3  A    between atoms: C_3  and  O_4
REMARK    4  A    between atoms: O_4  and  C_5
REMARK    5  A    between atoms: C_11  and  N_12
REMARK    6  A    between atoms: C_14  and  C_19
REMARK                            x       y       z     vdW  Elec       q    Type
REMARK                         _______ _______ _______ _____ _____    ______ ____
ROOT
ATOM      1  C   UNL     1       2.858  -2.475   0.000  0.00  0.00    +0.167 C 
ENDROOT
BRANCH   1   2
ATOM      2  N   UNL     1       3.572  -2.888   0.000  0.00  0.00    -0.214 N 
ATOM      3  C   UNL     1       3.572  -3.712   0.000  0.00  0.00    +0.277 A 
ATOM      4  O   UNL     1       2.858  -4.125   0.000  0.00  0.00    -0.266 OA
ATOM      5  C   UNL     1       4.287  -4.125   0.000  0.00  0.00    +0.064 A 
ATOM      6  C   UNL     1       5.001  -3.712   0.000  0.00  0.00    +0.030 A 
ATOM      7  C   UNL     1       5.001  -2.888   0.000  0.00  0.00    +0.172 A 
ATOM      8  N   UNL     1       4.287  -2.475   0.000  0.00  0.00    -0.163 NA
BRANCH   7   9
ATOM      9  C   UNL     1       5.716  -2.475   0.000  0.00  0.00    +0.436 C 
ATOM     10  F   UNL     1       5.303  -1.760   0.000  0.00  0.00    -0.164 F 
ATOM     11  F   UNL     1       6.128  -3.189   0.000  0.00  0.00    -0.164 F 
ATOM     12  F   UNL     1       6.430  -2.062   0.000  0.00  0.00    -0.164 F 
ENDBRANCH   7   9
ENDBRANCH   1   2
BRANCH   1  14
ATOM     13  O   UNL     1       2.143  -3.712   0.000  0.00  0.00    -0.217 OA
ATOM     14  C   UNL     1       2.143  -2.888   0.000  0.00  0.00    +0.220 C 
BRANCH  14  15
ATOM     15  C   UNL     1       1.429  -2.475   0.000  0.00  0.00    +0.240 C 
BRANCH  15  16
ATOM     16  O   UNL     1       0.715  -2.888   0.000  0.00  0.00    -0.473 OA
BRANCH  16  17
ATOM     17  C   UNL     1       0.000  -2.475   0.000  0.00  0.00    +0.139 A 
ATOM     18  C   UNL     1       0.000  -1.650   0.000  0.00  0.00    +0.037 A 
ATOM     19  C   UNL     1      -0.715  -1.238   0.000  0.00  0.00    +0.003 A 
ATOM     20  C   UNL     1      -1.429  -1.650   0.000  0.00  0.00    +0.000 A 
ATOM     21  C   UNL     1      -1.429  -2.475   0.000  0.00  0.00    +0.003 A 
ATOM     22  C   UNL     1      -0.715  -2.888   0.000  0.00  0.00    +0.037 A 
ENDBRANCH  16  17
ENDBRANCH  15  16
ENDBRANCH  14  15
ENDBRANCH   1  14
TORSDOF 6
