REMARK  Name = 
REMARK  3 active torsions:
REMARK  status: ('A' for Active; 'I' for Inactive)
REMARK    1  A    between atoms: N_3  and  C_4
REMARK    2  A    between atoms: N_11  and  C_12
REMARK    3  A    between atoms: C_15  and  C_18
REMARK                            x       y       z     vdW  Elec       q    Type
REMARK                         _______ _______ _______ _____ _____    ______ ____
ROOT
ATOM      1  O   UNL     1       0.164   2.192   0.000  0.00  0.00    -0.249 OA
ATOM      2  C   UNL     1      -0.551   1.779   0.000  0.00  0.00    +0.344 C 
ATOM      3  N   UNL     1      -1.265   2.192   0.000  0.00  0.00    -0.158 NA
ATOM      4  N   UNL     1      -0.551   0.954   0.000  0.00  0.00    -0.186 NA
ENDROOT
BRANCH   4   5
ATOM      5  C   UNL     1       0.164   0.542   0.000  0.00  0.00    +0.126 C 
ATOM      6  C   UNL     1       0.878   0.954   0.000  0.00  0.00    +0.135 C 
ATOM      7  O   UNL     1       0.672   0.129   0.000  0.00  0.00    -0.357 OA
ATOM      8  C   UNL     1       0.878  -0.696   0.000  0.00  0.00    +0.117 C 
ATOM      9  C   UNL     1       1.593  -0.283   0.000  0.00  0.00    +0.032 C 
ATOM     10  C   UNL     1       1.593   0.542   0.000  0.00  0.00    +0.034 C 
ATOM     11  C   UNL     1       0.164  -0.283   0.000  0.00  0.00    +0.054 C 
ENDBRANCH   4   5
BRANCH   3  12
ATOM     12  C   UNL     1      -1.265   3.017   0.000  0.00  0.00    +0.113 A 
ATOM     13  C   UNL     1      -0.551   3.429   0.000  0.00  0.00    +0.118 A 
ATOM     14  N   UNL     1      -0.551   4.254   0.000  0.00  0.00    -0.228 NA
ATOM     15  C   UNL     1      -1.265   4.667   0.000  0.00  0.00    +0.139 A 
ATOM     16  N   UNL     1      -1.980   4.254   0.000  0.00  0.00    -0.228 NA
ATOM     17  C   UNL     1      -1.980   3.429   0.000  0.00  0.00    +0.118 A 
BRANCH  15  18
ATOM     18  C   UNL     1      -1.265   5.492   0.000  0.00  0.00    +0.059 C 
ATOM     19  C   UNL     1      -0.853   6.206   0.000  0.00  0.00    +0.008 C 
ATOM     20  C   UNL     1      -1.678   6.206   0.000  0.00  0.00    +0.008 C 
ENDBRANCH  15  18
ENDBRANCH   3  12
TORSDOF 3
