REMARK  Name = 
REMARK  3 active torsions:
REMARK  status: ('A' for Active; 'I' for Inactive)
REMARK    1  A    between atoms: C_2  and  C_3
REMARK    2  A    between atoms: C_3  and  N_4
REMARK    3  A    between atoms: N_7  and  C_8
REMARK                            x       y       z     vdW  Elec       q    Type
REMARK                         _______ _______ _______ _____ _____    ______ ____
ROOT
ATOM      1  N   UNL     1       0.000  -2.475   0.000  0.00  0.00    -0.187 NA
ATOM      2  C   UNL     1       0.715  -2.062   0.000  0.00  0.00    +0.344 C 
ATOM      3  N   UNL     1       1.429  -2.475   0.000  0.00  0.00    -0.159 NA
ATOM      4  O   UNL     1       0.715  -1.238   0.000  0.00  0.00    -0.249 OA
ENDROOT
BRANCH   3   5
ATOM      5  C   UNL     1       2.143  -2.062   0.000  0.00  0.00    +0.094 A 
ATOM      6  C   UNL     1       2.858  -2.475   0.000  0.00  0.00    +0.115 A 
ATOM      7  N   UNL     1       3.572  -2.062   0.000  0.00  0.00    -0.241 NA
ATOM      8  C   UNL     1       3.572  -1.238   0.000  0.00  0.00    +0.099 A 
ATOM      9  C   UNL     1       2.858  -0.825   0.000  0.00  0.00    +0.022 A 
ATOM     10  C   UNL     1       2.143  -1.238   0.000  0.00  0.00    +0.020 A 
ENDBRANCH   3   5
BRANCH   1  11
ATOM     11  C   UNL     1      -0.715  -2.062   0.000  0.00  0.00    +0.119 C 
BRANCH  11  13
ATOM     12  C   UNL     1      -0.899  -3.107   0.000  0.00  0.00    +0.004 C 
ATOM     13  C   UNL     1      -1.429  -2.475   0.000  0.00  0.00    +0.048 C 
ATOM     14  C   UNL     1      -1.711  -1.700   0.000  0.00  0.00    +0.154 C 
ATOM     15  O   UNL     1      -1.181  -1.068   0.000  0.00  0.00    -0.223 OA
ATOM     16  C   UNL     1      -2.524  -1.556   0.000  0.00  0.00    +0.033 C 
ATOM     17  C   UNL     1      -3.054  -2.188   0.000  0.00  0.00    +0.003 C 
ATOM     18  C   UNL     1      -2.772  -2.964   0.000  0.00  0.00    +0.000 C 
ATOM     19  C   UNL     1      -1.959  -3.107   0.000  0.00  0.00    +0.004 C 
ENDBRANCH  11  13
ENDBRANCH   1  11
TORSDOF 3
