REMARK  Name = 
REMARK  4 active torsions:
REMARK  status: ('A' for Active; 'I' for Inactive)
REMARK    1  A    between atoms: C_2  and  C_5
REMARK    2  A    between atoms: N_11  and  C_12
REMARK    3  A    between atoms: C_12  and  C_13
REMARK    4  A    between atoms: N_15  and  C_16
REMARK                            x       y       z     vdW  Elec       q    Type
REMARK                         _______ _______ _______ _____ _____    ______ ____
ROOT
ATOM      1  C   UNL     1       1.841   3.538   0.000  0.00  0.00    +0.090 A 
ATOM      2  C   UNL     1       2.556   3.126   0.000  0.00  0.00    +0.083 A 
ATOM      3  N   UNL     1       3.270   3.538   0.000  0.00  0.00    -0.285 N 
ATOM      4  C   UNL     1       3.270   4.363   0.000  0.00  0.00    +0.272 A 
ATOM      5  O   UNL     1       3.985   4.776   0.000  0.00  0.00    -0.266 OA
ATOM      6  C   UNL     1       2.556   4.776   0.000  0.00  0.00    +0.114 A 
ATOM      7 CL   UNL     1       2.556   5.601   0.000  0.00  0.00    -0.077 Cl
ATOM      8  C   UNL     1       1.841   4.363   0.000  0.00  0.00    +0.022 A 
ENDROOT
BRANCH   1  10
ATOM      9  F   UNL     1       0.412   2.713   0.000  0.00  0.00    -0.166 F 
ATOM     10  C   UNL     1       1.127   3.126   0.000  0.00  0.00    +0.420 C 
ATOM     11  F   UNL     1       0.715   3.840   0.000  0.00  0.00    -0.166 F 
ATOM     12  F   UNL     1       1.540   2.411   0.000  0.00  0.00    -0.166 F 
ENDBRANCH   1  10
BRANCH   3  13
ATOM     13  C   UNL     1       3.985   3.126   0.000  0.00  0.00    +0.196 C 
BRANCH  13  14
ATOM     14  C   UNL     1       3.985   2.301   0.000  0.00  0.00    +0.264 C 
ATOM     15  N   UNL     1       4.699   1.888   0.000  0.00  0.00    -0.206 NA
ATOM     16  O   UNL     1       3.270   1.888   0.000  0.00  0.00    -0.271 OA
BRANCH  15  17
ATOM     17  C   UNL     1       4.699   1.063   0.000  0.00  0.00    +0.095 C 
ATOM     18  C   UNL     1       4.287   0.349   0.000  0.00  0.00    +0.023 C 
ATOM     19  C   UNL     1       5.112   0.349   0.000  0.00  0.00    +0.023 C 
ENDBRANCH  15  17
ENDBRANCH  13  14
ENDBRANCH   3  13
TORSDOF 4
