REMARK  Name = 
REMARK  1 active torsions:
REMARK  status: ('A' for Active; 'I' for Inactive)
REMARK    1  A    between atoms: N_5  and  C_7
REMARK                            x       y       z     vdW  Elec       q    Type
REMARK                         _______ _______ _______ _____ _____    ______ ____
ROOT
ATOM      1  C   UNL     1       0.715  -0.412   0.000  0.00  0.00    +0.034 C 
ATOM      2  C   UNL     1       0.715  -1.238   0.000  0.00  0.00    +0.018 A 
ATOM      3  C   UNL     1       0.047  -1.722   0.000  0.00  0.00    +0.092 A 
ATOM      4  N   UNL     1       0.302  -2.507   0.000  0.00  0.00    -0.250 N 
ATOM      5  N   UNL     1       1.127  -2.507   0.000  0.00  0.00    -0.168 NA
ATOM      6  C   UNL     1       1.382  -1.722   0.000  0.00  0.00    +0.117 A 
ENDROOT
BRANCH   4   7
ATOM      7  C   UNL     1      -0.183  -3.175   0.000  0.00  0.00    +0.123 C 
ATOM      8  C   UNL     1      -1.003  -3.088   0.000  0.00  0.00    +0.113 C 
ATOM      9  N   UNL     1      -1.488  -3.756   0.000  0.00  0.00    -0.216 NA
ATOM     10  C   UNL     1      -1.153  -4.509   0.000  0.00  0.00    +0.089 C 
ATOM     11  C   UNL     1      -0.332  -4.596   0.000  0.00  0.00    +0.021 C 
ATOM     12  C   UNL     1       0.153  -3.928   0.000  0.00  0.00    +0.027 C 
ENDBRANCH   4   7
TORSDOF 1
