REMARK  Name = 
REMARK  5 active torsions:
REMARK  status: ('A' for Active; 'I' for Inactive)
REMARK    1  A    between atoms: N_4  and  C_5
REMARK    2  A    between atoms: C_5  and  C_6
REMARK    3  A    between atoms: C_6  and  O_7
REMARK    4  A    between atoms: O_7  and  C_8
REMARK    5  A    between atoms: C_8  and  C_9
REMARK                            x       y       z     vdW  Elec       q    Type
REMARK                         _______ _______ _______ _____ _____    ______ ____
ROOT
ATOM      1 CL   UNL     1      -4.287   2.475   0.000  0.00  0.00    -0.076 Cl
ATOM      2  C   UNL     1      -3.572   2.062   0.000  0.00  0.00    +0.133 A 
ATOM      3  C   UNL     1      -3.572   1.238   0.000  0.00  0.00    +0.295 A 
ATOM      4  O   UNL     1      -4.287   0.825   0.000  0.00  0.00    -0.264 OA
ATOM      5  N   UNL     1      -2.858   0.825   0.000  0.00  0.00    -0.152 NA
ATOM      6  C   UNL     1      -2.143   1.238   0.000  0.00  0.00    +0.353 A 
ATOM      7  O   UNL     1      -1.429   0.825   0.000  0.00  0.00    -0.244 OA
ATOM      8  N   UNL     1      -2.143   2.062   0.000  0.00  0.00    -0.275 N 
ATOM      9  C   UNL     1      -2.858   2.475   0.000  0.00  0.00    +0.096 A 
ENDROOT
BRANCH   8  10
ATOM     10  C   UNL     1      -1.429   2.475   0.000  0.00  0.00    +0.143 C 
BRANCH  10  11
ATOM     11  C   UNL     1      -0.715   2.062   0.000  0.00  0.00    +0.167 C 
BRANCH  11  12
ATOM     12  O   UNL     1       0.000   2.475   0.000  0.00  0.00    -0.349 OA
BRANCH  12  13
ATOM     13  C   UNL     1       0.715   2.062   0.000  0.00  0.00    +0.172 C 
BRANCH  13  14
ATOM     14  C   UNL     1       1.429   2.475   0.000  0.00  0.00    +0.145 C 
ATOM     15  O   UNL     1       2.183   2.139   0.000  0.00  0.00    -0.354 OA
ATOM     16  C   UNL     1       2.735   2.752   0.000  0.00  0.00    +0.142 C 
ATOM     17  C   UNL     1       2.322   3.467   0.000  0.00  0.00    +0.035 C 
ATOM     18  C   UNL     1       1.515   3.296   0.000  0.00  0.00    +0.035 C 
ENDBRANCH  13  14
ENDBRANCH  12  13
ENDBRANCH  11  12
ENDBRANCH  10  11
ENDBRANCH   8  10
TORSDOF 5
