REMARK  Name = 
REMARK  5 active torsions:
REMARK  status: ('A' for Active; 'I' for Inactive)
REMARK    1  A    between atoms: N_3  and  C_4
REMARK    2  A    between atoms: C_4  and  C_5
REMARK    3  A    between atoms: C_5  and  C_6
REMARK    4  A    between atoms: N_16  and  C_17
REMARK    5  A    between atoms: C_17  and  C_18
REMARK                            x       y       z     vdW  Elec       q    Type
REMARK                         _______ _______ _______ _____ _____    ______ ____
ROOT
ATOM      1  C   UNL     1       1.777  -3.017   0.000  0.00  0.00    +0.069 A 
ATOM      2  N   UNL     1       1.024  -2.681   0.000  0.00  0.00    -0.228 NA
ATOM      3  C   UNL     1       0.471  -3.295   0.000  0.00  0.00    +0.163 A 
ATOM      4  N   UNL     1      -0.349  -3.208   0.000  0.00  0.00    -0.288 N 
ATOM      5  C   UNL     1      -0.761  -2.494   0.000  0.00  0.00    +0.093 C 
ATOM      6  C   UNL     1      -1.569  -2.665   0.000  0.00  0.00    +0.023 C 
ATOM      7  C   UNL     1      -1.655  -3.486   0.000  0.00  0.00    +0.023 C 
ATOM      8  C   UNL     1      -0.901  -3.821   0.000  0.00  0.00    +0.093 C 
ATOM      9  S   UNL     1       0.884  -4.009   0.000  0.00  0.00    -0.051 S 
ATOM     10  C   UNL     1       1.691  -3.837   0.000  0.00  0.00    +0.053 A 
ENDROOT
BRANCH   1  11
ATOM     11  C   UNL     1       2.492  -2.604   0.000  0.00  0.00    +0.070 C 
BRANCH  11  12
ATOM     12  C   UNL     1       3.206  -3.017   0.000  0.00  0.00    +0.123 C 
BRANCH  12  16
ATOM     13  O   UNL     1       4.635  -3.842   0.000  0.00  0.00    -0.249 OA
ATOM     14  C   UNL     1       4.635  -3.017   0.000  0.00  0.00    +0.340 C 
ATOM     15  N   UNL     1       5.349  -2.604   0.000  0.00  0.00    -0.173 NA
ATOM     16  N   UNL     1       3.921  -2.604   0.000  0.00  0.00    -0.187 NA
BRANCH  15  17
ATOM     17  C   UNL     1       6.064  -3.017   0.000  0.00  0.00    +0.193 C 
BRANCH  17  18
ATOM     18  C   UNL     1       6.778  -2.604   0.000  0.00  0.00    -0.054 C 
ATOM     19  C   UNL     1       7.493  -2.192   0.000  0.00  0.00    -0.012 C 
ENDBRANCH  17  18
ENDBRANCH  15  17
ENDBRANCH  12  16
ENDBRANCH  11  12
ENDBRANCH   1  11
TORSDOF 5
