REMARK  Name = 
REMARK  7 active torsions:
REMARK  status: ('A' for Active; 'I' for Inactive)
REMARK    1  A    between atoms: N_1  and  C1*_2
REMARK    2  A    between atoms: C_9  and  N_13
REMARK    3  A    between atoms: C4*_11  and  C5*_21
REMARK    4  A    between atoms: N_13  and  C_16
REMARK    5  A    between atoms: C_16  and  C_19
REMARK    6  A    between atoms: C_16  and  C_20
REMARK    7  A    between atoms: C_20  and  C_24
REMARK                            x       y       z     vdW  Elec       q    Type
REMARK                         _______ _______ _______ _____ _____    ______ ____
ROOT
ATOM      1  N   UNL     1       1.779  -0.254   0.000  0.00  0.00    -0.269 N 
ATOM      2  C   UNL     1       1.292   0.412   0.000  0.00  0.00    +0.182 A 
ATOM      3  N   UNL     1       1.779   1.083   0.000  0.00  0.00    -0.219 NA
ATOM      4  C   UNL     1       2.562   0.825   0.000  0.00  0.00    +0.150 A 
ATOM      5  C   UNL     1       3.275   1.238   0.000  0.00  0.00    +0.170 A 
ATOM      6  N   UNL     1       3.992   0.825   0.000  0.00  0.00    -0.206 NA
ATOM      7  C   UNL     1       3.992   0.000   0.000  0.00  0.00    +0.202 A 
ATOM      8  N   UNL     1       3.275  -0.412   0.000  0.00  0.00    -0.205 NA
ATOM      9  C   UNL     1       2.562   0.000   0.000  0.00  0.00    +0.169 A 
ENDROOT
BRANCH   1  10
ATOM     10  C1* UNL     1       1.521  -1.038   0.000  0.00  0.00    +0.241 C 
ATOM     11  O4* UNL     1       2.008  -1.704   0.000  0.00  0.00    -0.331 OA
ATOM     12  C4* UNL     1       1.521  -2.371   0.000  0.00  0.00    +0.183 C 
ATOM     13  C3* UNL     1       0.738  -2.117   0.000  0.00  0.00    +0.216 C 
ATOM     14  O3* UNL     1       0.071  -2.604   0.000  0.00  0.00    -0.218 OA
ATOM     15  C2* UNL     1       0.738  -1.292   0.000  0.00  0.00    +0.234 C 
ATOM     16  O2* UNL     1       0.071  -0.808   0.000  0.00  0.00    -0.216 OA
BRANCH  12  17
ATOM     17  C5* UNL     1       1.779  -3.158   0.000  0.00  0.00    +0.214 C 
ATOM     18  O5* UNL     1       1.225  -3.771   0.000  0.00  0.00    -0.218 OA
ENDBRANCH  12  17
ENDBRANCH   1  10
BRANCH   5  19
ATOM     19  N   UNL     1       3.275   2.062   0.000  0.00  0.00    -0.221 NA
BRANCH  19  20
ATOM     20  C   UNL     1       3.992   2.475   0.000  0.00  0.00    +0.097 C 
BRANCH  20  21
ATOM     21  C   UNL     1       4.704   2.062   0.000  0.00  0.00    +0.020 C 
ATOM     22  C   UNL     1       4.704   1.238   0.000  0.00  0.00    +0.002 C 
ATOM     23  C   UNL     1       5.421   0.825   0.000  0.00  0.00    +0.000 C 
ATOM     24  C   UNL     1       6.133   1.238   0.000  0.00  0.00    +0.000 C 
ATOM     25  C   UNL     1       6.133   2.062   0.000  0.00  0.00    +0.000 C 
ATOM     26  C   UNL     1       5.421   2.475   0.000  0.00  0.00    +0.002 C 
ENDBRANCH  20  21
BRANCH  20  27
ATOM     27  C   UNL     1       3.992   3.300   0.000  0.00  0.00    +0.057 C 
BRANCH  27  28
ATOM     28  C   UNL     1       3.275   3.712   0.000  0.00  0.00    +0.184 C 
ATOM     29  O   UNL     1       3.275   4.533   0.000  0.00  0.00    -0.220 OA
ENDBRANCH  27  28
ENDBRANCH  20  27
ENDBRANCH  19  20
ENDBRANCH   5  19
TORSDOF 7
