REMARK  Name = 
REMARK  6 active torsions:
REMARK  status: ('A' for Active; 'I' for Inactive)
REMARK    1  A    between atoms: C_8  and  C_9
REMARK    2  A    between atoms: C_9  and  N_10
REMARK    3  A    between atoms: N_10  and  C_11
REMARK    4  A    between atoms: C_11  and  C_12
REMARK    5  A    between atoms: C_12  and  N_13
REMARK    6  A    between atoms: C_17  and  C_18
REMARK                            x       y       z     vdW  Elec       q    Type
REMARK                         _______ _______ _______ _____ _____    ______ ____
ROOT
ATOM      1  N   UNL     1       2.143  -1.238   0.000  0.00  0.00    -0.216 NA
ENDROOT
BRANCH   1   2
ATOM      2  C   UNL     1       1.429  -0.825   0.000  0.00  0.00    +0.093 C 
BRANCH   2   5
ATOM      3  C   UNL     1       1.429  -2.475   0.000  0.00  0.00    +0.000 C 
ATOM      4  C   UNL     1       0.715  -2.062   0.000  0.00  0.00    +0.005 C 
ATOM      5  C   UNL     1       0.715  -1.238   0.000  0.00  0.00    +0.035 C 
ATOM      6  C   UNL     1       0.000  -0.825   0.000  0.00  0.00    -0.047 C 
ATOM      7  C   UNL     1       0.000   0.000   0.000  0.00  0.00    +0.026 C 
ATOM      8  C   UNL     1      -0.715  -1.238   0.000  0.00  0.00    -0.035 C 
ATOM      9  C   UNL     1      -0.715  -2.062   0.000  0.00  0.00    +0.025 C 
ATOM     10  C   UNL     1       0.000  -2.475   0.000  0.00  0.00    +0.005 C 
ENDBRANCH   2   5
ENDBRANCH   1   2
BRANCH   1  11
ATOM     11  C   UNL     1       2.858  -0.825   0.000  0.00  0.00    +0.113 C 
BRANCH  11  12
ATOM     12  C   UNL     1       3.572  -1.238   0.000  0.00  0.00    +0.128 C 
BRANCH  12  13
ATOM     13  N   UNL     1       4.287  -0.825   0.000  0.00  0.00    -0.295 N 
ATOM     14  C   UNL     1       5.040  -1.161   0.000  0.00  0.00    +0.143 A 
ATOM     15  N   UNL     1       5.593  -0.547   0.000  0.00  0.00    -0.133 NA
ATOM     16  N   UNL     1       5.180   0.167   0.000  0.00  0.00    -0.126 NA
ATOM     17  C   UNL     1       4.373  -0.004   0.000  0.00  0.00    +0.202 A 
BRANCH  14  18
ATOM     18  C   UNL     1       5.212  -1.968   0.000  0.00  0.00    +0.059 C 
ATOM     19  C   UNL     1       4.957  -2.752   0.000  0.00  0.00    +0.008 C 
ATOM     20  C   UNL     1       5.764  -2.581   0.000  0.00  0.00    +0.008 C 
ENDBRANCH  14  18
ENDBRANCH  12  13
ENDBRANCH  11  12
ENDBRANCH   1  11
TORSDOF 6
