REMARK  Name = 
REMARK  4 active torsions:
REMARK  status: ('A' for Active; 'I' for Inactive)
REMARK    1  A    between atoms: C_8  and  C_9
REMARK    2  A    between atoms: N_15  and  C_16
REMARK    3  A    between atoms: C_16  and  C_17
REMARK    4  A    between atoms: C_17  and  C_18
REMARK                            x       y       z     vdW  Elec       q    Type
REMARK                         _______ _______ _______ _____ _____    ______ ____
ROOT
ATOM      1  C   UNL     1      -0.184  -0.606   0.000  0.00  0.00    +0.002 C 
ATOM      2  C   UNL     1      -0.715  -1.238   0.000  0.00  0.00    +0.026 C 
ATOM      3  C   UNL     1      -1.429  -1.650   0.000  0.00  0.00    +0.098 C 
ATOM      4  C   UNL     1      -1.429  -2.475   0.000  0.00  0.00    +0.030 C 
ATOM      5  C   UNL     1      -0.715  -2.888   0.000  0.00  0.00    +0.095 C 
ATOM      6  N   UNL     1       0.000  -2.475   0.000  0.00  0.00    -0.263 N 
ATOM      7  C   UNL     1       0.715  -2.888   0.000  0.00  0.00    +0.323 C 
ATOM      8  N   UNL     1       1.429  -2.475   0.000  0.00  0.00    -0.188 NA
ATOM      9  O   UNL     1       0.715  -3.712   0.000  0.00  0.00    -0.251 OA
ATOM     10  C   UNL     1       0.000  -1.650   0.000  0.00  0.00    +0.095 C 
ATOM     11  C   UNL     1      -1.245  -0.606   0.000  0.00  0.00    +0.002 C 
ENDROOT
BRANCH   3  12
ATOM     12  C   UNL     1      -2.143  -1.238   0.000  0.00  0.00    +0.398 C 
ATOM     13  F   UNL     1      -1.731  -0.523   0.000  0.00  0.00    -0.170 F 
ATOM     14  F   UNL     1      -2.556  -1.952   0.000  0.00  0.00    -0.170 F 
ATOM     15  F   UNL     1      -2.858  -0.825   0.000  0.00  0.00    -0.170 F 
ENDBRANCH   3  12
BRANCH   8  16
ATOM     16  C   UNL     1       2.143  -2.888   0.000  0.00  0.00    +0.122 C 
BRANCH  16  17
ATOM     17  C   UNL     1       2.858  -2.475   0.000  0.00  0.00    +0.051 C 
BRANCH  17  18
ATOM     18  C   UNL     1       3.572  -2.888   0.000  0.00  0.00    -0.001 A 
ATOM     19  C   UNL     1       3.572  -3.712   0.000  0.00  0.00    +0.095 A 
ATOM     20  N   UNL     1       4.287  -4.125   0.000  0.00  0.00    -0.243 NA
ATOM     21  C   UNL     1       5.001  -3.712   0.000  0.00  0.00    +0.099 A 
ATOM     22  C   UNL     1       5.001  -2.888   0.000  0.00  0.00    +0.020 A 
ATOM     23  C   UNL     1       4.287  -2.475   0.000  0.00  0.00    -0.001 A 
ENDBRANCH  17  18
ENDBRANCH  16  17
ENDBRANCH   8  16
TORSDOF 4
