REMARK  Name = 
REMARK  5 active torsions:
REMARK  status: ('A' for Active; 'I' for Inactive)
REMARK    1  A    between atoms: C_2  and  C_4
REMARK    2  A    between atoms: C_4  and  S_5
REMARK    3  A    between atoms: S_5  and  C_6
REMARK    4  A    between atoms: C_10  and  C_11
REMARK    5  A    between atoms: C_11  and  C_12
REMARK                            x       y       z     vdW  Elec       q    Type
REMARK                         _______ _______ _______ _____ _____    ______ ____
ROOT
ATOM      1  C   UNL     1       0.715   1.238   0.000  0.00  0.00    +0.193 A 
ATOM      2  N   UNL     1       0.000   0.825   0.000  0.00  0.00    -0.183 NA
ATOM      3  C   UNL     1       0.000   0.000   0.000  0.00  0.00    +0.279 A 
ATOM      4  O   UNL     1      -0.715  -0.412   0.000  0.00  0.00    -0.265 OA
ATOM      5  C   UNL     1       0.715  -0.412   0.000  0.00  0.00    +0.061 A 
ATOM      6  C   UNL     1       1.429   0.000   0.000  0.00  0.00    +0.063 A 
ATOM      7  C   UNL     1       2.143  -0.412   0.000  0.00  0.00    +0.052 C 
ATOM      8  N   UNL     1       1.429   0.825   0.000  0.00  0.00    -0.226 NA
ENDROOT
BRANCH   1   9
ATOM      9  S   UNL     1       0.715   2.062   0.000  0.00  0.00    -0.071 S 
BRANCH   9  10
ATOM     10  C   UNL     1       0.000   2.475   0.000  0.00  0.00    +0.087 C 
BRANCH  10  12
ATOM     11  C   UNL     1      -0.715   3.712   0.000  0.00  0.00    +0.027 C 
ATOM     12  C   UNL     1       0.000   3.300   0.000  0.00  0.00    -0.033 C 
ATOM     13  C   UNL     1       0.715   3.712   0.000  0.00  0.00    -0.008 C 
ENDBRANCH  10  12
ENDBRANCH   9  10
ENDBRANCH   1   9
BRANCH   5  14
ATOM     14  C   UNL     1       0.715  -1.238   0.000  0.00  0.00    +0.146 C 
BRANCH  14  15
ATOM     15  C   UNL     1       0.000  -1.650   0.000  0.00  0.00    +0.369 C 
ATOM     16  O   UNL     1      -0.715  -1.238   0.000  0.00  0.00    -0.245 OA
ATOM     17  O   UNL     1       0.000  -2.475   0.000  0.00  0.00    -0.245 OA
ENDBRANCH  14  15
ENDBRANCH   5  14
TORSDOF 5
