REMARK  Name = 
REMARK  7 active torsions:
REMARK  status: ('A' for Active; 'I' for Inactive)
REMARK    1  A    between atoms: N_5  and  C_6
REMARK    2  A    between atoms: C_6  and  C_7
REMARK    3  A    between atoms: C_7  and  N_8
REMARK    4  A    between atoms: N_8  and  C_9
REMARK    5  A    between atoms: C_9  and  C_10
REMARK    6  A    between atoms: N_12  and  C_13
REMARK    7  A    between atoms: C_13  and  C_18
REMARK                            x       y       z     vdW  Elec       q    Type
REMARK                         _______ _______ _______ _____ _____    ______ ____
ROOT
ATOM      1  C   UNL     1       4.357  -3.142   0.000  0.00  0.00    +0.175 C 
ENDROOT
BRANCH   1   2
ATOM      2  C   UNL     1       5.071  -2.730   0.000  0.00  0.00    +0.260 C 
ATOM      3  N   UNL     1       5.786  -3.142   0.000  0.00  0.00    -0.193 NA
ATOM      4  O   UNL     1       5.071  -1.905   0.000  0.00  0.00    -0.272 OA
BRANCH   3   5
ATOM      5  C   UNL     1       6.500  -2.730   0.000  0.00  0.00    +0.157 C 
ATOM      6  C   UNL     1       6.836  -3.484   0.000  0.00  0.00    +0.034 C 
ATOM      7  C   UNL     1       7.656  -3.397   0.000  0.00  0.00    +0.003 C 
ATOM      8  C   UNL     1       7.828  -2.590   0.000  0.00  0.00    +0.003 C 
ATOM      9  C   UNL     1       7.114  -2.178   0.000  0.00  0.00    +0.034 C 
BRANCH   5  10
ATOM     10  C   UNL     1       6.016  -2.062   0.000  0.00  0.00    +0.091 C 
ATOM     11  N   UNL     1       5.530  -1.395   0.000  0.00  0.00    -0.194 NA
ENDBRANCH   5  10
ENDBRANCH   3   5
ENDBRANCH   1   2
BRANCH   1  12
ATOM     12  N   UNL     1       3.643  -2.730   0.000  0.00  0.00    -0.206 NA
BRANCH  12  13
ATOM     13  C   UNL     1       2.928  -3.142   0.000  0.00  0.00    +0.116 C 
BRANCH  13  14
ATOM     14  C   UNL     1       2.214  -2.730   0.000  0.00  0.00    +0.146 C 
BRANCH  14  18
ATOM     15  C   UNL     1       0.270  -4.888   0.000  0.00  0.00    +0.034 C 
ATOM     16  C   UNL     1       0.606  -4.134   0.000  0.00  0.00    +0.018 A 
ATOM     17  C   UNL     1       1.413  -3.963   0.000  0.00  0.00    +0.092 A 
ATOM     18  N   UNL     1       1.499  -3.142   0.000  0.00  0.00    -0.248 N 
ATOM     19  N   UNL     1       0.745  -2.807   0.000  0.00  0.00    -0.168 NA
ATOM     20  C   UNL     1       0.193  -3.420   0.000  0.00  0.00    +0.117 A 
ENDBRANCH  14  18
ENDBRANCH  13  14
ENDBRANCH  12  13
ENDBRANCH   1  12
TORSDOF 7
