REMARK  Name = 
REMARK  4 active torsions:
REMARK  status: ('A' for Active; 'I' for Inactive)
REMARK    1  A    between atoms: C_2  and  C_3
REMARK    2  A    between atoms: C_9  and  N_10
REMARK    3  A    between atoms: C_11  and  C_13
REMARK    4  A    between atoms: C_13  and  C_14
REMARK                            x       y       z     vdW  Elec       q    Type
REMARK                         _______ _______ _______ _____ _____    ______ ____
ROOT
ATOM      1  C   UNL     1      -0.492  -1.098   0.000  0.00  0.00    +0.053 C 
ATOM      2  C   UNL     1       0.190  -0.633   0.000  0.00  0.00    +0.098 C 
ATOM      3  C   UNL     1       0.252   0.189   0.000  0.00  0.00    +0.022 C 
ATOM      4  C   UNL     1      -0.353   0.751   0.000  0.00  0.00    +0.002 C 
ATOM      5  C   UNL     1      -1.169   0.628   0.000  0.00  0.00    +0.000 C 
ATOM      6  C   UNL     1      -1.581  -0.087   0.000  0.00  0.00    +0.000 C 
ATOM      7  C   UNL     1      -1.280  -0.855   0.000  0.00  0.00    +0.004 C 
ENDROOT
BRANCH   2   8
ATOM      8  N   UNL     1       0.904  -1.046   0.000  0.00  0.00    -0.207 NA
ATOM      9  C   UNL     1       0.904  -1.871   0.000  0.00  0.00    +0.247 C 
ATOM     10  O   UNL     1       0.190  -2.283   0.000  0.00  0.00    -0.273 OA
BRANCH   9  11
ATOM     11  C   UNL     1       1.619  -2.283   0.000  0.00  0.00    +0.136 C 
BRANCH  11  12
ATOM     12  C   UNL     1       1.619  -3.108   0.000  0.00  0.00    +0.110 A 
ATOM     13  N   UNL     1       0.951  -3.593   0.000  0.00  0.00    -0.081 NA
ATOM     14  O   UNL     1       1.206  -4.378   0.000  0.00  0.00    -0.350 OA
ATOM     15  C   UNL     1       2.031  -4.378   0.000  0.00  0.00    +0.213 A 
ATOM     16  C   UNL     1       2.286  -3.593   0.000  0.00  0.00    +0.062 A 
ENDBRANCH  11  12
ENDBRANCH   9  11
ENDBRANCH   2   8
BRANCH   1  18
ATOM     17  O   UNL     1      -1.014  -2.428   0.000  0.00  0.00    -0.220 OA
ATOM     18  C   UNL     1      -0.369  -1.914   0.000  0.00  0.00    +0.184 C 
ENDBRANCH   1  18
TORSDOF 4
