REMARK  Name = 
REMARK  5 active torsions:
REMARK  status: ('A' for Active; 'I' for Inactive)
REMARK    1  A    between atoms: C_2  and  N_3
REMARK    2  A    between atoms: C_2  and  C_7
REMARK    3  A    between atoms: N_15  and  C_16
REMARK    4  A    between atoms: C_16  and  C_17
REMARK    5  A    between atoms: C_17  and  C_19
REMARK                            x       y       z     vdW  Elec       q    Type
REMARK                         _______ _______ _______ _____ _____    ______ ____
ROOT
ATOM      1  C   UNL     1       0.654  -0.698   0.000  0.00  0.00    +0.140 A 
ATOM      2  N   UNL     1       1.139  -1.365   0.000  0.00  0.00    -0.311 N 
ATOM      3  C   UNL     1       1.923  -1.110   0.000  0.00  0.00    +0.079 A 
ATOM      4  C   UNL     1       1.923  -0.285   0.000  0.00  0.00    +0.098 A 
ATOM      5  C   UNL     1       2.638   0.127   0.000  0.00  0.00    +0.021 A 
ATOM      6  C   UNL     1       3.352  -0.285   0.000  0.00  0.00    +0.002 A 
ATOM      7  C   UNL     1       3.352  -1.110   0.000  0.00  0.00    +0.002 A 
ATOM      8  C   UNL     1       2.638  -1.523   0.000  0.00  0.00    +0.019 A 
ATOM      9  N   UNL     1       1.139  -0.030   0.000  0.00  0.00    -0.229 NA
ENDROOT
BRANCH   1  11
ATOM     10  C   UNL     1      -0.584  -1.412   0.000  0.00  0.00    +0.032 C 
ATOM     11  C   UNL     1      -0.171  -0.698   0.000  0.00  0.00    +0.152 C 
BRANCH  11  12
ATOM     12  N   UNL     1      -0.584   0.017   0.000  0.00  0.00    -0.199 NA
ATOM     13  C   UNL     1      -1.409   0.017   0.000  0.00  0.00    +0.242 C 
ATOM     14  C   UNL     1      -1.821  -0.698   0.000  0.00  0.00    +0.096 C 
ATOM     15  O   UNL     1      -1.821   0.731   0.000  0.00  0.00    -0.273 OA
ENDBRANCH  11  12
ENDBRANCH   1  11
BRANCH   2  16
ATOM     16  C   UNL     1       0.884  -2.150   0.000  0.00  0.00    +0.145 C 
BRANCH  16  17
ATOM     17  C   UNL     1       1.436  -2.763   0.000  0.00  0.00    +0.197 C 
ATOM     18  O   UNL     1       2.243  -2.592   0.000  0.00  0.00    -0.216 OA
BRANCH  17  19
ATOM     19  C   UNL     1       1.181  -3.548   0.000  0.00  0.00    +0.012 A 
ATOM     20  C   UNL     1       1.733  -4.161   0.000  0.00  0.00    +0.028 A 
ATOM     21  C   UNL     1       1.478  -4.945   0.000  0.00  0.00    +0.140 A 
ATOM     22  F   UNL     1       2.030  -5.559   0.000  0.00  0.00    -0.204 F 
ATOM     23  C   UNL     1       0.671  -5.117   0.000  0.00  0.00    +0.030 A 
ATOM     24  C   UNL     1       0.119  -4.504   0.000  0.00  0.00    +0.002 A 
ATOM     25  C   UNL     1       0.374  -3.719   0.000  0.00  0.00    -0.002 A 
ENDBRANCH  17  19
ENDBRANCH  16  17
ENDBRANCH   2  16
TORSDOF 5
