REMARK  Name = 
REMARK  5 active torsions:
REMARK  status: ('A' for Active; 'I' for Inactive)
REMARK    1  A    between atoms: N_2  and  S_4
REMARK    2  A    between atoms: S_4  and  C_7
REMARK    3  A    between atoms: N_12  and  C_13
REMARK    4  A    between atoms: C_13  and  C_14
REMARK    5  A    between atoms: N_19  and  C_20
REMARK                            x       y       z     vdW  Elec       q    Type
REMARK                         _______ _______ _______ _____ _____    ______ ____
ROOT
ATOM      1  C   UNL     1       0.715  -0.412   0.000  0.00  0.00    +0.140 A 
ATOM      2  C   UNL     1       1.429   0.000   0.000  0.00  0.00    +0.099 A 
ATOM      3  N   UNL     1       1.429   0.825   0.000  0.00  0.00    -0.284 N 
ATOM      4  C   UNL     1       0.715   1.238   0.000  0.00  0.00    +0.261 A 
ATOM      5  O   UNL     1       0.715   2.062   0.000  0.00  0.00    -0.267 OA
ATOM      6  C   UNL     1       0.000   0.825   0.000  0.00  0.00    +0.062 A 
ATOM      7  C   UNL     1       0.000   0.000   0.000  0.00  0.00    +0.026 A 
ENDROOT
BRANCH   1   8
ATOM      8  S   UNL     1       0.715  -1.238   0.000  0.00  0.00    +0.065 S 
ATOM      9  O   UNL     1      -0.111  -1.238   0.000  0.00  0.00    -0.153 OA
ATOM     10  O   UNL     1       1.540  -1.238   0.000  0.00  0.00    -0.153 OA
BRANCH   8  12
ATOM     11  C   UNL     1       0.000  -2.475   0.000  0.00  0.00    +0.115 C 
ATOM     12  N   UNL     1       0.715  -2.062   0.000  0.00  0.00    -0.153 NA
ATOM     13  C   UNL     1       1.429  -2.475   0.000  0.00  0.00    +0.115 C 
ENDBRANCH   8  12
ENDBRANCH   1   8
BRANCH   3  14
ATOM     14  C   UNL     1       2.143   1.238   0.000  0.00  0.00    +0.196 C 
BRANCH  14  15
ATOM     15  C   UNL     1       2.858   0.825   0.000  0.00  0.00    +0.272 C 
ATOM     16  N   UNL     1       3.572   1.238   0.000  0.00  0.00    -0.125 NA
ATOM     17  C   UNL     1       4.287   0.825   0.000  0.00  0.00    +0.346 C 
ATOM     18  N   UNL     1       5.001   1.238   0.000  0.00  0.00    -0.189 NA
ATOM     19  O   UNL     1       4.287   0.000   0.000  0.00  0.00    -0.249 OA
ATOM     20  O   UNL     1       2.858   0.000   0.000  0.00  0.00    -0.271 OA
BRANCH  18  21
ATOM     21  C   UNL     1       5.716   0.825   0.000  0.00  0.00    +0.097 C 
ATOM     22  C   UNL     1       6.128   0.111   0.000  0.00  0.00    +0.023 C 
ATOM     23  C   UNL     1       6.541   0.825   0.000  0.00  0.00    +0.023 C 
ENDBRANCH  18  21
ENDBRANCH  14  15
ENDBRANCH   3  14
TORSDOF 5
