REMARK  Name = 
REMARK  5 active torsions:
REMARK  status: ('A' for Active; 'I' for Inactive)
REMARK    1  A    between atoms: C_8  and  C_9
REMARK    2  A    between atoms: C_9  and  N_10
REMARK    3  A    between atoms: N_10  and  C_11
REMARK    4  A    between atoms: C_11  and  C_12
REMARK    5  A    between atoms: C_12  and  C_13
REMARK                            x       y       z     vdW  Elec       q    Type
REMARK                         _______ _______ _______ _____ _____    ______ ____
ROOT
ATOM      1  C   UNL     1       1.429  -0.825   0.000  0.00  0.00    +0.093 C 
ENDROOT
BRANCH   1   4
ATOM      2  C   UNL     1       1.429  -2.475   0.000  0.00  0.00    +0.000 C 
ATOM      3  C   UNL     1       0.715  -2.062   0.000  0.00  0.00    +0.005 C 
ATOM      4  C   UNL     1       0.715  -1.238   0.000  0.00  0.00    +0.035 C 
ATOM      5  C   UNL     1       0.000  -0.825   0.000  0.00  0.00    -0.047 C 
ATOM      6  C   UNL     1       0.000   0.000   0.000  0.00  0.00    +0.026 C 
ATOM      7  C   UNL     1      -0.715  -1.238   0.000  0.00  0.00    -0.035 C 
ATOM      8  C   UNL     1      -0.715  -2.062   0.000  0.00  0.00    +0.025 C 
ATOM      9  C   UNL     1       0.000  -2.475   0.000  0.00  0.00    +0.005 C 
ENDBRANCH   1   4
BRANCH   1  10
ATOM     10  N   UNL     1       2.143  -1.238   0.000  0.00  0.00    -0.217 NA
BRANCH  10  11
ATOM     11  C   UNL     1       2.858  -0.825   0.000  0.00  0.00    +0.093 C 
BRANCH  11  12
ATOM     12  C   UNL     1       3.572  -1.238   0.000  0.00  0.00    +0.048 C 
BRANCH  12  13
ATOM     13  C   UNL     1       4.287  -0.825   0.000  0.00  0.00    +0.019 A 
ATOM     14  C   UNL     1       5.040  -1.161   0.000  0.00  0.00    +0.092 A 
ATOM     15  N   UNL     1       5.593  -0.547   0.000  0.00  0.00    -0.248 N 
ATOM     16  C   UNL     1       6.413  -0.634   0.000  0.00  0.00    +0.154 C 
ATOM     17  N   UNL     1       5.180   0.167   0.000  0.00  0.00    -0.168 NA
ATOM     18  C   UNL     1       4.373  -0.004   0.000  0.00  0.00    +0.117 A 
ENDBRANCH  12  13
ENDBRANCH  11  12
ENDBRANCH  10  11
ENDBRANCH   1  10
TORSDOF 5
