REMARK  Name = 
REMARK  6 active torsions:
REMARK  status: ('A' for Active; 'I' for Inactive)
REMARK    1  A    between atoms: O_2  and  C_3
REMARK    2  A    between atoms: C_3  and  C_4
REMARK    3  A    between atoms: C_4  and  N_5
REMARK    4  A    between atoms: C_6  and  S_7
REMARK    5  A    between atoms: S_7  and  C_8
REMARK    6  A    between atoms: C_8  and  C_9
REMARK                            x       y       z     vdW  Elec       q    Type
REMARK                         _______ _______ _______ _____ _____    ______ ____
ROOT
ATOM      1  N   UNL     1       1.139  -1.365   0.000  0.00  0.00    -0.304 N 
ATOM      2  C   UNL     1       1.923  -1.110   0.000  0.00  0.00    +0.079 A 
ATOM      3  C   UNL     1       1.923  -0.285   0.000  0.00  0.00    +0.100 A 
ATOM      4  C   UNL     1       2.638   0.127   0.000  0.00  0.00    +0.032 A 
ATOM      5  C   UNL     1       3.352  -0.285   0.000  0.00  0.00    +0.059 A 
ATOM      6  C   UNL     1       3.352  -1.110   0.000  0.00  0.00    +0.013 A 
ATOM      7 CL   UNL     1       4.067   0.127   0.000  0.00  0.00    -0.082 Cl
ATOM      8  N   UNL     1       1.139  -0.030   0.000  0.00  0.00    -0.221 NA
ATOM      9  C   UNL     1       2.638  -1.523   0.000  0.00  0.00    +0.020 A 
ATOM     10  C   UNL     1       0.654  -0.698   0.000  0.00  0.00    +0.172 A 
ENDROOT
BRANCH   1  11
ATOM     11  C   UNL     1       0.884  -2.150   0.000  0.00  0.00    +0.140 C 
BRANCH  11  12
ATOM     12  C   UNL     1       1.436  -2.763   0.000  0.00  0.00    +0.167 C 
BRANCH  12  14
ATOM     13  C   UNL     1       1.733  -4.161   0.000  0.00  0.00    +0.174 C 
ATOM     14  O   UNL     1       1.181  -3.548   0.000  0.00  0.00    -0.349 OA
ENDBRANCH  12  14
ENDBRANCH  11  12
ENDBRANCH   1  11
BRANCH  10  15
ATOM     15  S   UNL     1      -0.171  -0.698   0.000  0.00  0.00    -0.069 S 
BRANCH  15  16
ATOM     16  C   UNL     1      -0.584  -1.412   0.000  0.00  0.00    +0.130 C 
BRANCH  16  17
ATOM     17  C   UNL     1      -1.409  -1.412   0.000  0.00  0.00    +0.152 A 
ATOM     18  N   UNL     1      -1.821  -0.698   0.000  0.00  0.00    -0.212 NA
ATOM     19  C   UNL     1      -2.646  -0.698   0.000  0.00  0.00    +0.173 A 
ATOM     20  N   UNL     1      -3.059   0.017   0.000  0.00  0.00    -0.107 NA
ATOM     21  C   UNL     1      -3.059  -1.412   0.000  0.00  0.00    +0.058 A 
ATOM     22  C   UNL     1      -2.646  -2.127   0.000  0.00  0.00    +0.103 A 
ATOM     23  N   UNL     1      -1.821  -2.127   0.000  0.00  0.00    -0.228 NA
ENDBRANCH  16  17
ENDBRANCH  15  16
ENDBRANCH  10  15
TORSDOF 6
