REMARK  Name = 
REMARK  3 active torsions:
REMARK  status: ('A' for Active; 'I' for Inactive)
REMARK    1  A    between atoms: N_1  and  C_10
REMARK    2  A    between atoms: N_2  and  C_11
REMARK    3  A    between atoms: C_7  and  C_10
REMARK                            x       y       z     vdW  Elec       q    Type
REMARK                         _______ _______ _______ _____ _____    ______ ____
ROOT
ATOM      1  N   UNL     1      -0.588  -1.408   0.000  0.00  0.00    -0.240 N 
ATOM      2  C   UNL     1      -0.175  -2.125   0.000  0.00  0.00    +0.294 A 
ATOM      3  O   UNL     1       0.650  -2.125   0.000  0.00  0.00    -0.264 OA
ATOM      4  C   UNL     1      -0.588  -2.837   0.000  0.00  0.00    +0.213 A 
ATOM      5  F   UNL     1      -0.175  -3.554   0.000  0.00  0.00    -0.198 F 
ATOM      6  C   UNL     1      -1.413  -2.837   0.000  0.00  0.00    +0.116 A 
ATOM      7  N   UNL     1      -1.825  -2.125   0.000  0.00  0.00    -0.255 N 
ATOM      8  C   UNL     1      -1.413  -1.408   0.000  0.00  0.00    +0.336 A 
ATOM      9  O   UNL     1      -1.825  -0.696   0.000  0.00  0.00    -0.246 OA
ENDROOT
BRANCH   7  10
ATOM     10  C   UNL     1      -2.650  -2.125   0.000  0.00  0.00    +0.208 C 
ATOM     11  C   UNL     1      -3.133  -2.792   0.000  0.00  0.00    +0.057 C 
ATOM     12  C   UNL     1      -3.917  -2.538   0.000  0.00  0.00    +0.037 C 
ATOM     13  C   UNL     1      -3.917  -1.712   0.000  0.00  0.00    +0.144 C 
ATOM     14  O   UNL     1      -3.133  -1.458   0.000  0.00  0.00    -0.335 OA
ENDBRANCH   7  10
BRANCH   1  15
ATOM     15  C   UNL     1      -0.175  -0.696   0.000  0.00  0.00    +0.166 C 
BRANCH  15  16
ATOM     16  C   UNL     1       0.650  -0.696   0.000  0.00  0.00    +0.111 A 
ATOM     17  S   UNL     1       1.137  -1.363   0.000  0.00  0.00    -0.069 S 
ATOM     18  C   UNL     1       1.921  -1.108   0.000  0.00  0.00    +0.048 A 
ATOM     19  C   UNL     1       1.921  -0.283   0.000  0.00  0.00    +0.088 A 
ATOM     20  C   UNL     1       2.638   0.129   0.000  0.00  0.00    +0.020 A 
ATOM     21  C   UNL     1       3.350  -0.283   0.000  0.00  0.00    +0.002 A 
ATOM     22  C   UNL     1       3.350  -1.108   0.000  0.00  0.00    +0.001 A 
ATOM     23  C   UNL     1       2.638  -1.521   0.000  0.00  0.00    +0.008 A 
ATOM     24  N   UNL     1       1.137  -0.029   0.000  0.00  0.00    -0.241 NA
ENDBRANCH  15  16
ENDBRANCH   1  15
TORSDOF 3
