REMARK  Name = 
REMARK  5 active torsions:
REMARK  status: ('A' for Active; 'I' for Inactive)
REMARK    1  A    between atoms: C_2  and  C_4
REMARK    2  A    between atoms: C_2  and  C_15
REMARK    3  A    between atoms: C_4  and  N_5
REMARK    4  A    between atoms: C_6  and  C_8
REMARK    5  A    between atoms: C_8  and  C_13
REMARK                            x       y       z     vdW  Elec       q    Type
REMARK                         _______ _______ _______ _____ _____    ______ ____
ROOT
ATOM      1  C   UNL     1       1.511  -1.667   0.000  0.00  0.00    +0.119 C 
ENDROOT
BRANCH   1   3
ATOM      2  C   UNL     1       2.551  -1.138   0.000  0.00  0.00    +0.006 C 
ATOM      3  C   UNL     1       1.766  -0.883   0.000  0.00  0.00    +0.039 C 
ATOM      4  C   UNL     1       0.982  -0.628   0.000  0.00  0.00    +0.006 C 
BRANCH   3   5
ATOM      5  C   UNL     1       2.021  -0.098   0.000  0.00  0.00    -0.018 A 
ATOM      6  C   UNL     1       2.828   0.073   0.000  0.00  0.00    +0.016 A 
ATOM      7  C   UNL     1       3.083   0.858   0.000  0.00  0.00    +0.099 A 
ATOM      8  N   UNL     1       2.531   1.471   0.000  0.00  0.00    -0.242 NA
ATOM      9  C   UNL     1       1.724   1.300   0.000  0.00  0.00    +0.099 A 
ATOM     10  C   UNL     1       1.469   0.515   0.000  0.00  0.00    +0.016 A 
ENDBRANCH   3   5
ENDBRANCH   1   3
BRANCH   1  11
ATOM     11  N   UNL     1       2.063  -2.280   0.000  0.00  0.00    -0.204 NA
ATOM     12  C   UNL     1       1.808  -3.065   0.000  0.00  0.00    +0.254 C 
ATOM     13  O   UNL     1       1.001  -3.237   0.000  0.00  0.00    -0.272 OA
BRANCH  12  14
ATOM     14  C   UNL     1       2.360  -3.678   0.000  0.00  0.00    +0.149 C 
ATOM     15  C   UNL     1       1.693  -4.163   0.000  0.00  0.00    +0.023 C 
ATOM     16  C   UNL     1       1.948  -4.948   0.000  0.00  0.00    +0.002 C 
ATOM     17  C   UNL     1       2.773  -4.948   0.000  0.00  0.00    +0.002 C 
ATOM     18  C   UNL     1       3.028  -4.163   0.000  0.00  0.00    +0.023 C 
BRANCH  14  19
ATOM     19  C   UNL     1       2.912  -3.065   0.000  0.00  0.00    +0.080 C 
ATOM     20  N   UNL     1       3.464  -2.452   0.000  0.00  0.00    -0.195 NA
ENDBRANCH  14  19
ENDBRANCH  12  14
ENDBRANCH   1  11
TORSDOF 5
