REMARK  Name = 
REMARK  2 active torsions:
REMARK  status: ('A' for Active; 'I' for Inactive)
REMARK    1  A    between atoms: C_2  and  N_3
REMARK    2  A    between atoms: C_2  and  C_13
REMARK                            x       y       z     vdW  Elec       q    Type
REMARK                         _______ _______ _______ _____ _____    ______ ____
ROOT
ATOM      1  C   UNL     1       4.287  -4.950   0.000  0.00  0.00    +0.033 C 
ATOM      2  C   UNL     1       4.287  -4.125   0.000  0.00  0.00    +0.173 C 
ENDROOT
BRANCH   2   3
ATOM      3  C   UNL     1       5.001  -3.712   0.000  0.00  0.00    +0.246 C 
ATOM      4  N   UNL     1       5.716  -4.125   0.000  0.00  0.00    -0.275 N 
ATOM      5  C   UNL     1       5.716  -4.950   0.000  0.00  0.00    +0.119 C 
ATOM      6  C   UNL     1       6.430  -5.362   0.000  0.00  0.00    +0.172 C 
ATOM      7  S   UNL     1       7.145  -4.950   0.000  0.00  0.00    -0.007 S 
ATOM      8  O   UNL     1       7.427  -5.725   0.000  0.00  0.00    -0.173 OA
ATOM      9  O   UNL     1       7.957  -4.807   0.000  0.00  0.00    -0.173 OA
ATOM     10  C   UNL     1       7.145  -4.125   0.000  0.00  0.00    +0.172 C 
ATOM     11  C   UNL     1       6.430  -3.712   0.000  0.00  0.00    +0.119 C 
ATOM     12  O   UNL     1       5.001  -2.888   0.000  0.00  0.00    -0.273 OA
ENDBRANCH   2   3
BRANCH   2  13
ATOM     13  N   UNL     1       3.572  -3.712   0.000  0.00  0.00    -0.179 NA
ATOM     14  C   UNL     1       2.858  -4.125   0.000  0.00  0.00    +0.345 C 
ATOM     15  N   UNL     1       2.143  -3.712   0.000  0.00  0.00    -0.142 NA
ATOM     16  C   UNL     1       1.429  -4.125   0.000  0.00  0.00    +0.156 A 
ATOM     17  N   UNL     1       0.715  -3.712   0.000  0.00  0.00    -0.227 NA
ATOM     18  C   UNL     1       0.000  -4.125   0.000  0.00  0.00    +0.100 A 
ATOM     19  C   UNL     1       0.000  -4.950   0.000  0.00  0.00    +0.021 A 
ATOM     20  C   UNL     1       0.715  -5.362   0.000  0.00  0.00    +0.005 A 
ATOM     21  C   UNL     1       1.429  -4.950   0.000  0.00  0.00    +0.036 A 
ATOM     22  O   UNL     1       2.858  -4.950   0.000  0.00  0.00    -0.249 OA
ENDBRANCH   2  13
TORSDOF 2
