REMARK  Name = 
REMARK  4 active torsions:
REMARK  status: ('A' for Active; 'I' for Inactive)
REMARK    1  A    between atoms: C_2  and  C_3
REMARK    2  A    between atoms: C_3  and  N_4
REMARK    3  A    between atoms: N_9  and  C_10
REMARK    4  A    between atoms: N_13  and  C_16
REMARK                            x       y       z     vdW  Elec       q    Type
REMARK                         _______ _______ _______ _____ _____    ______ ____
ROOT
ATOM      1  O   UNL     1      -0.715   6.315   0.000  0.00  0.00    -0.271 OA
ATOM      2  C   UNL     1       0.000   6.728   0.000  0.00  0.00    +0.266 C 
ATOM      3  N   UNL     1       0.715   6.315   0.000  0.00  0.00    -0.205 NA
ENDROOT
BRANCH   3   4
ATOM      4  C   UNL     1       0.715   5.490   0.000  0.00  0.00    +0.098 C 
ATOM      5  C   UNL     1       0.000   5.078   0.000  0.00  0.00    +0.039 C 
ATOM      6  C   UNL     1       0.000   4.253   0.000  0.00  0.00    +0.074 C 
ATOM      7  N   UNL     1       0.715   3.840   0.000  0.00  0.00    -0.274 NA
ATOM      8  C   UNL     1       1.429   4.253   0.000  0.00  0.00    +0.074 C 
ATOM      9  C   UNL     1       1.429   5.078   0.000  0.00  0.00    +0.039 C 
BRANCH   7  10
ATOM     10  C   UNL     1       0.715   3.015   0.000  0.00  0.00    +0.058 C 
ATOM     11  C   UNL     1       0.302   2.301   0.000  0.00  0.00    +0.017 C 
ATOM     12  C   UNL     1       1.127   2.301   0.000  0.00  0.00    +0.017 C 
ENDBRANCH   7  10
ENDBRANCH   3   4
BRANCH   2  13
ATOM     13  C   UNL     1       0.000   7.553   0.000  0.00  0.00    +0.217 C 
BRANCH  13  14
ATOM     14  N   UNL     1      -0.715   7.965   0.000  0.00  0.00    -0.201 N 
ATOM     15  N   UNL     1      -0.801   8.786   0.000  0.00  0.00    -0.042 NA
ATOM     16  N   UNL     1      -1.608   8.957   0.000  0.00  0.00    -0.023 NA
ATOM     17  N   UNL     1      -2.020   8.243   0.000  0.00  0.00    -0.105 NA
ATOM     18  C   UNL     1      -1.468   7.630   0.000  0.00  0.00    +0.222 A 
ENDBRANCH  13  14
ENDBRANCH   2  13
TORSDOF 4
