REMARK  Name = 
REMARK  6 active torsions:
REMARK  status: ('A' for Active; 'I' for Inactive)
REMARK    1  A    between atoms: C_4  and  C_5
REMARK    2  A    between atoms: C_5  and  C_6
REMARK    3  A    between atoms: C_6  and  N_7
REMARK    4  A    between atoms: N_7  and  S_8
REMARK    5  A    between atoms: S_8  and  C_11
REMARK    6  A    between atoms: C_11  and  C_12
REMARK                            x       y       z     vdW  Elec       q    Type
REMARK                         _______ _______ _______ _____ _____    ______ ____
ROOT
ATOM      1  S   UNL     1       5.881  -6.557   0.000  0.00  0.00    +0.057 S 
ATOM      2  O   UNL     1       5.795  -5.737   0.000  0.00  0.00    -0.156 OA
ATOM      3  O   UNL     1       5.967  -7.377   0.000  0.00  0.00    -0.156 OA
ENDROOT
BRANCH   1   4
ATOM      4  C   UNL     1       6.702  -6.471   0.000  0.00  0.00    +0.170 C 
BRANCH   4   5
ATOM      5  C   UNL     1       7.187  -7.138   0.000  0.00  0.00    +0.025 C 
ATOM      6  C   UNL     1       6.851  -7.892   0.000  0.00  0.00    +0.002 C 
ATOM      7  C   UNL     1       7.336  -8.559   0.000  0.00  0.00    +0.000 C 
ATOM      8  C   UNL     1       8.156  -8.473   0.000  0.00  0.00    +0.000 C 
ATOM      9  C   UNL     1       8.492  -7.719   0.000  0.00  0.00    +0.000 C 
ATOM     10  C   UNL     1       8.007  -7.052   0.000  0.00  0.00    +0.002 C 
ENDBRANCH   4   5
ENDBRANCH   1   4
BRANCH   1  11
ATOM     11  N   UNL     1       5.061  -6.643   0.000  0.00  0.00    -0.082 NA
BRANCH  11  12
ATOM     12  C   UNL     1       4.576  -5.976   0.000  0.00  0.00    +0.120 C 
BRANCH  12  13
ATOM     13  C   UNL     1       3.755  -6.062   0.000  0.00  0.00    +0.050 C 
BRANCH  13  18
ATOM     14  C   UNL     1       2.858  -3.300   0.000  0.00  0.00    +0.154 C 
ATOM     15  N   UNL     1       2.858  -4.125   0.000  0.00  0.00    -0.248 N 
ATOM     16  N   UNL     1       2.190  -4.610   0.000  0.00  0.00    -0.168 NA
ATOM     17  C   UNL     1       2.445  -5.394   0.000  0.00  0.00    +0.117 A 
ATOM     18  C   UNL     1       3.270  -5.394   0.000  0.00  0.00    +0.019 A 
ATOM     19  C   UNL     1       3.525  -4.610   0.000  0.00  0.00    +0.092 A 
ENDBRANCH  13  18
ENDBRANCH  12  13
ENDBRANCH  11  12
ENDBRANCH   1  11
TORSDOF 6
