REMARK  Name = 
REMARK  4 active torsions:
REMARK  status: ('A' for Active; 'I' for Inactive)
REMARK    1  A    between atoms: C_4  and  C_5
REMARK    2  A    between atoms: C_5  and  C_6
REMARK    3  A    between atoms: C_6  and  N_7
REMARK    4  A    between atoms: C_8  and  C_10
REMARK                            x       y       z     vdW  Elec       q    Type
REMARK                         _______ _______ _______ _____ _____    ______ ____
ROOT
ATOM      1  C   UNL     1       2.102  -1.996   0.000  0.00  0.00    +0.122 C 
ENDROOT
BRANCH   1   2
ATOM      2  N   UNL     1       2.816  -2.408   0.000  0.00  0.00    -0.203 NA
ATOM      3  C   UNL     1       3.530  -1.996   0.000  0.00  0.00    +0.269 C 
ATOM      4  O   UNL     1       3.530  -1.171   0.000  0.00  0.00    -0.271 OA
BRANCH   3   5
ATOM      5  C   UNL     1       4.245  -2.408   0.000  0.00  0.00    +0.193 C 
ATOM      6  O   UNL     1       4.331  -3.229   0.000  0.00  0.00    -0.347 OA
ATOM      7  C   UNL     1       5.138  -3.400   0.000  0.00  0.00    +0.143 C 
ATOM      8  C   UNL     1       5.551  -2.686   0.000  0.00  0.00    +0.035 C 
ATOM      9  C   UNL     1       4.999  -2.073   0.000  0.00  0.00    +0.042 C 
ENDBRANCH   3   5
ENDBRANCH   1   2
BRANCH   1  10
ATOM     10  C   UNL     1       1.387  -2.408   0.000  0.00  0.00    +0.070 C 
BRANCH  10  15
ATOM     11  C   UNL     1      -0.556  -0.250   0.000  0.00  0.00    +0.059 C 
ATOM     12  C   UNL     1      -0.221  -1.004   0.000  0.00  0.00    +0.088 A 
ATOM     13  S   UNL     1      -0.633  -1.718   0.000  0.00  0.00    -0.071 S 
ATOM     14  C   UNL     1      -0.081  -2.331   0.000  0.00  0.00    +0.051 A 
ATOM     15  C   UNL     1       0.672  -1.996   0.000  0.00  0.00    +0.067 A 
ATOM     16  N   UNL     1       0.586  -1.175   0.000  0.00  0.00    -0.247 NA
ENDBRANCH  10  15
ENDBRANCH   1  10
TORSDOF 4
