REMARK  Name = 
REMARK  2 active torsions:
REMARK  status: ('A' for Active; 'I' for Inactive)
REMARK    1  A    between atoms: N_8  and  C_9
REMARK    2  A    between atoms: C_10  and  C_11
REMARK                            x       y       z     vdW  Elec       q    Type
REMARK                         _______ _______ _______ _____ _____    ______ ____
ROOT
ATOM      1  C   UNL     1      -0.368   4.954   0.000  0.00  0.00    +0.052 C 
ATOM      2  C   UNL     1      -0.853   4.286   0.000  0.00  0.00    +0.063 A 
ATOM      3  C   UNL     1      -1.678   4.286   0.000  0.00  0.00    +0.024 A 
ATOM      4  C   UNL     1      -2.163   4.954   0.000  0.00  0.00    +0.039 C 
ATOM      5  S   UNL     1      -1.933   3.502   0.000  0.00  0.00    -0.054 S 
ATOM      6  C   UNL     1      -1.265   3.017   0.000  0.00  0.00    +0.187 A 
ATOM      7  N   UNL     1      -1.265   2.192   0.000  0.00  0.00    -0.136 NA
ATOM      8  C   UNL     1      -0.551   1.779   0.000  0.00  0.00    +0.345 C 
ATOM      9  N   UNL     1      -0.551   0.954   0.000  0.00  0.00    -0.189 NA
ATOM     10  O   UNL     1       0.164   2.192   0.000  0.00  0.00    -0.249 OA
ATOM     11  N   UNL     1      -0.598   3.502   0.000  0.00  0.00    -0.227 NA
ENDROOT
BRANCH   9  12
ATOM     12  C   UNL     1       0.164   0.542   0.000  0.00  0.00    +0.099 C 
ATOM     13  C   UNL     1       0.878   0.954   0.000  0.00  0.00    +0.020 C 
ATOM     14  C   UNL     1       0.672   0.129   0.000  0.00  0.00    +0.002 C 
ATOM     15  C   UNL     1       0.878  -0.696   0.000  0.00  0.00    +0.004 C 
ATOM     16  C   UNL     1       1.593  -0.283   0.000  0.00  0.00    +0.000 C 
ATOM     17  C   UNL     1       1.593   0.542   0.000  0.00  0.00    +0.002 C 
ATOM     18  C   UNL     1       0.164  -0.283   0.000  0.00  0.00    +0.053 C 
BRANCH  18  19
ATOM     19  C   UNL     1      -0.551  -0.696   0.000  0.00  0.00    +0.184 C 
ATOM     20  O   UNL     1      -0.551  -1.521   0.000  0.00  0.00    -0.220 OA
ENDBRANCH  18  19
ENDBRANCH   9  12
TORSDOF 2
