REMARK  Name = 
REMARK  6 active torsions:
REMARK  status: ('A' for Active; 'I' for Inactive)
REMARK    1  A    between atoms: O_2  and  C_3
REMARK    2  A    between atoms: C_3  and  C_4
REMARK    3  A    between atoms: C_7  and  C_8
REMARK    4  A    between atoms: C_8  and  C_9
REMARK    5  A    between atoms: C_9  and  N_11
REMARK    6  A    between atoms: C_12  and  C_14
REMARK                            x       y       z     vdW  Elec       q    Type
REMARK                         _______ _______ _______ _____ _____    ______ ____
ROOT
ATOM      1  C   UNL     1       2.102  -1.996   0.000  0.00  0.00    +0.105 C 
ATOM      2  C   UNL     1       2.102  -1.171   0.000  0.00  0.00    +0.024 C 
ENDROOT
BRANCH   1   3
ATOM      3  N   UNL     1       2.816  -2.408   0.000  0.00  0.00    -0.207 NA
ATOM      4  C   UNL     1       3.530  -1.996   0.000  0.00  0.00    +0.241 C 
ATOM      5  O   UNL     1       3.530  -1.171   0.000  0.00  0.00    -0.273 OA
BRANCH   4   6
ATOM      6  C   UNL     1       4.245  -2.408   0.000  0.00  0.00    +0.078 C 
ATOM      7  C   UNL     1       4.331  -3.229   0.000  0.00  0.00    +0.009 C 
ATOM      8  C   UNL     1       5.138  -3.400   0.000  0.00  0.00    +0.001 C 
ATOM      9  C   UNL     1       5.551  -2.686   0.000  0.00  0.00    +0.001 C 
ATOM     10  C   UNL     1       4.999  -2.073   0.000  0.00  0.00    +0.009 C 
ENDBRANCH   4   6
ENDBRANCH   1   3
BRANCH   1  11
ATOM     11  C   UNL     1       1.387  -2.408   0.000  0.00  0.00    +0.110 C 
BRANCH  11  14
ATOM     12  C   UNL     1      -0.633  -1.718   0.000  0.00  0.00    +0.210 A 
ATOM     13  N   UNL     1      -0.081  -2.331   0.000  0.00  0.00    -0.192 NA
ATOM     14  C   UNL     1       0.672  -1.996   0.000  0.00  0.00    +0.238 A 
ATOM     15  O   UNL     1       0.586  -1.175   0.000  0.00  0.00    -0.337 OA
ATOM     16  N   UNL     1      -0.221  -1.004   0.000  0.00  0.00    -0.058 NA
BRANCH  12  17
ATOM     17  C   UNL     1      -1.454  -1.804   0.000  0.00  0.00    +0.211 C 
BRANCH  17  19
ATOM     18  C   UNL     1      -2.759  -1.223   0.000  0.00  0.00    +0.175 C 
ATOM     19  O   UNL     1      -1.939  -1.137   0.000  0.00  0.00    -0.343 OA
ENDBRANCH  17  19
ENDBRANCH  12  17
ENDBRANCH  11  14
ENDBRANCH   1  11
TORSDOF 6
