REMARK  Name = 
REMARK  3 active torsions:
REMARK  status: ('A' for Active; 'I' for Inactive)
REMARK    1  A    between atoms: N_7  and  C_8
REMARK    2  A    between atoms: C_8  and  C_9
REMARK    3  A    between atoms: C_9  and  C_11
REMARK                            x       y       z     vdW  Elec       q    Type
REMARK                         _______ _______ _______ _____ _____    ______ ____
ROOT
ATOM      1  C   UNL     1       0.000  -4.125   0.000  0.00  0.00    +0.168 C 
ENDROOT
BRANCH   1   5
ATOM      2  C   UNL     1       1.429  -1.650   0.000  0.00  0.00    +0.054 C 
ATOM      3  C   UNL     1       1.429  -2.475   0.000  0.00  0.00    +0.079 A 
ATOM      4  N   UNL     1       0.715  -2.888   0.000  0.00  0.00    -0.171 NA
ATOM      5  N   UNL     1       0.715  -3.712   0.000  0.00  0.00    -0.214 N 
ATOM      6  C   UNL     1       1.429  -4.125   0.000  0.00  0.00    +0.277 A 
ATOM      7  O   UNL     1       1.429  -4.950   0.000  0.00  0.00    -0.266 OA
ATOM      8  C   UNL     1       2.143  -3.712   0.000  0.00  0.00    +0.063 A 
ATOM      9  C   UNL     1       2.143  -2.888   0.000  0.00  0.00    +0.021 A 
ENDBRANCH   1   5
BRANCH   1  10
ATOM     10  C   UNL     1       0.000  -4.950   0.000  0.00  0.00    +0.199 C 
ATOM     11  O   UNL     1       0.715  -5.362   0.000  0.00  0.00    -0.216 OA
BRANCH  10  12
ATOM     12  C   UNL     1      -0.715  -5.362   0.000  0.00  0.00    +0.011 A 
ATOM     13  C   UNL     1      -1.429  -4.950   0.000  0.00  0.00    +0.010 A 
ATOM     14  C   UNL     1      -2.143  -5.362   0.000  0.00  0.00    +0.057 A 
ATOM     15 CL   UNL     1      -2.858  -4.950   0.000  0.00  0.00    -0.082 Cl
ATOM     16  C   UNL     1      -2.143  -6.188   0.000  0.00  0.00    +0.011 A 
ATOM     17  C   UNL     1      -1.429  -6.600   0.000  0.00  0.00    +0.001 A 
ATOM     18  C   UNL     1      -0.715  -6.188   0.000  0.00  0.00    -0.002 A 
ENDBRANCH  10  12
ENDBRANCH   1  10
TORSDOF 3
