REMARK  Name = 
REMARK  3 active torsions:
REMARK  status: ('A' for Active; 'I' for Inactive)
REMARK    1  A    between atoms: C_6  and  N_8
REMARK    2  A    between atoms: N_11  and  C_12
REMARK    3  A    between atoms: C_14  and  C_19
REMARK                            x       y       z     vdW  Elec       q    Type
REMARK                         _______ _______ _______ _____ _____    ______ ____
ROOT
ATOM      1  N   UNL     1       1.429  -4.125   0.000  0.00  0.00    -0.187 NA
ATOM      2  C   UNL     1       0.715  -3.712   0.000  0.00  0.00    +0.344 C 
ATOM      3  N   UNL     1       0.000  -4.125   0.000  0.00  0.00    -0.156 NA
ATOM      4  O   UNL     1       0.715  -2.888   0.000  0.00  0.00    -0.249 OA
ENDROOT
BRANCH   1   8
ATOM      5  C   UNL     1       2.858  -1.650   0.000  0.00  0.00    +0.090 C 
ATOM      6  N   UNL     1       2.858  -2.475   0.000  0.00  0.00    -0.270 NA
ATOM      7  C   UNL     1       2.143  -2.888   0.000  0.00  0.00    +0.094 C 
ATOM      8  C   UNL     1       2.143  -3.712   0.000  0.00  0.00    +0.113 C 
ATOM      9  C   UNL     1       2.858  -4.125   0.000  0.00  0.00    +0.025 C 
ATOM     10  C   UNL     1       3.572  -3.712   0.000  0.00  0.00    +0.019 C 
ATOM     11  C   UNL     1       3.572  -2.888   0.000  0.00  0.00    +0.072 C 
ENDBRANCH   1   8
BRANCH   3  12
ATOM     12  C   UNL     1      -0.715  -3.712   0.000  0.00  0.00    +0.133 A 
ATOM     13  C   UNL     1      -0.715  -2.888   0.000  0.00  0.00    +0.295 A 
ATOM     14  O   UNL     1       0.000  -2.475   0.000  0.00  0.00    -0.264 OA
ATOM     15  N   UNL     1      -1.429  -2.475   0.000  0.00  0.00    -0.205 NA
ATOM     16  C   UNL     1      -2.143  -2.888   0.000  0.00  0.00    +0.106 A 
ATOM     17  C   UNL     1      -2.143  -3.712   0.000  0.00  0.00    +0.092 A 
ATOM     18  C   UNL     1      -1.429  -4.125   0.000  0.00  0.00    +0.027 A 
BRANCH  17  19
ATOM     19  C   UNL     1      -2.858  -4.125   0.000  0.00  0.00    +0.420 C 
ATOM     20  F   UNL     1      -2.445  -4.840   0.000  0.00  0.00    -0.166 F 
ATOM     21  F   UNL     1      -3.270  -3.410   0.000  0.00  0.00    -0.166 F 
ATOM     22  F   UNL     1      -3.572  -4.537   0.000  0.00  0.00    -0.166 F 
ENDBRANCH  17  19
ENDBRANCH   3  12
TORSDOF 3
