REMARK  Name = 
REMARK  3 active torsions:
REMARK  status: ('A' for Active; 'I' for Inactive)
REMARK    1  A    between atoms: C_4  and  N_5
REMARK    2  A    between atoms: N_8  and  C_9
REMARK    3  A    between atoms: C_11  and  C_12
REMARK                            x       y       z     vdW  Elec       q    Type
REMARK                         _______ _______ _______ _____ _____    ______ ____
ROOT
ATOM      1  N   UNL     1      -2.143   6.766   0.000  0.00  0.00    -0.161 NA
ATOM      2  C   UNL     1      -2.143   5.941   0.000  0.00  0.00    +0.344 C 
ATOM      3  N   UNL     1      -1.429   5.529   0.000  0.00  0.00    -0.184 NA
ATOM      4  O   UNL     1      -2.858   5.529   0.000  0.00  0.00    -0.249 OA
ENDROOT
BRANCH   1  10
ATOM      5  C   UNL     1      -3.572   9.241   0.000  0.00  0.00    +0.052 C 
ATOM      6  C   UNL     1      -3.572   8.416   0.000  0.00  0.00    +0.061 A 
ATOM      7  N   UNL     1      -4.287   8.004   0.000  0.00  0.00    -0.248 NA
ATOM      8  C   UNL     1      -4.287   7.179   0.000  0.00  0.00    +0.100 A 
ATOM      9  C   UNL     1      -3.572   6.766   0.000  0.00  0.00    +0.037 A 
ATOM     10  C   UNL     1      -2.858   7.179   0.000  0.00  0.00    +0.078 A 
ATOM     11  C   UNL     1      -2.858   8.004   0.000  0.00  0.00    +0.031 A 
ENDBRANCH   1  10
BRANCH   3  12
ATOM     12  C   UNL     1      -1.429   4.704   0.000  0.00  0.00    +0.119 C 
ATOM     13  C   UNL     1      -2.096   4.219   0.000  0.00  0.00    -0.009 C 
ATOM     14  C   UNL     1      -1.841   3.434   0.000  0.00  0.00    -0.027 C 
ATOM     15  C   UNL     1      -1.016   3.434   0.000  0.00  0.00    +0.057 C 
ATOM     16  C   UNL     1      -0.761   4.219   0.000  0.00  0.00    +0.033 C 
BRANCH  15  17
ATOM     17  C   UNL     1      -0.531   2.767   0.000  0.00  0.00    +0.186 C 
ATOM     18  O   UNL     1       0.289   2.853   0.000  0.00  0.00    -0.220 OA
ENDBRANCH  15  17
ENDBRANCH   3  12
TORSDOF 3
