REMARK  Name = 
REMARK  3 active torsions:
REMARK  status: ('A' for Active; 'I' for Inactive)
REMARK    1  A    between atoms: C_2  and  C_4
REMARK    2  A    between atoms: C_7  and  C_8
REMARK    3  A    between atoms: C_8  and  N_9
REMARK                            x       y       z     vdW  Elec       q    Type
REMARK                         _______ _______ _______ _____ _____    ______ ____
ROOT
ATOM      1  C   UNL     1       0.531  -4.412   0.000  0.00  0.00    +0.145 C 
ENDROOT
BRANCH   1   2
ATOM      2  N   UNL     1       0.867  -5.166   0.000  0.00  0.00    -0.201 NA
ATOM      3  C   UNL     1       0.382  -5.833   0.000  0.00  0.00    +0.237 A 
ATOM      4  N   UNL     1      -0.438  -5.747   0.000  0.00  0.00    -0.210 NA
ATOM      5  C   UNL     1      -0.923  -6.414   0.000  0.00  0.00    +0.115 A 
ATOM      6  C   UNL     1      -0.588  -7.168   0.000  0.00  0.00    +0.096 A 
ATOM      7 CL   UNL     1      -1.073  -7.835   0.000  0.00  0.00    -0.079 Cl
ATOM      8  C   UNL     1       0.233  -7.254   0.000  0.00  0.00    +0.115 A 
ATOM      9  N   UNL     1       0.718  -6.587   0.000  0.00  0.00    -0.210 NA
ENDBRANCH   1   2
BRANCH   1  12
ATOM     10  C   UNL     1       1.429  -2.475   0.000  0.00  0.00    +0.194 C 
ATOM     11  O   UNL     1       0.761  -2.960   0.000  0.00  0.00    -0.348 OA
ATOM     12  C   UNL     1       1.016  -3.744   0.000  0.00  0.00    +0.137 C 
ATOM     13  C   UNL     1       1.841  -3.744   0.000  0.00  0.00    +0.034 C 
ATOM     14  C   UNL     1       2.096  -2.960   0.000  0.00  0.00    +0.042 C 
BRANCH  10  16
ATOM     15  N   UNL     1       2.143  -1.238   0.000  0.00  0.00    -0.086 NA
ATOM     16  C   UNL     1       1.429  -1.650   0.000  0.00  0.00    +0.288 C 
ATOM     17  O   UNL     1       0.715  -1.238   0.000  0.00  0.00    -0.269 OA
ENDBRANCH  10  16
ENDBRANCH   1  12
TORSDOF 3
