REMARK  Name = 
REMARK  6 active torsions:
REMARK  status: ('A' for Active; 'I' for Inactive)
REMARK    1  A    between atoms: C_2  and  C_5
REMARK    2  A    between atoms: C_5  and  O_6
REMARK    3  A    between atoms: O_6  and  C_7
REMARK    4  A    between atoms: C_11  and  N_13
REMARK    5  A    between atoms: C_14  and  C_16
REMARK    6  A    between atoms: C_16  and  N_17
REMARK                            x       y       z     vdW  Elec       q    Type
REMARK                         _______ _______ _______ _____ _____    ______ ____
ROOT
ATOM      1  C   UNL     1      -2.143  -1.238   0.000  0.00  0.00    +0.117 C 
ATOM      2  C   UNL     1      -2.858  -1.650   0.000  0.00  0.00    +0.051 C 
ATOM      3  C   UNL     1      -2.858  -2.475   0.000  0.00  0.00    +0.098 C 
ATOM      4  C   UNL     1      -2.143  -2.888   0.000  0.00  0.00    +0.022 C 
ATOM      5  C   UNL     1      -1.429  -2.475   0.000  0.00  0.00    +0.004 C 
ATOM      6  C   UNL     1      -1.429  -1.650   0.000  0.00  0.00    +0.030 C 
ENDROOT
BRANCH   3   7
ATOM      7  N   UNL     1      -3.572  -2.888   0.000  0.00  0.00    -0.205 NA
ATOM      8  C   UNL     1      -4.287  -2.475   0.000  0.00  0.00    +0.264 C 
ATOM      9  O   UNL     1      -4.287  -1.650   0.000  0.00  0.00    -0.271 OA
BRANCH   8  10
ATOM     10  C   UNL     1      -5.001  -2.888   0.000  0.00  0.00    +0.196 C 
BRANCH  10  11
ATOM     11  N   UNL     1      -5.001  -3.712   0.000  0.00  0.00    -0.285 N 
ATOM     12  C   UNL     1      -5.716  -4.125   0.000  0.00  0.00    +0.261 A 
ATOM     13  O   UNL     1      -6.430  -3.712   0.000  0.00  0.00    -0.267 OA
ATOM     14  C   UNL     1      -5.716  -4.950   0.000  0.00  0.00    +0.061 A 
ATOM     15  C   UNL     1      -5.001  -5.362   0.000  0.00  0.00    +0.006 A 
ATOM     16  C   UNL     1      -4.287  -4.950   0.000  0.00  0.00    +0.019 A 
ATOM     17  C   UNL     1      -4.287  -4.125   0.000  0.00  0.00    +0.079 A 
ENDBRANCH  10  11
ENDBRANCH   8  10
ENDBRANCH   3   7
BRANCH   1  18
ATOM     18  O   UNL     1      -2.143  -0.412   0.000  0.00  0.00    -0.348 OA
BRANCH  18  19
ATOM     19  C   UNL     1      -1.429   0.000   0.000  0.00  0.00    +0.246 C 
BRANCH  19  21
ATOM     20  F   UNL     1      -1.429   1.650   0.000  0.00  0.00    -0.167 F 
ATOM     21  C   UNL     1      -1.429   0.825   0.000  0.00  0.00    +0.425 C 
ATOM     22  F   UNL     1      -0.604   0.825   0.000  0.00  0.00    -0.167 F 
ATOM     23  F   UNL     1      -2.254   0.825   0.000  0.00  0.00    -0.167 F 
ENDBRANCH  19  21
ENDBRANCH  18  19
ENDBRANCH   1  18
TORSDOF 6
