REMARK  Name = 
REMARK  6 active torsions:
REMARK  status: ('A' for Active; 'I' for Inactive)
REMARK    1  A    between atoms: C_2  and  C_3
REMARK    2  A    between atoms: C_2  and  C_11
REMARK    3  A    between atoms: C_3  and  O_4
REMARK    4  A    between atoms: O_4  and  C_5
REMARK    5  A    between atoms: C_11  and  N_12
REMARK    6  A    between atoms: C_15  and  C_19
REMARK                            x       y       z     vdW  Elec       q    Type
REMARK                         _______ _______ _______ _____ _____    ______ ____
ROOT
ATOM      1  C   UNL     1       2.858  -2.475   0.000  0.00  0.00    +0.147 C 
ENDROOT
BRANCH   1   2
ATOM      2  N   UNL     1       3.572  -2.888   0.000  0.00  0.00    -0.275 N 
ATOM      3  C   UNL     1       3.572  -3.712   0.000  0.00  0.00    +0.263 A 
ATOM      4  O   UNL     1       2.858  -4.125   0.000  0.00  0.00    -0.267 OA
ATOM      5  C   UNL     1       4.287  -4.125   0.000  0.00  0.00    +0.075 A 
ATOM      6  C   UNL     1       5.001  -3.712   0.000  0.00  0.00    +0.065 A 
ATOM      7  N   UNL     1       5.001  -2.888   0.000  0.00  0.00    -0.230 NA
ATOM      8  C   UNL     1       4.287  -2.475   0.000  0.00  0.00    +0.181 A 
BRANCH   6   9
ATOM      9  C   UNL     1       5.716  -4.125   0.000  0.00  0.00    +0.040 C 
ATOM     10  C   UNL     1       5.929  -4.922   0.000  0.00  0.00    +0.006 C 
ATOM     11  C   UNL     1       6.726  -4.708   0.000  0.00  0.00    +0.001 C 
ATOM     12  C   UNL     1       6.513  -3.912   0.000  0.00  0.00    +0.006 C 
ENDBRANCH   6   9
ENDBRANCH   1   2
BRANCH   1  14
ATOM     13  O   UNL     1       2.143  -3.712   0.000  0.00  0.00    -0.217 OA
ATOM     14  C   UNL     1       2.143  -2.888   0.000  0.00  0.00    +0.218 C 
BRANCH  14  15
ATOM     15  C   UNL     1       1.429  -2.475   0.000  0.00  0.00    +0.240 C 
BRANCH  15  16
ATOM     16  O   UNL     1       0.715  -2.888   0.000  0.00  0.00    -0.473 OA
BRANCH  16  17
ATOM     17  C   UNL     1       0.000  -2.475   0.000  0.00  0.00    +0.139 A 
ATOM     18  C   UNL     1       0.000  -1.650   0.000  0.00  0.00    +0.037 A 
ATOM     19  C   UNL     1      -0.715  -1.238   0.000  0.00  0.00    +0.003 A 
ATOM     20  C   UNL     1      -1.429  -1.650   0.000  0.00  0.00    +0.000 A 
ATOM     21  C   UNL     1      -1.429  -2.475   0.000  0.00  0.00    +0.003 A 
ATOM     22  C   UNL     1      -0.715  -2.888   0.000  0.00  0.00    +0.037 A 
ENDBRANCH  16  17
ENDBRANCH  15  16
ENDBRANCH  14  15
ENDBRANCH   1  14
TORSDOF 6
