REMARK  Name = 
REMARK  2 active torsions:
REMARK  status: ('A' for Active; 'I' for Inactive)
REMARK    1  A    between atoms: C_6  and  C_8
REMARK    2  A    between atoms: C_13  and  C_17
REMARK                            x       y       z     vdW  Elec       q    Type
REMARK                         _______ _______ _______ _____ _____    ______ ____
ROOT
ATOM      1  C   UNL     1       0.000  -4.125   0.000  0.00  0.00    +0.275 C 
ATOM      2  N   UNL     1       0.000  -4.950   0.000  0.00  0.00    -0.158 NA
ATOM      3  C   UNL     1      -0.715  -5.362   0.000  0.00  0.00    +0.154 A 
ATOM      4  N   UNL     1      -1.429  -4.950   0.000  0.00  0.00    -0.227 NA
ATOM      5  C   UNL     1      -2.143  -5.362   0.000  0.00  0.00    +0.100 A 
ATOM      6  C   UNL     1      -2.143  -6.188   0.000  0.00  0.00    +0.025 A 
ATOM      7  C   UNL     1      -1.429  -6.600   0.000  0.00  0.00    +0.076 A 
ATOM      8  C   UNL     1      -0.715  -6.188   0.000  0.00  0.00    +0.040 A 
ATOM      9  O   UNL     1      -0.715  -3.712   0.000  0.00  0.00    -0.270 OA
ENDROOT
BRANCH   1  13
ATOM     10  C   UNL     1       1.429  -1.650   0.000  0.00  0.00    +0.090 C 
ATOM     11  N   UNL     1       1.429  -2.475   0.000  0.00  0.00    -0.267 NA
ATOM     12  C   UNL     1       0.715  -2.888   0.000  0.00  0.00    +0.112 C 
ATOM     13  C   UNL     1       0.715  -3.712   0.000  0.00  0.00    +0.209 C 
ATOM     14  O   UNL     1       1.429  -4.125   0.000  0.00  0.00    -0.344 OA
ATOM     15  C   UNL     1       2.143  -3.712   0.000  0.00  0.00    +0.160 C 
ATOM     16  C   UNL     1       2.143  -2.888   0.000  0.00  0.00    +0.105 C 
ENDBRANCH   1  13
BRANCH   7  17
ATOM     17  C   UNL     1      -1.429  -7.425   0.000  0.00  0.00    +0.419 C 
ATOM     18  F   UNL     1      -0.604  -7.425   0.000  0.00  0.00    -0.166 F 
ATOM     19  F   UNL     1      -2.254  -7.425   0.000  0.00  0.00    -0.166 F 
ATOM     20  F   UNL     1      -1.429  -8.250   0.000  0.00  0.00    -0.166 F 
ENDBRANCH   7  17
TORSDOF 2
