REMARK  Name = 
REMARK  4 active torsions:
REMARK  status: ('A' for Active; 'I' for Inactive)
REMARK    1  A    between atoms: N_2  and  C_4
REMARK    2  A    between atoms: C_9  and  N_10
REMARK    3  A    between atoms: N_13  and  C_14
REMARK    4  A    between atoms: C_18  and  C_20
REMARK                            x       y       z     vdW  Elec       q    Type
REMARK                         _______ _______ _______ _____ _____    ______ ____
ROOT
ATOM      1  N   UNL     1      -2.858  -2.475   0.000  0.00  0.00    -0.157 NA
ATOM      2  C   UNL     1      -3.572  -2.888   0.000  0.00  0.00    +0.344 C 
ATOM      3  N   UNL     1      -4.287  -2.475   0.000  0.00  0.00    -0.189 NA
ATOM      4  O   UNL     1      -3.572  -3.712   0.000  0.00  0.00    -0.249 OA
ENDROOT
BRANCH   1   6
ATOM      5  C   UNL     1      -1.429  -2.475   0.000  0.00  0.00    +0.151 A 
ATOM      6  C   UNL     1      -2.143  -2.888   0.000  0.00  0.00    +0.126 A 
ATOM      7  C   UNL     1      -2.143  -3.712   0.000  0.00  0.00    +0.120 A 
ATOM      8  N   UNL     1      -1.429  -4.125   0.000  0.00  0.00    -0.221 NA
ATOM      9  C   UNL     1      -0.715  -3.712   0.000  0.00  0.00    +0.200 A 
ATOM     10  N   UNL     1      -0.715  -2.888   0.000  0.00  0.00    -0.208 NA
BRANCH   5  12
ATOM     11  C   UNL     1      -0.715  -1.238   0.000  0.00  0.00    +0.114 C 
ATOM     12  N   UNL     1      -1.429  -1.650   0.000  0.00  0.00    -0.289 N 
ATOM     13  C   UNL     1      -2.143  -1.238   0.000  0.00  0.00    +0.114 C 
ENDBRANCH   5  12
ENDBRANCH   1   6
BRANCH   3  14
ATOM     14  C   UNL     1      -5.001  -2.888   0.000  0.00  0.00    +0.097 C 
ATOM     15  C   UNL     1      -5.716  -2.475   0.000  0.00  0.00    +0.030 C 
ATOM     16  C   UNL     1      -6.430  -2.888   0.000  0.00  0.00    +0.097 C 
ATOM     17  C   UNL     1      -6.430  -3.712   0.000  0.00  0.00    +0.009 C 
ATOM     18  C   UNL     1      -5.716  -4.125   0.000  0.00  0.00    +0.002 C 
ATOM     19  C   UNL     1      -5.001  -3.712   0.000  0.00  0.00    +0.022 C 
BRANCH  16  20
ATOM     20  C   UNL     1      -7.145  -2.475   0.000  0.00  0.00    +0.398 C 
ATOM     21  F   UNL     1      -7.557  -3.189   0.000  0.00  0.00    -0.170 F 
ATOM     22  F   UNL     1      -6.732  -1.760   0.000  0.00  0.00    -0.170 F 
ATOM     23  F   UNL     1      -7.859  -2.062   0.000  0.00  0.00    -0.170 F 
ENDBRANCH  16  20
ENDBRANCH   3  14
TORSDOF 4
