REMARK  Name = 
REMARK  4 active torsions:
REMARK  status: ('A' for Active; 'I' for Inactive)
REMARK    1  A    between atoms: N_2  and  C_4
REMARK    2  A    between atoms: C_4  and  C_7
REMARK    3  A    between atoms: C_7  and  N_8
REMARK    4  A    between atoms: C_9  and  C_11
REMARK                            x       y       z     vdW  Elec       q    Type
REMARK                         _______ _______ _______ _____ _____    ______ ____
ROOT
ATOM      1  C   UNL     1       0.715  -1.238   0.000  0.00  0.00    +0.151 A 
ATOM      2  C   UNL     1       0.000  -1.650   0.000  0.00  0.00    +0.099 A 
ATOM      3 CL   UNL     1      -0.715  -1.238   0.000  0.00  0.00    -0.079 Cl
ATOM      4  C   UNL     1       0.000  -2.475   0.000  0.00  0.00    +0.115 A 
ATOM      5  N   UNL     1       0.715  -2.888   0.000  0.00  0.00    -0.211 NA
ATOM      6  C   UNL     1       1.429  -2.475   0.000  0.00  0.00    +0.220 A 
ATOM      7  N   UNL     1       2.143  -2.888   0.000  0.00  0.00    -0.273 N 
ATOM      8  C   UNL     1       2.143  -3.712   0.000  0.00  0.00    +0.126 C 
ATOM      9  C   UNL     1       2.858  -4.125   0.000  0.00  0.00    +0.164 C 
ATOM     10  O   UNL     1       3.572  -3.712   0.000  0.00  0.00    -0.350 OA
ATOM     11  C   UNL     1       3.572  -2.888   0.000  0.00  0.00    +0.164 C 
ATOM     12  C   UNL     1       2.858  -2.475   0.000  0.00  0.00    +0.126 C 
ATOM     13  N   UNL     1       1.429  -1.650   0.000  0.00  0.00    -0.208 NA
ENDROOT
BRANCH   1  15
ATOM     14  N   UNL     1       0.000   0.000   0.000  0.00  0.00    -0.199 NA
ATOM     15  C   UNL     1       0.715  -0.412   0.000  0.00  0.00    +0.284 C 
ATOM     16  O   UNL     1       1.429   0.000   0.000  0.00  0.00    -0.267 OA
BRANCH  14  17
ATOM     17  C   UNL     1       0.000   0.825   0.000  0.00  0.00    +0.130 C 
BRANCH  17  18
ATOM     18  C   UNL     1      -0.715   1.238   0.000  0.00  0.00    +0.066 C 
ATOM     19  C   UNL     1      -0.302   1.952   0.000  0.00  0.00    +0.018 C 
ATOM     20  C   UNL     1      -1.127   0.523   0.000  0.00  0.00    +0.018 C 
BRANCH  18  22
ATOM     21  C   UNL     1      -1.429   2.475   0.000  0.00  0.00    +0.090 C 
ATOM     22  N   UNL     1      -1.429   1.650   0.000  0.00  0.00    -0.271 NA
ATOM     23  C   UNL     1      -2.143   1.238   0.000  0.00  0.00    +0.090 C 
ENDBRANCH  18  22
ENDBRANCH  17  18
ENDBRANCH  14  17
ENDBRANCH   1  15
TORSDOF 4
