REMARK  Name = 
REMARK  7 active torsions:
REMARK  status: ('A' for Active; 'I' for Inactive)
REMARK    1  A    between atoms: C_2  and  C_3
REMARK    2  A    between atoms: C_3  and  C_4
REMARK    3  A    between atoms: C_3  and  C_6
REMARK    4  A    between atoms: C_3  and  C_17
REMARK    5  A    between atoms: C_6  and  N_7
REMARK    6  A    between atoms: C_8  and  C_10
REMARK    7  A    between atoms: C_10  and  C_11
REMARK                            x       y       z     vdW  Elec       q    Type
REMARK                         _______ _______ _______ _____ _____    ______ ____
ROOT
ATOM      1  N   UNL     1       1.282   3.177   0.000  0.00  0.00    -0.205 NA
ATOM      2  C   UNL     1       1.282   2.352   0.000  0.00  0.00    +0.247 C 
ATOM      3  O   UNL     1       1.997   1.939   0.000  0.00  0.00    -0.273 OA
ENDROOT
BRANCH   1   4
ATOM      4  C   UNL     1       1.997   3.589   0.000  0.00  0.00    +0.126 C 
BRANCH   4   5
ATOM      5  C   UNL     1       1.997   4.414   0.000  0.00  0.00    +0.114 C 
BRANCH   5   6
ATOM      6  C   UNL     1       2.822   4.414   0.000  0.00  0.00    +0.365 C 
ATOM      7  O   UNL     1       3.234   5.129   0.000  0.00  0.00    -0.246 OA
ATOM      8  O   UNL     1       3.234   3.700   0.000  0.00  0.00    -0.246 OA
ENDBRANCH   5   6
BRANCH   5  10
ATOM      9  C   UNL     1       2.711   5.652   0.000  0.00  0.00    +0.001 C 
ATOM     10  C   UNL     1       1.997   5.239   0.000  0.00  0.00    +0.012 C 
ENDBRANCH   5  10
BRANCH   5  11
ATOM     11  C   UNL     1       1.172   4.414   0.000  0.00  0.00    +0.012 C 
ATOM     12  C   UNL     1       0.759   3.700   0.000  0.00  0.00    +0.001 C 
ENDBRANCH   5  11
ENDBRANCH   4   5
ENDBRANCH   1   4
BRANCH   2  13
ATOM     13  C   UNL     1       0.568   1.939   0.000  0.00  0.00    +0.133 C 
BRANCH  13  14
ATOM     14  C   UNL     1       0.568   1.114   0.000  0.00  0.00    +0.075 A 
ATOM     15  N   UNL     1      -0.100   0.629   0.000  0.00  0.00    -0.247 NA
ATOM     16  C   UNL     1       0.155  -0.155   0.000  0.00  0.00    +0.088 A 
ATOM     17  C   UNL     1      -0.330  -0.823   0.000  0.00  0.00    +0.059 C 
ATOM     18  S   UNL     1       0.980  -0.155   0.000  0.00  0.00    -0.071 S 
ATOM     19  C   UNL     1       1.235   0.629   0.000  0.00  0.00    +0.052 A 
ENDBRANCH  13  14
ENDBRANCH   2  13
TORSDOF 7
