REMARK  Name = 
REMARK  6 active torsions:
REMARK  status: ('A' for Active; 'I' for Inactive)
REMARK    1  A    between atoms: C_2  and  C_3
REMARK    2  A    between atoms: C_9  and  C_11
REMARK    3  A    between atoms: C_11  and  N_13
REMARK    4  A    between atoms: N_13  and  C_14
REMARK    5  A    between atoms: C_14  and  C_15
REMARK    6  A    between atoms: C_15  and  C_16
REMARK                            x       y       z     vdW  Elec       q    Type
REMARK                         _______ _______ _______ _____ _____    ______ ____
ROOT
ATOM      1  C   UNL     1       2.858  -4.125   0.000  0.00  0.00    +0.149 C 
ATOM      2  C   UNL     1       2.858  -4.950   0.000  0.00  0.00    +0.029 C 
ENDROOT
BRANCH   1   5
ATOM      3  C   UNL     1       1.429  -4.950   0.000  0.00  0.00    +0.075 C 
ATOM      4  N   UNL     1       1.429  -4.125   0.000  0.00  0.00    -0.280 N 
ATOM      5  C   UNL     1       2.143  -3.712   0.000  0.00  0.00    +0.241 C 
ATOM      6  O   UNL     1       2.143  -2.888   0.000  0.00  0.00    -0.273 OA
ATOM      7  C   UNL     1       0.715  -3.712   0.000  0.00  0.00    +0.093 C 
ATOM      8  C   UNL     1       0.000  -4.125   0.000  0.00  0.00    +0.022 C 
ATOM      9  C   UNL     1       0.000  -4.950   0.000  0.00  0.00    +0.003 C 
ATOM     10  C   UNL     1       0.715  -5.362   0.000  0.00  0.00    +0.020 C 
BRANCH   3  12
ATOM     11  C   UNL     1       2.143  -6.188   0.000  0.00  0.00    +0.002 C 
ATOM     12  C   UNL     1       2.143  -5.362   0.000  0.00  0.00    +0.020 C 
ENDBRANCH   3  12
ENDBRANCH   1   5
BRANCH   1  13
ATOM     13  N   UNL     1       3.572  -3.712   0.000  0.00  0.00    -0.210 NA
BRANCH  13  14
ATOM     14  C   UNL     1       4.287  -4.125   0.000  0.00  0.00    +0.095 C 
BRANCH  14  15
ATOM     15  C   UNL     1       5.001  -3.712   0.000  0.00  0.00    +0.065 C 
BRANCH  15  16
ATOM     16  C   UNL     1       5.716  -4.125   0.000  0.00  0.00    +0.060 A 
ATOM     17  N   UNL     1       5.716  -4.950   0.000  0.00  0.00    -0.248 NA
ATOM     18  C   UNL     1       6.430  -5.362   0.000  0.00  0.00    +0.098 A 
ATOM     19  C   UNL     1       7.145  -4.950   0.000  0.00  0.00    +0.021 A 
ATOM     20  C   UNL     1       7.145  -4.125   0.000  0.00  0.00    +0.003 A 
ATOM     21  C   UNL     1       6.430  -3.712   0.000  0.00  0.00    +0.015 A 
ENDBRANCH  15  16
ENDBRANCH  14  15
ENDBRANCH  13  14
ENDBRANCH   1  13
TORSDOF 6
