REMARK  Name = 
REMARK  3 active torsions:
REMARK  status: ('A' for Active; 'I' for Inactive)
REMARK    1  A    between atoms: C_2  and  N_3
REMARK    2  A    between atoms: C_2  and  C_13
REMARK    3  A    between atoms: N_15  and  C_16
REMARK                            x       y       z     vdW  Elec       q    Type
REMARK                         _______ _______ _______ _____ _____    ______ ____
ROOT
ATOM      1  C   UNL     1       4.592  -2.127   0.000  0.00  0.00    +0.033 C 
ATOM      2  C   UNL     1       4.592  -2.952   0.000  0.00  0.00    +0.174 C 
ENDROOT
BRANCH   2   3
ATOM      3  N   UNL     1       3.878  -3.364   0.000  0.00  0.00    -0.179 NA
ATOM      4  C   UNL     1       3.163  -2.952   0.000  0.00  0.00    +0.346 C 
ATOM      5  N   UNL     1       2.449  -3.364   0.000  0.00  0.00    -0.134 NA
ATOM      6  C   UNL     1       1.734  -2.952   0.000  0.00  0.00    +0.209 A 
ATOM      7  S   UNL     1       1.648  -2.131   0.000  0.00  0.00    -0.033 S 
ATOM      8  C   UNL     1       0.841  -1.960   0.000  0.00  0.00    +0.113 A 
ATOM      9  C   UNL     1       0.506  -1.206   0.000  0.00  0.00    +0.061 C 
ATOM     10  N   UNL     1       0.429  -2.674   0.000  0.00  0.00    -0.144 NA
ATOM     11  N   UNL     1       0.981  -3.287   0.000  0.00  0.00    -0.124 NA
ATOM     12  O   UNL     1       3.163  -2.127   0.000  0.00  0.00    -0.249 OA
ENDBRANCH   2   3
BRANCH   2  13
ATOM     13  C   UNL     1       5.307  -3.364   0.000  0.00  0.00    +0.261 C 
ATOM     14  N   UNL     1       6.021  -2.952   0.000  0.00  0.00    -0.206 NA
ATOM     15  O   UNL     1       5.307  -4.189   0.000  0.00  0.00    -0.271 OA
BRANCH  14  16
ATOM     16  C   UNL     1       6.736  -3.364   0.000  0.00  0.00    +0.095 C 
ATOM     17  C   UNL     1       6.822  -4.185   0.000  0.00  0.00    +0.022 C 
ATOM     18  C   UNL     1       7.629  -4.356   0.000  0.00  0.00    +0.002 C 
ATOM     19  C   UNL     1       8.041  -3.642   0.000  0.00  0.00    +0.002 C 
ATOM     20  C   UNL     1       7.489  -3.029   0.000  0.00  0.00    +0.022 C 
ENDBRANCH  14  16
ENDBRANCH   2  13
TORSDOF 3
