REMARK  Name = 
REMARK  2 active torsions:
REMARK  status: ('A' for Active; 'I' for Inactive)
REMARK    1  A    between atoms: N1_1  and  C1*_2
REMARK    2  A    between atoms: C4*_9  and  C5*_16
REMARK                            x       y       z     vdW  Elec       q    Type
REMARK                         _______ _______ _______ _____ _____    ______ ____
ROOT
ATOM      1  C1*   C A   1       0.713   3.470   0.000  0.00  0.00    +0.242 C 
ATOM      2  O4*   C A   1       1.380   2.986   0.000  0.00  0.00    -0.330 OA
ATOM      3  C4*   C A   1       1.126   2.202   0.000  0.00  0.00    +0.183 C 
ATOM      4  C3*   C A   1       0.300   2.202   0.000  0.00  0.00    +0.216 C 
ATOM      5  O3*   C A   1      -0.183   1.531   0.000  0.00  0.00    -0.218 OA
ATOM      6  C2*   C A   1       0.046   2.986   0.000  0.00  0.00    +0.234 C 
ATOM      7  O2*   C A   1      -0.742   3.240   0.000  0.00  0.00    -0.216 OA
ENDROOT
BRANCH   1   8
ATOM      8  N1    C A   1       0.713   4.291   0.000  0.00  0.00    -0.254 N 
ATOM      9  C6    C A   1       1.426   4.704   0.000  0.00  0.00    +0.085 A 
ATOM     10  C5    C A   1       1.426   5.530   0.000  0.00  0.00    +0.057 A 
ATOM     11  C4    C A   1       0.713   5.943   0.000  0.00  0.00    +0.176 A 
ATOM     12  N4    C A   1       0.713   6.769   0.000  0.00  0.00    -0.107 NA
ATOM     13  N3    C A   1       0.000   5.530   0.000  0.00  0.00    -0.174 NA
ATOM     14  C2    C A   1       0.000   4.704   0.000  0.00  0.00    +0.353 A 
ATOM     15  O2    C A   1      -0.717   4.291   0.000  0.00  0.00    -0.244 OA
ENDBRANCH   1   8
BRANCH   3  16
ATOM     16  C5*   C A   1       1.610   1.531   0.000  0.00  0.00    +0.214 C 
ATOM     17  O5*   C A   1       2.431   1.618   0.000  0.00  0.00    -0.218 OA
ENDBRANCH   3  16
TORSDOF 2
