REMARK  Name = 
REMARK  11 active torsions:
REMARK  status: ('A' for Active; 'I' for Inactive)
REMARK    1  A    between atoms: N_2  and  C_10
REMARK    2  A    between atoms: C_5  and  N_7
REMARK    3  A    between atoms: N_7  and  C_15
REMARK    4  A    between atoms: N_7  and  C_20
REMARK    5  A    between atoms: C_10  and  C_12
REMARK    6  A    between atoms: C_12  and  C_16
REMARK    7  A    between atoms: C_13  and  C_18
REMARK    8  A    between atoms: C_15  and  C_21
REMARK    9  A    between atoms: C_18  and  C_20
REMARK   10  A    between atoms: C_21  and  C_24
REMARK   11  A    between atoms: C_21  and  C_25
REMARK                            x       y       z     vdW  Elec       q    Type
REMARK                         _______ _______ _______ _____ _____    ______ ____
ROOT
ATOM      1  C   UNL     1       2.775  -0.742   0.000  0.00  0.00    +0.149 A 
ATOM      2  C   UNL     1       1.950  -0.742   0.000  0.00  0.00    +0.154 A 
ATOM      3  N   UNL     1       1.538  -0.029   0.000  0.00  0.00    -0.207 NA
ATOM      4  C   UNL     1       1.950   0.688   0.000  0.00  0.00    +0.201 A 
ATOM      5  N   UNL     1       2.775   0.688   0.000  0.00  0.00    -0.205 NA
ATOM      6  N   UNL     1       3.325  -1.354   0.000  0.00  0.00    -0.219 NA
ATOM      7  C   UNL     1       4.079  -1.021   0.000  0.00  0.00    +0.180 A 
ATOM      8  N   UNL     1       3.996  -0.200   0.000  0.00  0.00    -0.292 N 
ATOM      9  C   UNL     1       3.188  -0.029   0.000  0.00  0.00    +0.167 A 
ENDROOT
BRANCH   2  10
ATOM     10  N   UNL     1       1.538  -1.458   0.000  0.00  0.00    -0.291 N 
BRANCH  10  11
ATOM     11  C   UNL     1       1.950  -2.171   0.000  0.00  0.00    +0.108 C 
BRANCH  11  12
ATOM     12  C   UNL     1       2.775  -2.171   0.000  0.00  0.00    +0.127 C 
BRANCH  12  13
ATOM     13  C   UNL     1       3.188  -2.888   0.000  0.00  0.00    +0.075 C 
ATOM     14  N   UNL     1       3.600  -3.600   0.000  0.00  0.00    -0.196 NA
ENDBRANCH  12  13
ENDBRANCH  11  12
ENDBRANCH  10  11
BRANCH  10  15
ATOM     15  C   UNL     1       0.713  -1.458   0.000  0.00  0.00    +0.092 C 
BRANCH  15  16
ATOM     16  C   UNL     1       0.300  -2.171   0.000  0.00  0.00    +0.020 C 
BRANCH  16  17
ATOM     17  C   UNL     1       0.713  -2.888   0.000  0.00  0.00    +0.002 C 
ATOM     18  C   UNL     1       0.300  -3.600   0.000  0.00  0.00    +0.000 C 
ENDBRANCH  16  17
BRANCH  16  19
ATOM     19  C   UNL     1      -0.525  -2.171   0.000  0.00  0.00    +0.002 C 
ATOM     20  C   UNL     1      -0.938  -2.888   0.000  0.00  0.00    +0.000 C 
ENDBRANCH  16  19
ENDBRANCH  15  16
ENDBRANCH  10  15
ENDBRANCH   2  10
BRANCH   8  21
ATOM     21  C   UNL     1       4.608   0.354   0.000  0.00  0.00    +0.144 C 
BRANCH  21  22
ATOM     22  C   UNL     1       4.438   1.158   0.000  0.00  0.00    +0.201 C 
ATOM     23  O   UNL     1       3.650   1.417   0.000  0.00  0.00    -0.218 OA
BRANCH  22  24
ATOM     24  C   UNL     1       5.050   1.712   0.000  0.00  0.00    +0.147 C 
ATOM     25  C   UNL     1       4.963   2.533   0.000  0.00  0.00    +0.035 C 
ATOM     26  C   UNL     1       5.717   2.867   0.000  0.00  0.00    +0.035 C 
ATOM     27  C   UNL     1       6.267   2.254   0.000  0.00  0.00    +0.142 C 
ATOM     28  O   UNL     1       5.854   1.542   0.000  0.00  0.00    -0.354 OA
ENDBRANCH  22  24
ENDBRANCH  21  22
ENDBRANCH   8  21
TORSDOF 11
