REMARK  Name = 
REMARK  4 active torsions:
REMARK  status: ('A' for Active; 'I' for Inactive)
REMARK    1  A    between atoms: C_2  and  C_3
REMARK    2  A    between atoms: C_3  and  N_4
REMARK    3  A    between atoms: N_12  and  C_13
REMARK    4  A    between atoms: C_13  and  C_14
REMARK                            x       y       z     vdW  Elec       q    Type
REMARK                         _______ _______ _______ _____ _____    ______ ____
ROOT
ATOM      1  C   UNL     1       0.715  -2.062   0.000  0.00  0.00    +0.197 C 
ENDROOT
BRANCH   1   2
ATOM      2  N   UNL     1       0.000  -1.650   0.000  0.00  0.00    -0.269 N 
ATOM      3  C   UNL     1       0.000  -0.825   0.000  0.00  0.00    +0.353 A 
ATOM      4  O   UNL     1       0.715  -0.412   0.000  0.00  0.00    -0.244 OA
ATOM      5  N   UNL     1      -0.715  -0.412   0.000  0.00  0.00    -0.153 NA
ATOM      6  C   UNL     1      -1.429  -0.825   0.000  0.00  0.00    +0.285 A 
ATOM      7  O   UNL     1      -2.143  -0.412   0.000  0.00  0.00    -0.265 OA
ATOM      8  C   UNL     1      -1.429  -1.650   0.000  0.00  0.00    +0.081 A 
ATOM      9  C   UNL     1      -0.715  -2.062   0.000  0.00  0.00    +0.085 A 
ENDBRANCH   1   2
BRANCH   1  11
ATOM     10  O   UNL     1       1.429  -0.825   0.000  0.00  0.00    -0.271 OA
ATOM     11  C   UNL     1       1.429  -1.650   0.000  0.00  0.00    +0.265 C 
ATOM     12  N   UNL     1       2.143  -2.062   0.000  0.00  0.00    -0.204 NA
BRANCH  12  13
ATOM     13  C   UNL     1       2.858  -1.650   0.000  0.00  0.00    +0.115 C 
BRANCH  13  14
ATOM     14  C   UNL     1       3.572  -2.062   0.000  0.00  0.00    +0.022 C 
ATOM     15  C   UNL     1       3.985  -2.777   0.000  0.00  0.00    +0.002 C 
ATOM     16  C   UNL     1       4.397  -2.062   0.000  0.00  0.00    +0.002 C 
ENDBRANCH  13  14
ENDBRANCH  12  13
ENDBRANCH   1  11
TORSDOF 4
