REMARK  Name = 
REMARK  7 active torsions:
REMARK  status: ('A' for Active; 'I' for Inactive)
REMARK    1  A    between atoms: C_2  and  O_4
REMARK    2  A    between atoms: O_4  and  C_5
REMARK    3  A    between atoms: C_5  and  C_6
REMARK    4  A    between atoms: C_6  and  C_7
REMARK    5  A    between atoms: C_9  and  C_10
REMARK    6  A    between atoms: C_10  and  C_11
REMARK    7  A    between atoms: N_13  and  C_14
REMARK                            x       y       z     vdW  Elec       q    Type
REMARK                         _______ _______ _______ _____ _____    ______ ____
ROOT
ATOM      1  C   UNL     1       6.672  -5.886   0.000  0.00  0.00    +0.239 A 
ATOM      2  O   UNL     1       6.758  -6.706   0.000  0.00  0.00    -0.337 OA
ATOM      3  N   UNL     1       7.565  -6.878   0.000  0.00  0.00    -0.060 NA
ATOM      4  C   UNL     1       7.977  -6.163   0.000  0.00  0.00    +0.190 A 
ATOM      5  N   UNL     1       7.425  -5.550   0.000  0.00  0.00    -0.194 NA
ENDROOT
BRANCH   1   6
ATOM      6  C   UNL     1       5.957  -5.473   0.000  0.00  0.00    +0.120 C 
BRANCH   6   7
ATOM      7  C   UNL     1       5.243  -5.886   0.000  0.00  0.00    +0.152 C 
BRANCH   7   8
ATOM      8  O   UNL     1       4.528  -5.473   0.000  0.00  0.00    -0.356 OA
BRANCH   8  10
ATOM      9  C   UNL     1       3.099  -5.473   0.000  0.00  0.00    +0.032 C 
ATOM     10  C   UNL     1       3.814  -5.886   0.000  0.00  0.00    +0.115 C 
ATOM     11  C   UNL     1       3.814  -6.711   0.000  0.00  0.00    +0.032 C 
ENDBRANCH   8  10
ENDBRANCH   7   8
ENDBRANCH   6   7
ENDBRANCH   1   6
BRANCH   4  12
ATOM     12  C   UNL     1       8.798  -6.077   0.000  0.00  0.00    +0.156 C 
BRANCH  12  13
ATOM     13  C   UNL     1       9.283  -6.744   0.000  0.00  0.00    +0.249 C 
ATOM     14  N   UNL     1      10.103  -6.658   0.000  0.00  0.00    -0.207 NA
ATOM     15  O   UNL     1       8.947  -7.498   0.000  0.00  0.00    -0.273 OA
BRANCH  14  16
ATOM     16  C   UNL     1      10.588  -7.325   0.000  0.00  0.00    +0.095 C 
ATOM     17  C   UNL     1      10.253  -8.079   0.000  0.00  0.00    +0.022 C 
ATOM     18  C   UNL     1      10.738  -8.747   0.000  0.00  0.00    +0.002 C 
ATOM     19  C   UNL     1      11.558  -8.660   0.000  0.00  0.00    +0.000 C 
ATOM     20  C   UNL     1      11.893  -7.907   0.000  0.00  0.00    +0.002 C 
ATOM     21  C   UNL     1      11.409  -7.239   0.000  0.00  0.00    +0.022 C 
ENDBRANCH  14  16
ENDBRANCH  12  13
ENDBRANCH   4  12
TORSDOF 7
