REMARK  Name = 
REMARK  4 active torsions:
REMARK  status: ('A' for Active; 'I' for Inactive)
REMARK    1  A    between atoms: CA_2  and  N_3
REMARK    2  A    between atoms: CA_2  and  C_15
REMARK    3  A    between atoms: C_4  and  C_6
REMARK    4  A    between atoms: C_6  and  N_7
REMARK                            x       y       z     vdW  Elec       q    Type
REMARK                         _______ _______ _______ _____ _____    ______ ____
ROOT
ATOM      1  C   UNK A   0       1.040  -1.040   0.000  0.00  0.00    +0.213 C 
ENDROOT
BRANCH   1   2
ATOM      2  N   UNK A   0       0.325  -0.627   0.000  0.00  0.00    -0.245 N 
ATOM      3  C   UNK A   0       0.239   0.193   0.000  0.00  0.00    +0.068 A 
ATOM      4  C   UNK A   0       0.852   0.746   0.000  0.00  0.00    +0.053 C 
ATOM      5  C   UNK A   0      -0.568   0.365   0.000  0.00  0.00    +0.086 A 
ATOM      6 CL   UNK A   0      -0.904   1.119   0.000  0.00  0.00    -0.080 Cl
ATOM      7  C   UNK A   0      -0.981  -0.349   0.000  0.00  0.00    +0.091 A 
ATOM      8  C   UNK A   0      -1.801  -0.436   0.000  0.00  0.00    +0.055 C 
ATOM      9  N   UNK A   0      -0.429  -0.963   0.000  0.00  0.00    -0.173 NA
ENDBRANCH   1   2
BRANCH   1  11
ATOM     10  N   ALA A   1       2.469  -1.040   0.000  0.00  0.00    -0.194 NA
ATOM     11  C   UNK A   0       1.754  -0.627   0.000  0.00  0.00    +0.267 C 
ATOM     12  O   UNK A   0       1.754   0.198   0.000  0.00  0.00    -0.271 OA
BRANCH  10  14
ATOM     13  CB  ALA A   1       3.183   0.198   0.000  0.00  0.00    +0.036 C 
ATOM     14  CA  ALA A   1       3.183  -0.627   0.000  0.00  0.00    +0.198 C 
BRANCH  14  15
ATOM     15  C   ALA A   1       3.897  -1.040   0.000  0.00  0.00    +0.384 C 
ATOM     16  OXT ALA A   1       3.897  -1.865   0.000  0.00  0.00    -0.244 OA
ATOM     17  O   ALA A   1       4.612  -0.627   0.000  0.00  0.00    -0.244 OA
ENDBRANCH  14  15
ENDBRANCH  10  14
ENDBRANCH   1  11
TORSDOF 4
