REMARK  Name = 
REMARK  2 active torsions:
REMARK  status: ('A' for Active; 'I' for Inactive)
REMARK    1  A    between atoms: C_7  and  N_8
REMARK    2  A    between atoms: N_11  and  C_12
REMARK                            x       y       z     vdW  Elec       q    Type
REMARK                         _______ _______ _______ _____ _____    ______ ____
ROOT
ATOM      1  N   UNL     1       0.663  -2.981   0.000  0.00  0.00    -0.142 NA
ATOM      2  C   UNL     1       0.663  -2.156   0.000  0.00  0.00    +0.345 C 
ATOM      3  N   UNL     1      -0.051  -1.744   0.000  0.00  0.00    -0.179 NA
ATOM      4  O   UNL     1       1.378  -1.744   0.000  0.00  0.00    -0.249 OA
ENDROOT
BRANCH   3   5
ATOM      5  C   UNL     1      -0.051  -0.919   0.000  0.00  0.00    +0.174 C 
ATOM      6  C   UNL     1       0.692  -0.561   0.000  0.00  0.00    +0.261 C 
ATOM      7  O   UNL     1       1.337  -1.075   0.000  0.00  0.00    -0.271 OA
ATOM      8  N   UNL     1       0.876   0.243   0.000  0.00  0.00    -0.204 NA
ATOM      9  C   UNL     1       0.361   0.888   0.000  0.00  0.00    +0.115 C 
ATOM     10  C   UNL     1      -0.464   0.888   0.000  0.00  0.00    +0.024 C 
ATOM     11  C   UNL     1      -0.978   0.243   0.000  0.00  0.00    +0.004 C 
ATOM     12  C   UNL     1      -0.795  -0.561   0.000  0.00  0.00    +0.031 C 
ENDBRANCH   3   5
BRANCH   1  15
ATOM     13  C   UNL     1       2.092  -2.156   0.000  0.00  0.00    +0.034 C 
ATOM     14  C   UNL     1       2.092  -2.981   0.000  0.00  0.00    +0.012 A 
ATOM     15  C   UNL     1       1.378  -3.394   0.000  0.00  0.00    +0.152 A 
ATOM     16  N   UNL     1       1.378  -4.219   0.000  0.00  0.00    -0.228 NA
ATOM     17  C   UNL     1       2.092  -4.631   0.000  0.00  0.00    +0.100 A 
ATOM     18  C   UNL     1       2.807  -4.219   0.000  0.00  0.00    +0.020 A 
ATOM     19  C   UNL     1       2.807  -3.394   0.000  0.00  0.00    +0.000 A 
ENDBRANCH   1  15
TORSDOF 2
