REMARK  Name = 
REMARK  2 active torsions:
REMARK  status: ('A' for Active; 'I' for Inactive)
REMARK    1  A    between atoms: C_2  and  C_4
REMARK    2  A    between atoms: C_7  and  N_8
REMARK                            x       y       z     vdW  Elec       q    Type
REMARK                         _______ _______ _______ _____ _____    ______ ____
ROOT
ATOM      1  C   UNL     1       3.279   3.712   0.000  0.00  0.00    +0.077 A 
ATOM      2  C   UNL     1       2.564   3.300   0.000  0.00  0.00    +0.020 A 
ATOM      3  C   UNL     1       2.564   2.475   0.000  0.00  0.00    +0.089 A 
ATOM      4 CL   UNL     1       1.850   2.062   0.000  0.00  0.00    -0.079 Cl
ATOM      5  C   UNL     1       3.279   2.062   0.000  0.00  0.00    +0.142 A 
ATOM      6  N   UNL     1       3.993   2.475   0.000  0.00  0.00    -0.228 NA
ATOM      7  C   UNL     1       3.993   3.300   0.000  0.00  0.00    +0.105 A 
ENDROOT
BRANCH   5   8
ATOM      8  N   UNL     1       3.279   1.238   0.000  0.00  0.00    -0.289 N 
ATOM      9  C   UNL     1       2.564   0.825   0.000  0.00  0.00    +0.101 C 
ATOM     10  C   UNL     1       2.564   0.000   0.000  0.00  0.00    +0.133 C 
ATOM     11  C   UNL     1       1.780  -0.255   0.000  0.00  0.00    +0.031 C 
ATOM     12  C   UNL     1       1.295   0.412   0.000  0.00  0.00    +0.004 C 
ATOM     13  O   UNL     1       3.279  -0.412   0.000  0.00  0.00    -0.353 OA
ATOM     14  C   UNL     1       3.993   0.000   0.000  0.00  0.00    +0.163 C 
ATOM     15  C   UNL     1       1.780   1.080   0.000  0.00  0.00    +0.022 C 
ATOM     16  C   UNL     1       3.993   0.825   0.000  0.00  0.00    +0.124 C 
ENDBRANCH   5   8
BRANCH   1  18
ATOM     17  N   UNL     1       2.564   4.950   0.000  0.00  0.00    -0.084 NA
ATOM     18  C   UNL     1       3.279   4.537   0.000  0.00  0.00    +0.286 C 
ATOM     19  O   UNL     1       3.993   4.950   0.000  0.00  0.00    -0.267 OA
ENDBRANCH   1  18
TORSDOF 2
