REMARK  Name = 
REMARK  6 active torsions:
REMARK  status: ('A' for Active; 'I' for Inactive)
REMARK    1  A    between atoms: C_2  and  N_4
REMARK    2  A    between atoms: C_7  and  N_10
REMARK    3  A    between atoms: N_10  and  C_11
REMARK    4  A    between atoms: C_11  and  C_12
REMARK    5  A    between atoms: C_12  and  C_13
REMARK    6  A    between atoms: C_15  and  C_18
REMARK                            x       y       z     vdW  Elec       q    Type
REMARK                         _______ _______ _______ _____ _____    ______ ____
ROOT
ATOM      1  N   UNL     1       2.037   6.828   0.000  0.00  0.00    -0.219 NA
ENDROOT
BRANCH   1   5
ATOM      2  N   UNL     1      -0.107   8.065   0.000  0.00  0.00    -0.274 NA
ATOM      3  C   UNL     1      -0.107   7.240   0.000  0.00  0.00    +0.073 C 
ATOM      4  C   UNL     1       0.608   6.828   0.000  0.00  0.00    +0.035 C 
ATOM      5  C   UNL     1       1.322   7.240   0.000  0.00  0.00    +0.076 C 
ATOM      6  C   UNL     1       1.322   8.065   0.000  0.00  0.00    +0.035 C 
ATOM      7  C   UNL     1       0.608   8.478   0.000  0.00  0.00    +0.073 C 
BRANCH   2   9
ATOM      8  C   UNL     1      -1.536   8.065   0.000  0.00  0.00    +0.017 C 
ATOM      9  C   UNL     1      -0.821   8.478   0.000  0.00  0.00    +0.058 C 
ATOM     10  C   UNL     1      -0.821   9.303   0.000  0.00  0.00    +0.017 C 
ENDBRANCH   2   9
ENDBRANCH   1   5
BRANCH   1  11
ATOM     11  C   UNL     1       2.037   6.003   0.000  0.00  0.00    +0.098 C 
BRANCH  11  12
ATOM     12  C   UNL     1       2.751   5.590   0.000  0.00  0.00    +0.107 C 
BRANCH  12  13
ATOM     13  C   UNL     1       2.751   4.765   0.000  0.00  0.00    +0.238 A 
ATOM     14  O   UNL     1       2.084   4.280   0.000  0.00  0.00    -0.337 OA
ATOM     15  N   UNL     1       2.339   3.496   0.000  0.00  0.00    -0.061 NA
ATOM     16  C   UNL     1       3.164   3.496   0.000  0.00  0.00    +0.180 A 
ATOM     17  N   UNL     1       3.419   4.280   0.000  0.00  0.00    -0.195 NA
BRANCH  16  18
ATOM     18  C   UNL     1       3.649   2.828   0.000  0.00  0.00    +0.062 C 
ATOM     19  C   UNL     1       3.313   2.075   0.000  0.00  0.00    +0.008 C 
ATOM     20  C   UNL     1       4.469   2.914   0.000  0.00  0.00    +0.008 C 
ENDBRANCH  16  18
ENDBRANCH  12  13
ENDBRANCH  11  12
ENDBRANCH   1  11
TORSDOF 6
