REMARK  Name = 
REMARK  5 active torsions:
REMARK  status: ('A' for Active; 'I' for Inactive)
REMARK    1  A    between atoms: S_2  and  N_5
REMARK    2  A    between atoms: C_9  and  C_11
REMARK    3  A    between atoms: N_13  and  C_14
REMARK    4  A    between atoms: C_14  and  C_15
REMARK    5  A    between atoms: C_15  and  C_16
REMARK                            x       y       z     vdW  Elec       q    Type
REMARK                         _______ _______ _______ _____ _____    ______ ____
ROOT
ATOM      1  C   UNL     1       0.715  -2.888   0.000  0.00  0.00    +0.242 C 
ATOM      2  N   UNL     1       1.429  -2.475   0.000  0.00  0.00    -0.205 NA
ATOM      3  O   UNL     1       0.715  -3.712   0.000  0.00  0.00    -0.273 OA
ENDROOT
BRANCH   1   6
ATOM      4  N   UNL     1      -1.429  -2.475   0.000  0.00  0.00    -0.159 NA
ATOM      5  C   UNL     1      -0.715  -2.888   0.000  0.00  0.00    +0.105 C 
ATOM      6  C   UNL     1       0.000  -2.475   0.000  0.00  0.00    +0.096 C 
ATOM      7  C   UNL     1       0.000  -1.650   0.000  0.00  0.00    +0.012 C 
ATOM      8  C   UNL     1      -0.715  -1.238   0.000  0.00  0.00    +0.020 C 
ATOM      9  C   UNL     1      -1.429  -1.650   0.000  0.00  0.00    +0.095 C 
BRANCH   4  11
ATOM     10  C   UNL     1      -2.858  -3.300   0.000  0.00  0.00    +0.196 C 
ATOM     11  S   UNL     1      -2.143  -2.888   0.000  0.00  0.00    +0.046 S 
ATOM     12  O   UNL     1      -2.556  -2.173   0.000  0.00  0.00    -0.157 OA
ATOM     13  O   UNL     1      -1.731  -3.602   0.000  0.00  0.00    -0.157 OA
ENDBRANCH   4  11
ENDBRANCH   1   6
BRANCH   2  14
ATOM     14  C   UNL     1       2.143  -2.888   0.000  0.00  0.00    +0.121 C 
BRANCH  14  15
ATOM     15  C   UNL     1       2.858  -2.475   0.000  0.00  0.00    +0.069 C 
BRANCH  15  16
ATOM     16  C   UNL     1       3.572  -2.888   0.000  0.00  0.00    +0.061 A 
ATOM     17  N   UNL     1       3.572  -3.712   0.000  0.00  0.00    -0.248 NA
ATOM     18  C   UNL     1       4.287  -4.125   0.000  0.00  0.00    +0.098 A 
ATOM     19  C   UNL     1       5.001  -3.712   0.000  0.00  0.00    +0.021 A 
ATOM     20  C   UNL     1       5.001  -2.888   0.000  0.00  0.00    +0.003 A 
ATOM     21  C   UNL     1       4.287  -2.475   0.000  0.00  0.00    +0.015 A 
ENDBRANCH  15  16
ENDBRANCH  14  15
ENDBRANCH   2  14
TORSDOF 5
