REMARK  Name = 
REMARK  3 active torsions:
REMARK  status: ('A' for Active; 'I' for Inactive)
REMARK    1  A    between atoms: C_2  and  C_3
REMARK    2  A    between atoms: C_2  and  S_20
REMARK    3  A    between atoms: N_5  and  C_6
REMARK                            x       y       z     vdW  Elec       q    Type
REMARK                         _______ _______ _______ _____ _____    ______ ____
ROOT
ATOM      1  C   UNL     1       0.715  -1.238   0.000  0.00  0.00    +0.093 A 
ATOM      2  C   UNL     1       0.000  -1.650   0.000  0.00  0.00    +0.117 A 
ATOM      3  N   UNL     1       0.000  -2.475   0.000  0.00  0.00    -0.228 NA
ATOM      4  C   UNL     1       0.715  -2.888   0.000  0.00  0.00    +0.132 A 
ATOM      5  N   UNL     1       0.715  -3.712   0.000  0.00  0.00    -0.288 N 
ATOM      6  C   UNL     1       0.000  -4.125   0.000  0.00  0.00    +0.122 C 
ATOM      7  C   UNL     1       0.000  -4.950   0.000  0.00  0.00    +0.135 C 
ATOM      8  C   UNL     1      -0.715  -5.362   0.000  0.00  0.00    +0.034 C 
ATOM      9  O   UNL     1       0.715  -5.362   0.000  0.00  0.00    -0.355 OA
ATOM     10  C   UNL     1       1.429  -4.950   0.000  0.00  0.00    +0.135 C 
ATOM     11  C   UNL     1       2.143  -5.362   0.000  0.00  0.00    +0.034 C 
ATOM     12  C   UNL     1       1.429  -4.125   0.000  0.00  0.00    +0.122 C 
ATOM     13  C   UNL     1       1.429  -2.475   0.000  0.00  0.00    +0.036 A 
ATOM     14  C   UNL     1       1.429  -1.650   0.000  0.00  0.00    +0.021 A 
ENDROOT
BRANCH   1  16
ATOM     15  C   UNL     1       0.000   0.000   0.000  0.00  0.00    +0.267 C 
ATOM     16  N   UNL     1       0.715  -0.412   0.000  0.00  0.00    -0.176 NA
ATOM     17  O   UNL     1      -0.715  -0.412   0.000  0.00  0.00    -0.271 OA
BRANCH  15  19
ATOM     18  C   UNL     1       0.715   1.238   0.000  0.00  0.00    +0.035 C 
ATOM     19  C   UNL     1       0.000   0.825   0.000  0.00  0.00    +0.207 C 
BRANCH  19  20
ATOM     20  S   UNL     1      -0.715   1.238   0.000  0.00  0.00    -0.001 S 
ATOM     21  C   UNL     1      -1.127   0.523   0.000  0.00  0.00    +0.177 C 
ATOM     22  O   UNL     1      -0.302   1.952   0.000  0.00  0.00    -0.173 OA
ATOM     23  O   UNL     1      -1.429   1.650   0.000  0.00  0.00    -0.173 OA
ENDBRANCH  19  20
ENDBRANCH  15  19
ENDBRANCH   1  16
TORSDOF 3
