REMARK  Name = 
REMARK  2 active torsions:
REMARK  status: ('A' for Active; 'I' for Inactive)
REMARK    1  A    between atoms: C_7  and  N_8
REMARK    2  A    between atoms: C_15  and  C_17
REMARK                            x       y       z     vdW  Elec       q    Type
REMARK                         _______ _______ _______ _____ _____    ______ ____
ROOT
ATOM      1  N   UNL     1       5.840   4.801   0.000  0.00  0.00    -0.186 NA
ATOM      2  C   UNL     1       6.325   4.133   0.000  0.00  0.00    +0.345 C 
ATOM      3  N   UNL     1       5.989   3.380   0.000  0.00  0.00    -0.134 NA
ATOM      4  C   UNL     1       6.474   2.712   0.000  0.00  0.00    +0.209 A 
ATOM      5  S   UNL     1       6.219   1.928   0.000  0.00  0.00    -0.033 S 
ATOM      6  C   UNL     1       6.887   1.443   0.000  0.00  0.00    +0.112 A 
ATOM      7  N   UNL     1       7.554   1.928   0.000  0.00  0.00    -0.144 NA
ATOM      8  N   UNL     1       7.299   2.712   0.000  0.00  0.00    -0.124 NA
ATOM      9  O   UNL     1       7.145   4.220   0.000  0.00  0.00    -0.249 OA
ENDROOT
BRANCH   1  12
ATOM     10  O   UNL     1       4.870   6.136   0.000  0.00  0.00    -0.221 OA
ATOM     11  C   UNL     1       5.691   6.222   0.000  0.00  0.00    +0.172 C 
ATOM     12  C   UNL     1       6.176   5.555   0.000  0.00  0.00    +0.127 C 
ATOM     13  C   UNL     1       6.996   5.641   0.000  0.00  0.00    +0.024 C 
ATOM     14  C   UNL     1       7.332   6.394   0.000  0.00  0.00    +0.002 C 
ATOM     15  C   UNL     1       6.847   7.062   0.000  0.00  0.00    +0.003 C 
ATOM     16  C   UNL     1       6.026   6.976   0.000  0.00  0.00    +0.035 C 
ENDBRANCH   1  12
BRANCH   6  17
ATOM     17  C   UNL     1       6.887   0.618   0.000  0.00  0.00    +0.048 C 
ATOM     18  C   UNL     1       6.474  -0.097   0.000  0.00  0.00    +0.007 C 
ATOM     19  C   UNL     1       7.299  -0.097   0.000  0.00  0.00    +0.007 C 
ENDBRANCH   6  17
TORSDOF 2
