REMARK  Name = 
REMARK  3 active torsions:
REMARK  status: ('A' for Active; 'I' for Inactive)
REMARK    1  A    between atoms: N_5  and  C_6
REMARK    2  A    between atoms: C_6  and  C_7
REMARK    3  A    between atoms: N_9  and  C_10
REMARK                            x       y       z     vdW  Elec       q    Type
REMARK                         _______ _______ _______ _____ _____    ______ ____
ROOT
ATOM      1  C   UNL     1       2.037   6.828   0.000  0.00  0.00    +0.196 C 
ENDROOT
BRANCH   1   7
ATOM      2  C   UNL     1      -0.821   8.478   0.000  0.00  0.00    +0.031 C 
ATOM      3  C   UNL     1      -0.107   8.065   0.000  0.00  0.00    -0.016 A 
ATOM      4  C   UNL     1      -0.107   7.240   0.000  0.00  0.00    +0.057 A 
ATOM      5  C   UNL     1       0.608   6.828   0.000  0.00  0.00    +0.261 A 
ATOM      6  O   UNL     1       0.608   6.003   0.000  0.00  0.00    -0.267 OA
ATOM      7  N   UNL     1       1.322   7.240   0.000  0.00  0.00    -0.285 N 
ATOM      8  C   UNL     1       1.322   8.065   0.000  0.00  0.00    +0.078 A 
ATOM      9  C   UNL     1       0.608   8.478   0.000  0.00  0.00    +0.015 A 
ENDBRANCH   1   7
BRANCH   1  10
ATOM     10  C   UNL     1       2.037   6.003   0.000  0.00  0.00    +0.264 C 
ATOM     11  N   UNL     1       2.751   5.590   0.000  0.00  0.00    -0.206 NA
ATOM     12  O   UNL     1       1.322   5.590   0.000  0.00  0.00    -0.271 OA
BRANCH  11  13
ATOM     13  C   UNL     1       2.751   4.765   0.000  0.00  0.00    +0.095 C 
ATOM     14  C   UNL     1       2.084   4.280   0.000  0.00  0.00    +0.022 C 
ATOM     15  C   UNL     1       2.339   3.496   0.000  0.00  0.00    +0.002 C 
ATOM     16  C   UNL     1       3.164   3.496   0.000  0.00  0.00    +0.002 C 
ATOM     17  C   UNL     1       3.419   4.280   0.000  0.00  0.00    +0.022 C 
ENDBRANCH  11  13
ENDBRANCH   1  10
TORSDOF 3
