REMARK  Name = 
REMARK  4 active torsions:
REMARK  status: ('A' for Active; 'I' for Inactive)
REMARK    1  A    between atoms: N_1  and  C_8
REMARK    2  A    between atoms: N_2  and  C_7
REMARK    3  A    between atoms: C_8  and  C_9
REMARK    4  A    between atoms: N_13  and  C_18
REMARK                            x       y       z     vdW  Elec       q    Type
REMARK                         _______ _______ _______ _____ _____    ______ ____
ROOT
ATOM      1  N   UNL     1       4.779   4.408   0.000  0.00  0.00    -0.238 N 
ATOM      2  C   UNL     1       4.067   4.821   0.000  0.00  0.00    +0.294 A 
ATOM      3  O   UNL     1       3.350   4.408   0.000  0.00  0.00    -0.264 OA
ATOM      4  C   UNL     1       4.067   5.646   0.000  0.00  0.00    +0.213 A 
ATOM      5  F   UNL     1       3.350   6.058   0.000  0.00  0.00    -0.198 F 
ATOM      6  C   UNL     1       4.779   6.058   0.000  0.00  0.00    +0.116 A 
ATOM      7  N   UNL     1       5.492   5.646   0.000  0.00  0.00    -0.255 N 
ATOM      8  C   UNL     1       5.492   4.821   0.000  0.00  0.00    +0.336 A 
ATOM      9  O   UNL     1       6.208   4.408   0.000  0.00  0.00    -0.246 OA
ENDROOT
BRANCH   7  10
ATOM     10  C   UNL     1       6.208   6.058   0.000  0.00  0.00    +0.208 C 
ATOM     11  C   UNL     1       6.296   6.879   0.000  0.00  0.00    +0.057 C 
ATOM     12  C   UNL     1       7.100   7.050   0.000  0.00  0.00    +0.037 C 
ATOM     13  C   UNL     1       7.513   6.338   0.000  0.00  0.00    +0.144 C 
ATOM     14  O   UNL     1       6.963   5.721   0.000  0.00  0.00    -0.335 OA
ENDBRANCH   7  10
BRANCH   1  15
ATOM     15  C   UNL     1       4.779   3.587   0.000  0.00  0.00    +0.201 C 
BRANCH  15  16
ATOM     16  C   UNL     1       4.067   3.175   0.000  0.00  0.00    +0.269 C 
ATOM     17  O   UNL     1       3.350   3.587   0.000  0.00  0.00    -0.271 OA
ATOM     18  N   UNL     1       4.067   2.350   0.000  0.00  0.00    -0.177 NA
BRANCH  18  19
ATOM     19  C   UNL     1       3.350   1.938   0.000  0.00  0.00    +0.077 A 
ATOM     20  C   UNL     1       3.350   1.113   0.000  0.00  0.00    +0.020 A 
ATOM     21  C   UNL     1       2.638   0.700   0.000  0.00  0.00    +0.042 A 
ATOM     22  C   UNL     1       1.921   1.113   0.000  0.00  0.00    +0.177 A 
ATOM     23  O   UNL     1       1.137   0.858   0.000  0.00  0.00    -0.435 OA
ATOM     24  C   UNL     1       0.650   1.525   0.000  0.00  0.00    +0.429 C 
ATOM     25  O   UNL     1       1.137   2.192   0.000  0.00  0.00    -0.435 OA
ATOM     26  C   UNL     1       1.921   1.938   0.000  0.00  0.00    +0.178 A 
ATOM     27  C   UNL     1       2.638   2.350   0.000  0.00  0.00    +0.057 A 
ENDBRANCH  18  19
ENDBRANCH  15  16
ENDBRANCH   1  15
TORSDOF 4
