REMARK  Name = 
REMARK  2 active torsions:
REMARK  status: ('A' for Active; 'I' for Inactive)
REMARK    1  A    between atoms: C_7  and  N_8
REMARK    2  A    between atoms: N_11  and  C_12
REMARK                            x       y       z     vdW  Elec       q    Type
REMARK                         _______ _______ _______ _____ _____    ______ ____
ROOT
ATOM      1  C   UNL     1       2.734  -3.035   0.000  0.00  0.00    +0.054 C 
ATOM      2  C   UNL     1       2.019  -3.448   0.000  0.00  0.00    +0.076 A 
ATOM      3  C   UNL     1       1.305  -3.035   0.000  0.00  0.00    +0.089 A 
ATOM      4  C   UNL     1       0.590  -3.448   0.000  0.00  0.00    +0.021 A 
ATOM      5  C   UNL     1       0.590  -4.273   0.000  0.00  0.00    +0.036 A 
ATOM      6  C   UNL     1       1.305  -4.685   0.000  0.00  0.00    +0.131 A 
ATOM      7  N   UNL     1       1.305  -5.510   0.000  0.00  0.00    -0.293 N 
ATOM      8  C   UNL     1       0.637  -5.995   0.000  0.00  0.00    +0.092 C 
ATOM      9  C   UNL     1       0.892  -6.780   0.000  0.00  0.00    +0.023 C 
ATOM     10  C   UNL     1       1.717  -6.780   0.000  0.00  0.00    +0.023 C 
ATOM     11  C   UNL     1       1.972  -5.995   0.000  0.00  0.00    +0.092 C 
ATOM     12  N   UNL     1       2.019  -4.273   0.000  0.00  0.00    -0.234 NA
ENDROOT
BRANCH   3  13
ATOM     13  N   UNL     1       1.305  -2.210   0.000  0.00  0.00    -0.160 NA
ATOM     14  C   UNL     1       2.019  -1.798   0.000  0.00  0.00    +0.343 C 
ATOM     15  N   UNL     1       2.019  -0.973   0.000  0.00  0.00    -0.190 NA
ATOM     16  O   UNL     1       2.734  -2.210   0.000  0.00  0.00    -0.249 OA
BRANCH  15  17
ATOM     17  C   UNL     1       2.734  -0.560   0.000  0.00  0.00    +0.085 C 
ATOM     18  C   UNL     1       3.546  -0.417   0.000  0.00  0.00    +0.052 C 
ATOM     19  C   UNL     1       3.828   0.358   0.000  0.00  0.00    +0.144 C 
ATOM     20  O   UNL     1       3.298   0.990   0.000  0.00  0.00    -0.354 OA
ATOM     21  C   UNL     1       2.486   0.847   0.000  0.00  0.00    +0.144 C 
ATOM     22  C   UNL     1       2.203   0.072   0.000  0.00  0.00    +0.052 C 
ATOM     23  C   UNL     1       3.016  -1.336   0.000  0.00  0.00    +0.022 C 
ENDBRANCH  15  17
ENDBRANCH   3  13
TORSDOF 2
