REMARK  Name = 
REMARK  8 active torsions:
REMARK  status: ('A' for Active; 'I' for Inactive)
REMARK    1  A    between atoms: N_2  and  C_10
REMARK    2  A    between atoms: N_7  and  C_15
REMARK    3  A    between atoms: N_7  and  C_20
REMARK    4  A    between atoms: C_10  and  C_12
REMARK    5  A    between atoms: C_12  and  C_21
REMARK    6  A    between atoms: C_13  and  C_19
REMARK    7  A    between atoms: C_15  and  C_18
REMARK    8  A    between atoms: C_19  and  C_20
REMARK                            x       y       z     vdW  Elec       q    Type
REMARK                         _______ _______ _______ _____ _____    ______ ____
ROOT
ATOM      1  C   UNL     1       0.442   1.429   0.000  0.00  0.00    +0.149 A 
ATOM      2  C   UNL     1      -0.383   1.429   0.000  0.00  0.00    +0.154 A 
ATOM      3  N   UNL     1      -0.796   2.146   0.000  0.00  0.00    -0.207 NA
ATOM      4  C   UNL     1      -0.383   2.858   0.000  0.00  0.00    +0.201 A 
ATOM      5  N   UNL     1       0.442   2.858   0.000  0.00  0.00    -0.205 NA
ATOM      6  N   UNL     1      -0.796   0.717   0.000  0.00  0.00    -0.291 N 
ATOM      7  N   UNL     1       0.992   0.817   0.000  0.00  0.00    -0.219 NA
ATOM      8  C   UNL     1       1.746   1.154   0.000  0.00  0.00    +0.180 A 
ATOM      9  N   UNL     1       1.658   1.975   0.000  0.00  0.00    -0.294 N 
ATOM     10  C   UNL     1       0.854   2.146   0.000  0.00  0.00    +0.167 A 
ENDROOT
BRANCH   9  11
ATOM     11  C   UNL     1       2.271   2.525   0.000  0.00  0.00    +0.112 C 
BRANCH  11  12
ATOM     12  C   UNL     1       2.100   3.333   0.000  0.00  0.00    +0.056 C 
ATOM     13  C   UNL     1       2.925   3.362   0.000  0.00  0.00    +0.037 C 
ATOM     14  C   UNL     1       3.312   4.088   0.000  0.00  0.00    +0.142 C 
ATOM     15  O   UNL     1       2.875   4.787   0.000  0.00  0.00    -0.354 OA
ATOM     16  C   UNL     1       2.050   4.758   0.000  0.00  0.00    +0.142 C 
ATOM     17  C   UNL     1       1.663   4.029   0.000  0.00  0.00    +0.037 C 
BRANCH  12  18
ATOM     18  C   UNL     1       1.337   3.025   0.000  0.00  0.00    +0.184 C 
ATOM     19  O   UNL     1       0.688   3.533   0.000  0.00  0.00    -0.220 OA
ENDBRANCH  12  18
ENDBRANCH  11  12
ENDBRANCH   9  11
BRANCH   6  20
ATOM     20  C   UNL     1      -1.621   0.717   0.000  0.00  0.00    +0.108 C 
BRANCH  20  21
ATOM     21  C   UNL     1      -2.033   0.000   0.000  0.00  0.00    +0.127 C 
BRANCH  21  22
ATOM     22  C   UNL     1      -2.858   0.000   0.000  0.00  0.00    +0.075 C 
ATOM     23  N   UNL     1      -3.683   0.000   0.000  0.00  0.00    -0.196 NA
ENDBRANCH  21  22
ENDBRANCH  20  21
ENDBRANCH   6  20
BRANCH   6  24
ATOM     24  C   UNL     1      -0.383   0.000   0.000  0.00  0.00    +0.095 C 
BRANCH  24  25
ATOM     25  C   UNL     1      -0.796  -0.713   0.000  0.00  0.00    +0.052 C 
ATOM     26  C   UNL     1      -0.463  -1.467   0.000  0.00  0.00    +0.036 C 
ATOM     27  C   UNL     1      -1.075  -2.017   0.000  0.00  0.00    +0.142 C 
ATOM     28  O   UNL     1      -1.788  -1.604   0.000  0.00  0.00    -0.354 OA
ATOM     29  C   UNL     1      -1.617  -0.800   0.000  0.00  0.00    +0.144 C 
ENDBRANCH  24  25
ENDBRANCH   6  24
TORSDOF 8
