REMARK  Name = 
REMARK  4 active torsions:
REMARK  status: ('A' for Active; 'I' for Inactive)
REMARK    1  A    between atoms: C_2  and  O_3
REMARK    2  A    between atoms: O_3  and  C_4
REMARK    3  A    between atoms: C_6  and  N_7
REMARK    4  A    between atoms: N_10  and  C_11
REMARK                            x       y       z     vdW  Elec       q    Type
REMARK                         _______ _______ _______ _____ _____    ______ ____
ROOT
ATOM      1  N   UNL     1      -3.342  -1.942   0.000  0.00  0.00    -0.189 NA
ATOM      2  C   UNL     1      -3.755  -1.227   0.000  0.00  0.00    +0.343 C 
ATOM      3  N   UNL     1      -4.580  -1.227   0.000  0.00  0.00    -0.159 NA
ATOM      4  O   UNL     1      -3.342  -0.513   0.000  0.00  0.00    -0.249 OA
ENDROOT
BRANCH   1   9
ATOM      5  C   UNL     1      -1.351  -1.942   0.000  0.00  0.00    +0.118 C 
ATOM      6  C   UNL     1      -1.934  -1.358   0.000  0.00  0.00    +0.044 C 
ATOM      7  C   UNL     1      -1.503  -0.655   0.000  0.00  0.00    +0.004 C 
ATOM      8  C   UNL     1      -2.365  -0.655   0.000  0.00  0.00    +0.004 C 
ATOM      9  C   UNL     1      -2.518  -1.942   0.000  0.00  0.00    +0.102 C 
ATOM     10  C   UNL     1      -1.934  -2.525   0.000  0.00  0.00    +0.051 C 
BRANCH   5  11
ATOM     11  O   UNL     1      -0.526  -1.942   0.000  0.00  0.00    -0.356 OA
BRANCH  11  13
ATOM     12  C   UNL     1       0.712  -1.227   0.000  0.00  0.00    +0.035 C 
ATOM     13  C   UNL     1      -0.113  -1.227   0.000  0.00  0.00    +0.142 C 
ENDBRANCH  11  13
ENDBRANCH   5  11
ENDBRANCH   1   9
BRANCH   3  14
ATOM     14  C   UNL     1      -4.992  -1.942   0.000  0.00  0.00    +0.094 A 
ATOM     15  C   UNL     1      -5.817  -1.942   0.000  0.00  0.00    +0.115 A 
ATOM     16  N   UNL     1      -6.230  -2.656   0.000  0.00  0.00    -0.241 NA
ATOM     17  C   UNL     1      -5.817  -3.371   0.000  0.00  0.00    +0.099 A 
ATOM     18  C   UNL     1      -4.992  -3.371   0.000  0.00  0.00    +0.022 A 
ATOM     19  C   UNL     1      -4.580  -2.656   0.000  0.00  0.00    +0.020 A 
ENDBRANCH   3  14
TORSDOF 4
