REMARK  Name = 
REMARK  7 active torsions:
REMARK  status: ('A' for Active; 'I' for Inactive)
REMARK    1  A    between atoms: N_2  and  C_10
REMARK    2  A    between atoms: C_4  and  N_7
REMARK    3  A    between atoms: N_7  and  C_11
REMARK    4  A    between atoms: C_10  and  C_12
REMARK    5  A    between atoms: C_11  and  C_15
REMARK    6  A    between atoms: C_12  and  C_16
REMARK    7  A    between atoms: N_13  and  C_15
REMARK                            x       y       z     vdW  Elec       q    Type
REMARK                         _______ _______ _______ _____ _____    ______ ____
ROOT
ATOM      1  C   UNL     1       2.562   0.825   0.000  0.00  0.00    +0.149 A 
ATOM      2  N   UNL     1       1.779   1.083   0.000  0.00  0.00    -0.219 NA
ATOM      3  C   UNL     1       1.292   0.412   0.000  0.00  0.00    +0.180 A 
ATOM      4  N   UNL     1       1.779  -0.254   0.000  0.00  0.00    -0.292 N 
ATOM      5  C   UNL     1       3.275   1.238   0.000  0.00  0.00    +0.154 A 
ATOM      6  N   UNL     1       3.992   0.825   0.000  0.00  0.00    -0.207 NA
ATOM      7  C   UNL     1       3.992   0.000   0.000  0.00  0.00    +0.201 A 
ATOM      8  N   UNL     1       3.275  -0.412   0.000  0.00  0.00    -0.205 NA
ATOM      9  C   UNL     1       2.562   0.000   0.000  0.00  0.00    +0.167 A 
ENDROOT
BRANCH   5  10
ATOM     10  N   UNL     1       3.275   2.062   0.000  0.00  0.00    -0.290 N 
ATOM     11  C   UNL     1       2.562   2.475   0.000  0.00  0.00    +0.114 C 
BRANCH  10  12
ATOM     12  C   UNL     1       3.992   2.475   0.000  0.00  0.00    +0.090 C 
ATOM     13  C   UNL     1       4.704   2.062   0.000  0.00  0.00    +0.023 C 
BRANCH  12  14
ATOM     14  C   UNL     1       3.992   3.300   0.000  0.00  0.00    +0.092 C 
BRANCH  14  15
ATOM     15  N   UNL     1       4.704   3.712   0.000  0.00  0.00    -0.267 NA
ATOM     16  C   UNL     1       5.421   3.300   0.000  0.00  0.00    +0.105 C 
ATOM     17  C   UNL     1       6.133   3.712   0.000  0.00  0.00    +0.159 C 
ATOM     18  O   UNL     1       6.133   4.533   0.000  0.00  0.00    -0.351 OA
ATOM     19  C   UNL     1       5.421   4.950   0.000  0.00  0.00    +0.159 C 
ATOM     20  C   UNL     1       4.704   4.533   0.000  0.00  0.00    +0.105 C 
ENDBRANCH  14  15
ENDBRANCH  12  14
ENDBRANCH  10  12
ENDBRANCH   5  10
BRANCH   4  21
ATOM     21  C   UNL     1       1.521  -1.038   0.000  0.00  0.00    +0.144 C 
BRANCH  21  22
ATOM     22  C   UNL     1       2.075  -1.650   0.000  0.00  0.00    +0.201 C 
ATOM     23  O   UNL     1       2.883  -1.479   0.000  0.00  0.00    -0.218 OA
BRANCH  22  24
ATOM     24  C   UNL     1       1.821  -2.433   0.000  0.00  0.00    +0.147 C 
ATOM     25  C   UNL     1       2.304  -3.104   0.000  0.00  0.00    +0.035 C 
ATOM     26  C   UNL     1       1.821  -3.771   0.000  0.00  0.00    +0.035 C 
ATOM     27  C   UNL     1       1.033  -3.517   0.000  0.00  0.00    +0.142 C 
ATOM     28  O   UNL     1       1.033  -2.692   0.000  0.00  0.00    -0.354 OA
ENDBRANCH  22  24
ENDBRANCH  21  22
ENDBRANCH   4  21
TORSDOF 7
