REMARK  Name = 
REMARK  3 active torsions:
REMARK  status: ('A' for Active; 'I' for Inactive)
REMARK    1  A    between atoms: C_2  and  C_3
REMARK    2  A    between atoms: C_3  and  C_4
REMARK    3  A    between atoms: N_15  and  C_16
REMARK                            x       y       z     vdW  Elec       q    Type
REMARK                         _______ _______ _______ _____ _____    ______ ____
ROOT
ATOM      1  C   UNL     1       1.508  -2.253   0.000  0.00  0.00    +0.077 A 
ATOM      2  N   UNL     1       1.422  -1.432   0.000  0.00  0.00    -0.228 NA
ATOM      3  C   UNL     1       0.615  -1.261   0.000  0.00  0.00    +0.170 A 
ATOM      4  N   UNL     1       0.279  -0.507   0.000  0.00  0.00    -0.220 N 
ATOM      5  C   UNL     1       0.692   0.207   0.000  0.00  0.00    +0.329 C 
ATOM      6  O   UNL     1       1.512   0.294   0.000  0.00  0.00    -0.250 OA
ATOM      7  N   UNL     1       0.140   0.821   0.000  0.00  0.00    -0.186 NA
ATOM      8  C   UNL     1      -0.614   0.485   0.000  0.00  0.00    +0.139 C 
ATOM      9  C   UNL     1      -0.528  -0.336   0.000  0.00  0.00    +0.125 C 
ATOM     10  S   UNL     1       0.202  -1.975   0.000  0.00  0.00    -0.051 S 
ATOM     11  C   UNL     1       0.754  -2.588   0.000  0.00  0.00    +0.053 A 
ENDROOT
BRANCH   1  12
ATOM     12  C   UNL     1       2.222  -2.665   0.000  0.00  0.00    +0.133 C 
BRANCH  12  14
ATOM     13  O   UNL     1       1.508  -3.903   0.000  0.00  0.00    -0.273 OA
ATOM     14  C   UNL     1       2.222  -3.490   0.000  0.00  0.00    +0.247 C 
ATOM     15  N   UNL     1       2.937  -3.903   0.000  0.00  0.00    -0.207 NA
BRANCH  15  16
ATOM     16  C   UNL     1       2.937  -4.728   0.000  0.00  0.00    +0.095 C 
ATOM     17  C   UNL     1       2.524  -5.442   0.000  0.00  0.00    +0.023 C 
ATOM     18  C   UNL     1       3.349  -5.442   0.000  0.00  0.00    +0.023 C 
ENDBRANCH  15  16
ENDBRANCH  12  14
ENDBRANCH   1  12
TORSDOF 3
