REMARK  Name = 
REMARK  4 active torsions:
REMARK  status: ('A' for Active; 'I' for Inactive)
REMARK    1  A    between atoms: C_7  and  C_8
REMARK    2  A    between atoms: C_8  and  C_9
REMARK    3  A    between atoms: N_11  and  C_12
REMARK    4  A    between atoms: N_15  and  C_17
REMARK                            x       y       z     vdW  Elec       q    Type
REMARK                         _______ _______ _______ _____ _____    ______ ____
ROOT
ATOM      1  C   UNL     1       0.625   6.309   0.000  0.00  0.00    +0.246 C 
ATOM      2  N   UNL     1       0.289   5.556   0.000  0.00  0.00    -0.205 NA
ATOM      3  O   UNL     1       1.445   6.396   0.000  0.00  0.00    -0.273 OA
ENDROOT
BRANCH   2   4
ATOM      4  C   UNL     1       0.774   4.888   0.000  0.00  0.00    +0.113 C 
ATOM      5  C   UNL     1       0.519   4.104   0.000  0.00  0.00    +0.094 C 
ATOM      6  N   UNL     1       1.187   3.619   0.000  0.00  0.00    -0.272 NA
ATOM      7  C   UNL     1       1.854   4.104   0.000  0.00  0.00    +0.074 C 
ATOM      8  C   UNL     1       1.599   4.888   0.000  0.00  0.00    +0.040 C 
BRANCH   6   9
ATOM      9  C   UNL     1       1.187   2.794   0.000  0.00  0.00    +0.058 C 
ATOM     10  C   UNL     1       0.774   2.079   0.000  0.00  0.00    +0.017 C 
ATOM     11  C   UNL     1       1.599   2.079   0.000  0.00  0.00    +0.017 C 
ENDBRANCH   6   9
ENDBRANCH   2   4
BRANCH   1  12
ATOM     12  C   UNL     1       0.140   6.977   0.000  0.00  0.00    +0.118 C 
BRANCH  12  15
ATOM     13  C   UNL     1      -0.757   8.531   0.000  0.00  0.00    +0.055 C 
ATOM     14  C   UNL     1       0.063   8.445   0.000  0.00  0.00    +0.098 A 
ATOM     15  C   UNL     1       0.475   7.731   0.000  0.00  0.00    +0.052 A 
ATOM     16  C   UNL     1       1.282   7.902   0.000  0.00  0.00    +0.231 A 
ATOM     17 CL   UNL     1       1.896   7.350   0.000  0.00  0.00    -0.040 Cl
ATOM     18  O   UNL     1       1.369   8.723   0.000  0.00  0.00    -0.342 OA
ATOM     19  N   UNL     1       0.615   9.058   0.000  0.00  0.00    -0.081 NA
ENDBRANCH  12  15
ENDBRANCH   1  12
TORSDOF 4
