REMARK  Name = 
REMARK  3 active torsions:
REMARK  status: ('A' for Active; 'I' for Inactive)
REMARK    1  A    between atoms: C_5  and  C_6
REMARK    2  A    between atoms: C_6  and  N_7
REMARK    3  A    between atoms: N_10  and  C_11
REMARK                            x       y       z     vdW  Elec       q    Type
REMARK                         _______ _______ _______ _____ _____    ______ ____
ROOT
ATOM      1  N   UNL     1       1.429  -2.475   0.000  0.00  0.00    -0.187 NA
ATOM      2  C   UNL     1       2.143  -2.888   0.000  0.00  0.00    +0.343 C 
ATOM      3  N   UNL     1       2.858  -2.475   0.000  0.00  0.00    -0.161 NA
ATOM      4  O   UNL     1       2.143  -3.712   0.000  0.00  0.00    -0.249 OA
ENDROOT
BRANCH   3   5
ATOM      5  C   UNL     1       3.572  -2.888   0.000  0.00  0.00    +0.078 A 
ATOM      6  C   UNL     1       3.572  -3.712   0.000  0.00  0.00    +0.037 A 
ATOM      7  C   UNL     1       4.287  -4.125   0.000  0.00  0.00    +0.100 A 
ATOM      8  N   UNL     1       5.001  -3.712   0.000  0.00  0.00    -0.242 NA
ATOM      9  C   UNL     1       5.001  -2.888   0.000  0.00  0.00    +0.100 A 
ATOM     10  C   UNL     1       4.287  -2.475   0.000  0.00  0.00    +0.037 A 
ENDBRANCH   3   5
BRANCH   1  11
ATOM     11  C   UNL     1       0.715  -2.888   0.000  0.00  0.00    +0.117 C 
BRANCH  11  16
ATOM     12  C   UNL     1      -2.143  -1.238   0.000  0.00  0.00    +0.090 C 
ATOM     13  N   UNL     1      -1.429  -1.650   0.000  0.00  0.00    -0.272 NA
ATOM     14  C   UNL     1      -1.429  -2.475   0.000  0.00  0.00    +0.072 C 
ATOM     15  C   UNL     1      -0.715  -2.888   0.000  0.00  0.00    +0.019 C 
ATOM     16  C   UNL     1       0.000  -2.475   0.000  0.00  0.00    +0.025 C 
ATOM     17  C   UNL     1       0.000  -1.650   0.000  0.00  0.00    +0.019 C 
ATOM     18  C   UNL     1      -0.715  -1.238   0.000  0.00  0.00    +0.072 C 
ENDBRANCH  11  16
ENDBRANCH   1  11
TORSDOF 3
