REMARK  Name = 
REMARK  4 active torsions:
REMARK  status: ('A' for Active; 'I' for Inactive)
REMARK    1  A    between atoms: N_3  and  C_4
REMARK    2  A    between atoms: C_4  and  C_5
REMARK    3  A    between atoms: C_5  and  N_6
REMARK    4  A    between atoms: N_12  and  C_13
REMARK                            x       y       z     vdW  Elec       q    Type
REMARK                         _______ _______ _______ _____ _____    ______ ____
ROOT
ATOM      1  O   UNL     1       2.858  -2.475   0.000  0.00  0.00    -0.249 OA
ATOM      2  C   UNL     1       2.858  -1.650   0.000  0.00  0.00    +0.344 C 
ATOM      3  N   UNL     1       3.572  -1.238   0.000  0.00  0.00    -0.151 NA
ATOM      4  N   UNL     1       2.143  -1.238   0.000  0.00  0.00    -0.185 NA
ENDROOT
BRANCH   3   5
ATOM      5  C   UNL     1       4.287  -1.650   0.000  0.00  0.00    +0.144 A 
ATOM      6  S   UNL     1       4.373  -2.470   0.000  0.00  0.00    +0.054 S 
ATOM      7  N   UNL     1       5.180  -2.642   0.000  0.00  0.00    -0.108 NA
ATOM      8  N   UNL     1       5.593  -1.927   0.000  0.00  0.00    -0.137 NA
ATOM      9  C   UNL     1       5.040  -1.314   0.000  0.00  0.00    +0.147 A 
ENDBRANCH   3   5
BRANCH   4  10
ATOM     10  C   UNL     1       1.429  -1.650   0.000  0.00  0.00    +0.134 C 
BRANCH  10  11
ATOM     11  C   UNL     1       0.715  -1.238   0.000  0.00  0.00    +0.096 C 
BRANCH  11  12
ATOM     12  N   UNL     1       0.000  -1.650   0.000  0.00  0.00    -0.271 NA
ATOM     13  C   UNL     1      -0.715  -1.238   0.000  0.00  0.00    +0.072 C 
ATOM     14  C   UNL     1      -1.429  -1.650   0.000  0.00  0.00    +0.017 C 
ATOM     15  C   UNL     1      -1.429  -2.475   0.000  0.00  0.00    +0.003 C 
ATOM     16  C   UNL     1      -0.715  -2.888   0.000  0.00  0.00    +0.017 C 
ATOM     17  C   UNL     1       0.000  -2.475   0.000  0.00  0.00    +0.072 C 
ENDBRANCH  11  12
ENDBRANCH  10  11
ENDBRANCH   4  10
TORSDOF 4
