REMARK  Name = 
REMARK  2 active torsions:
REMARK  status: ('A' for Active; 'I' for Inactive)
REMARK    1  A    between atoms: C_2  and  C_3
REMARK    2  A    between atoms: C_3  and  N_4
REMARK                            x       y       z     vdW  Elec       q    Type
REMARK                         _______ _______ _______ _____ _____    ______ ____
ROOT
ATOM      1  N   UNL     1       0.963  -1.820   0.000  0.00  0.00    -0.184 NA
ATOM      2  C   UNL     1       1.677  -1.407   0.000  0.00  0.00    +0.345 C 
ATOM      3  N   UNL     1       2.392  -1.820   0.000  0.00  0.00    -0.136 NA
ATOM      4  C   UNL     1       3.106  -1.407   0.000  0.00  0.00    +0.187 A 
ATOM      5  S   UNL     1       3.860  -1.743   0.000  0.00  0.00    -0.049 S 
ATOM      6  C   UNL     1       4.412  -1.130   0.000  0.00  0.00    +0.059 A 
ATOM      7  C   UNL     1       3.999  -0.415   0.000  0.00  0.00    +0.108 A 
ATOM      8  N   UNL     1       3.192  -0.587   0.000  0.00  0.00    -0.221 NA
ATOM      9  O   UNL     1       1.677  -0.582   0.000  0.00  0.00    -0.249 OA
ENDROOT
BRANCH   1  10
ATOM     10  C   UNL     1       0.248  -1.407   0.000  0.00  0.00    +0.147 C 
BRANCH  10  12
ATOM     11  O   UNL     1       0.064  -2.452   0.000  0.00  0.00    -0.224 OA
ATOM     12  C   UNL     1      -0.466  -1.820   0.000  0.00  0.00    +0.147 C 
ATOM     13  C   UNL     1      -0.749  -1.044   0.000  0.00  0.00    +0.032 C 
ATOM     14  C   UNL     1      -1.561  -0.901   0.000  0.00  0.00    +0.003 C 
ATOM     15  C   UNL     1      -2.091  -1.533   0.000  0.00  0.00    +0.000 C 
ATOM     16  C   UNL     1      -1.809  -2.308   0.000  0.00  0.00    +0.003 C 
ATOM     17  C   UNL     1      -0.997  -2.452   0.000  0.00  0.00    +0.032 C 
ENDBRANCH  10  12
ENDBRANCH   1  10
TORSDOF 2
