REMARK  Name = 
REMARK  8 active torsions:
REMARK  status: ('A' for Active; 'I' for Inactive)
REMARK    1  A    between atoms: O_2  and  C_3
REMARK    2  A    between atoms: C_3  and  C_4
REMARK    3  A    between atoms: C_4  and  N_5
REMARK    4  A    between atoms: C_6  and  S_7
REMARK    5  A    between atoms: S_7  and  C_8
REMARK    6  A    between atoms: C_8  and  C_9
REMARK    7  A    between atoms: N_11  and  C_12
REMARK    8  A    between atoms: C_12  and  C_13
REMARK                            x       y       z     vdW  Elec       q    Type
REMARK                         _______ _______ _______ _____ _____    ______ ____
ROOT
ATOM      1  N   UNL     1       1.429  -1.200   0.000  0.00  0.00    -0.304 N 
ATOM      2  C   UNL     1       0.622  -1.028   0.000  0.00  0.00    +0.079 A 
ATOM      3  C   UNL     1       0.209  -1.743   0.000  0.00  0.00    +0.100 A 
ATOM      4  C   UNL     1      -0.616  -1.743   0.000  0.00  0.00    +0.032 A 
ATOM      5  C   UNL     1      -1.028  -1.028   0.000  0.00  0.00    +0.059 A 
ATOM      6  C   UNL     1      -0.616  -0.314   0.000  0.00  0.00    +0.013 A 
ATOM      7 CL   UNL     1      -1.853  -1.028   0.000  0.00  0.00    -0.082 Cl
ATOM      8  N   UNL     1       0.761  -2.356   0.000  0.00  0.00    -0.221 NA
ATOM      9  C   UNL     1       0.209  -0.314   0.000  0.00  0.00    +0.020 A 
ATOM     10  C   UNL     1       1.515  -2.020   0.000  0.00  0.00    +0.172 A 
ENDROOT
BRANCH   1  11
ATOM     11  C   UNL     1       2.042  -0.648   0.000  0.00  0.00    +0.140 C 
BRANCH  11  12
ATOM     12  C   UNL     1       1.870   0.159   0.000  0.00  0.00    +0.167 C 
BRANCH  12  14
ATOM     13  C   UNL     1       2.312   1.518   0.000  0.00  0.00    +0.174 C 
ATOM     14  O   UNL     1       2.483   0.711   0.000  0.00  0.00    -0.349 OA
ENDBRANCH  12  14
ENDBRANCH  11  12
ENDBRANCH   1  11
BRANCH  10  15
ATOM     15  S   UNL     1       2.229  -2.433   0.000  0.00  0.00    -0.067 S 
BRANCH  15  16
ATOM     16  C   UNL     1       2.944  -2.020   0.000  0.00  0.00    +0.152 C 
BRANCH  16  17
ATOM     17  C   UNL     1       3.658  -2.433   0.000  0.00  0.00    +0.254 C 
ATOM     18  N   UNL     1       4.373  -2.020   0.000  0.00  0.00    -0.188 NA
ATOM     19  O   UNL     1       3.658  -3.258   0.000  0.00  0.00    -0.272 OA
BRANCH  18  20
ATOM     20  C   UNL     1       5.087  -2.433   0.000  0.00  0.00    +0.219 C 
BRANCH  20  21
ATOM     21  C   UNL     1       5.802  -2.020   0.000  0.00  0.00    +0.097 C 
ATOM     22  N   UNL     1       6.516  -1.608   0.000  0.00  0.00    -0.194 NA
ENDBRANCH  20  21
ENDBRANCH  18  20
ENDBRANCH  16  17
ENDBRANCH  15  16
ENDBRANCH  10  15
TORSDOF 8
