REMARK  Name = 
REMARK  6 active torsions:
REMARK  status: ('A' for Active; 'I' for Inactive)
REMARK    1  A    between atoms: N_10  and  C_11
REMARK    2  A    between atoms: C_11  and  C_12
REMARK    3  A    between atoms: C_12  and  C_14
REMARK    4  A    between atoms: C_14  and  O_15
REMARK    5  A    between atoms: O_15  and  C_16
REMARK    6  A    between atoms: C_16  and  C_17
REMARK                            x       y       z     vdW  Elec       q    Type
REMARK                         _______ _______ _______ _____ _____    ______ ____
ROOT
ATOM      1  C   UNL     1       2.897  -2.038   0.000  0.00  0.00    +0.138 C 
ATOM      2  N   UNL     1       2.345  -1.425   0.000  0.00  0.00    -0.245 N 
ATOM      3  C   UNL     1       2.600  -0.641   0.000  0.00  0.00    +0.283 A 
ATOM      4  O   UNL     1       3.407  -0.469   0.000  0.00  0.00    -0.265 OA
ATOM      5  C   UNL     1       2.048  -0.028   0.000  0.00  0.00    +0.153 A 
ATOM      6  C   UNL     1       1.241  -0.199   0.000  0.00  0.00    +0.170 A 
ATOM      7  N   UNL     1       0.829   0.515   0.000  0.00  0.00    -0.206 NA
ATOM      8  C   UNL     1       1.381   1.129   0.000  0.00  0.00    +0.180 A 
ATOM      9  N   UNL     1       0.986  -0.984   0.000  0.00  0.00    -0.263 N 
ATOM     10  C   UNL     1       0.179  -1.155   0.000  0.00  0.00    +0.137 C 
ATOM     11  N   UNL     1       2.135   0.793   0.000  0.00  0.00    -0.301 N 
ATOM     12  C   UNL     1       1.538  -1.597   0.000  0.00  0.00    +0.335 A 
ATOM     13  O   UNL     1       1.284  -2.381   0.000  0.00  0.00    -0.246 OA
ENDROOT
BRANCH  11  14
ATOM     14  C   UNL     1       2.849   1.206   0.000  0.00  0.00    +0.143 C 
BRANCH  14  15
ATOM     15  C   UNL     1       3.563   0.793   0.000  0.00  0.00    +0.204 C 
ATOM     16  O   UNL     1       3.563  -0.032   0.000  0.00  0.00    -0.218 OA
BRANCH  15  17
ATOM     17  C   UNL     1       4.278   1.206   0.000  0.00  0.00    +0.177 C 
BRANCH  17  18
ATOM     18  O   UNL     1       4.992   0.793   0.000  0.00  0.00    -0.346 OA
BRANCH  18  19
ATOM     19  C   UNL     1       5.707   1.206   0.000  0.00  0.00    +0.169 C 
BRANCH  19  20
ATOM     20  C   UNL     1       6.421   0.793   0.000  0.00  0.00    +0.007 A 
ATOM     21  C   UNL     1       6.421  -0.032   0.000  0.00  0.00    -0.002 A 
ATOM     22  C   UNL     1       7.136  -0.445   0.000  0.00  0.00    -0.000 A 
ATOM     23  C   UNL     1       7.850  -0.032   0.000  0.00  0.00    -0.000 A 
ATOM     24  C   UNL     1       7.850   0.793   0.000  0.00  0.00    -0.000 A 
ATOM     25  C   UNL     1       7.136   1.206   0.000  0.00  0.00    -0.002 A 
ENDBRANCH  19  20
ENDBRANCH  18  19
ENDBRANCH  17  18
ENDBRANCH  15  17
ENDBRANCH  14  15
ENDBRANCH  11  14
TORSDOF 6
