REMARK  Name = 
REMARK  4 active torsions:
REMARK  status: ('A' for Active; 'I' for Inactive)
REMARK    1  A    between atoms: C_3  and  C_5
REMARK    2  A    between atoms: N_10  and  C_11
REMARK    3  A    between atoms: C_11  and  C_12
REMARK    4  A    between atoms: N_14  and  C_15
REMARK                            x       y       z     vdW  Elec       q    Type
REMARK                         _______ _______ _______ _____ _____    ______ ____
ROOT
ATOM      1  C   UNL     1       2.037   3.651   0.000  0.00  0.00    +0.072 A 
ATOM      2  C   UNL     1       2.751   3.238   0.000  0.00  0.00    +0.083 A 
ATOM      3  N   UNL     1       3.466   3.651   0.000  0.00  0.00    -0.285 N 
ATOM      4  C   UNL     1       3.466   4.476   0.000  0.00  0.00    +0.261 A 
ATOM      5  O   UNL     1       4.180   4.888   0.000  0.00  0.00    -0.267 OA
ATOM      6  C   UNL     1       2.751   4.888   0.000  0.00  0.00    +0.061 A 
ATOM      7  C   UNL     1       2.037   4.476   0.000  0.00  0.00    +0.011 A 
ENDROOT
BRANCH   1  10
ATOM      8  C   UNL     1      -0.107   3.238   0.000  0.00  0.00    +0.139 C 
ATOM      9  N   UNL     1       0.608   3.651   0.000  0.00  0.00    -0.200 NA
ATOM     10  C   UNL     1       1.322   3.238   0.000  0.00  0.00    +0.266 C 
ATOM     11  O   UNL     1       1.322   2.413   0.000  0.00  0.00    -0.268 OA
ENDBRANCH   1  10
BRANCH   3  12
ATOM     12  C   UNL     1       4.180   3.238   0.000  0.00  0.00    +0.196 C 
BRANCH  12  13
ATOM     13  C   UNL     1       4.180   2.413   0.000  0.00  0.00    +0.264 C 
ATOM     14  N   UNL     1       4.895   2.001   0.000  0.00  0.00    -0.206 NA
ATOM     15  O   UNL     1       3.466   2.001   0.000  0.00  0.00    -0.271 OA
BRANCH  14  16
ATOM     16  C   UNL     1       4.895   1.176   0.000  0.00  0.00    +0.095 C 
ATOM     17  C   UNL     1       4.227   0.691   0.000  0.00  0.00    +0.022 C 
ATOM     18  C   UNL     1       4.482  -0.094   0.000  0.00  0.00    +0.002 C 
ATOM     19  C   UNL     1       5.307  -0.094   0.000  0.00  0.00    +0.002 C 
ATOM     20  C   UNL     1       5.562   0.691   0.000  0.00  0.00    +0.022 C 
ENDBRANCH  14  16
ENDBRANCH  12  13
ENDBRANCH   3  12
TORSDOF 4
