REMARK  Name = 
REMARK  4 active torsions:
REMARK  status: ('A' for Active; 'I' for Inactive)
REMARK    1  A    between atoms: C_2  and  C_3
REMARK    2  A    between atoms: C_3  and  N_4
REMARK    3  A    between atoms: N_9  and  C_10
REMARK    4  A    between atoms: C_10  and  C_17
REMARK                            x       y       z     vdW  Elec       q    Type
REMARK                         _______ _______ _______ _____ _____    ______ ____
ROOT
ATOM      1  O   UNL     1      -1.393  -2.417   0.000  0.00  0.00    -0.271 OA
ATOM      2  C   UNL     1      -0.678  -2.005   0.000  0.00  0.00    +0.265 C 
ATOM      3  N   UNL     1      -0.678  -1.180   0.000  0.00  0.00    -0.193 NA
ENDROOT
BRANCH   3   4
ATOM      4  C   UNL     1      -1.393  -0.767   0.000  0.00  0.00    +0.157 C 
ATOM      5  C   UNL     1      -0.832  -0.163   0.000  0.00  0.00    +0.034 C 
ATOM      6  C   UNL     1      -0.955   0.653   0.000  0.00  0.00    +0.003 C 
ATOM      7  C   UNL     1      -1.669   1.066   0.000  0.00  0.00    +0.000 C 
ATOM      8  C   UNL     1      -2.437   0.764   0.000  0.00  0.00    +0.000 C 
ATOM      9  C   UNL     1      -2.680  -0.024   0.000  0.00  0.00    +0.003 C 
ATOM     10  C   UNL     1      -2.216  -0.706   0.000  0.00  0.00    +0.034 C 
BRANCH   4  11
ATOM     11  C   UNL     1      -1.636  -1.556   0.000  0.00  0.00    +0.091 C 
ATOM     12  N   UNL     1      -1.879  -2.344   0.000  0.00  0.00    -0.194 NA
ENDBRANCH   4  11
ENDBRANCH   3   4
BRANCH   2  13
ATOM     13  C   UNL     1       0.036  -2.417   0.000  0.00  0.00    +0.195 C 
BRANCH  13  14
ATOM     14  N   UNL     1       0.036  -3.242   0.000  0.00  0.00    -0.299 N 
ATOM     15  C   UNL     1      -0.631  -3.727   0.000  0.00  0.00    +0.179 A 
ATOM     16  N   UNL     1      -0.376  -4.512   0.000  0.00  0.00    -0.222 NA
ATOM     17  C   UNL     1       0.449  -4.512   0.000  0.00  0.00    +0.119 A 
ATOM     18  C   UNL     1       0.704  -3.727   0.000  0.00  0.00    +0.098 A 
ENDBRANCH  13  14
ENDBRANCH   2  13
TORSDOF 4
