REMARK  Name = 
REMARK  5 active torsions:
REMARK  status: ('A' for Active; 'I' for Inactive)
REMARK    1  A    between atoms: S_2  and  N_4
REMARK    2  A    between atoms: S_2  and  N_13
REMARK    3  A    between atoms: N_4  and  C_5
REMARK    4  A    between atoms: C_5  and  C_6
REMARK    5  A    between atoms: C_6  and  C_7
REMARK                            x       y       z     vdW  Elec       q    Type
REMARK                         _______ _______ _______ _____ _____    ______ ____
ROOT
ATOM      1  O   UNL     1       3.750  -2.025   0.000  0.00  0.00    -0.140 OA
ATOM      2  S   UNL     1       3.337  -1.311   0.000  0.00  0.00    +0.116 S 
ATOM      3  O   UNL     1       2.925  -0.596   0.000  0.00  0.00    -0.140 OA
ENDROOT
BRANCH   2   4
ATOM      4  N   UNL     1       4.052  -0.898   0.000  0.00  0.00    -0.144 NA
ATOM      5  C   UNL     1       4.734  -1.363   0.000  0.00  0.00    +0.097 C 
ATOM      6  C   UNL     1       5.522  -1.120   0.000  0.00  0.00    +0.019 C 
ATOM      7  C   UNL     1       5.823  -0.352   0.000  0.00  0.00    +0.002 C 
ATOM      8  C   UNL     1       5.411   0.363   0.000  0.00  0.00    +0.002 C 
ATOM      9  C   UNL     1       4.595   0.486   0.000  0.00  0.00    +0.019 C 
ATOM     10  C   UNL     1       3.990  -0.076   0.000  0.00  0.00    +0.097 C 
ENDBRANCH   2   4
BRANCH   2  11
ATOM     11  N   UNL     1       2.623  -1.723   0.000  0.00  0.00    -0.066 NA
BRANCH  11  12
ATOM     12  C   UNL     1       2.623  -2.548   0.000  0.00  0.00    +0.123 C 
BRANCH  12  13
ATOM     13  C   UNL     1       1.909  -2.961   0.000  0.00  0.00    +0.067 C 
BRANCH  13  14
ATOM     14  C   UNL     1       1.909  -3.786   0.000  0.00  0.00    +0.061 A 
ATOM     15  N   UNL     1       1.194  -4.198   0.000  0.00  0.00    -0.248 NA
ATOM     16  C   UNL     1       1.194  -5.023   0.000  0.00  0.00    +0.098 A 
ATOM     17  C   UNL     1       1.909  -5.436   0.000  0.00  0.00    +0.021 A 
ATOM     18  C   UNL     1       2.623  -5.023   0.000  0.00  0.00    +0.003 A 
ATOM     19  C   UNL     1       2.623  -4.198   0.000  0.00  0.00    +0.015 A 
ENDBRANCH  13  14
ENDBRANCH  12  13
ENDBRANCH  11  12
ENDBRANCH   2  11
TORSDOF 5
