REMARK  Name = 
REMARK  4 active torsions:
REMARK  status: ('A' for Active; 'I' for Inactive)
REMARK    1  A    between atoms: C_3  and  C_11
REMARK    2  A    between atoms: C_8  and  C_16
REMARK    3  A    between atoms: C_9  and  N_13
REMARK    4  A    between atoms: C_11  and  N_13
REMARK                            x       y       z     vdW  Elec       q    Type
REMARK                         _______ _______ _______ _____ _____    ______ ____
ROOT
ATOM      1  C   UNL     1       0.000  -4.950   0.000  0.00  0.00    +0.146 C 
ENDROOT
BRANCH   1   5
ATOM      2  N   UNL     1      -2.146  -5.362   0.000  0.00  0.00    -0.153 NA
ATOM      3  C   UNL     1      -1.429  -4.950   0.000  0.00  0.00    +0.282 A 
ATOM      4  O   UNL     1      -1.429  -4.125   0.000  0.00  0.00    -0.265 OA
ATOM      5  C   UNL     1      -0.717  -5.362   0.000  0.00  0.00    +0.075 A 
ATOM      6  C   UNL     1      -0.717  -6.188   0.000  0.00  0.00    +0.082 A 
ATOM      7  N   UNL     1      -1.429  -6.600   0.000  0.00  0.00    -0.277 N 
ATOM      8  C   UNL     1      -1.429  -7.425   0.000  0.00  0.00    +0.135 C 
ATOM      9  C   UNL     1      -2.146  -6.188   0.000  0.00  0.00    +0.353 A 
ATOM     10  O   UNL     1      -2.858  -6.600   0.000  0.00  0.00    -0.244 OA
ENDBRANCH   1   5
BRANCH   1  11
ATOM     11  N   UNL     1       0.000  -4.125   0.000  0.00  0.00    -0.215 NA
BRANCH  11  12
ATOM     12  C   UNL     1       0.713  -3.712   0.000  0.00  0.00    +0.151 A 
ATOM     13  C   UNL     1       1.425  -4.125   0.000  0.00  0.00    +0.056 A 
ATOM     14  C   UNL     1       2.142  -3.712   0.000  0.00  0.00    +0.103 A 
ATOM     15  N   UNL     1       2.142  -2.888   0.000  0.00  0.00    -0.229 NA
ATOM     16  C   UNL     1       1.425  -2.475   0.000  0.00  0.00    +0.140 A 
ATOM     17  N   UNL     1       0.713  -2.888   0.000  0.00  0.00    -0.215 NA
BRANCH  16  18
ATOM     18  C   UNL     1       1.425  -1.650   0.000  0.00  0.00    +0.059 C 
ATOM     19  C   UNL     1       2.142  -1.238   0.000  0.00  0.00    +0.008 C 
ATOM     20  C   UNL     1       0.713  -1.238   0.000  0.00  0.00    +0.008 C 
ENDBRANCH  16  18
ENDBRANCH  11  12
ENDBRANCH   1  11
TORSDOF 4
