REMARK  Name = 
REMARK  3 active torsions:
REMARK  status: ('A' for Active; 'I' for Inactive)
REMARK    1  A    between atoms: C_2  and  C_3
REMARK    2  A    between atoms: C_3  and  C_4
REMARK    3  A    between atoms: C_6  and  N_7
REMARK                            x       y       z     vdW  Elec       q    Type
REMARK                         _______ _______ _______ _____ _____    ______ ____
ROOT
ATOM      1  N   UNL     1      -2.968  -2.539   0.000  0.00  0.00    -0.189 NA
ATOM      2  C   UNL     1      -3.683  -2.126   0.000  0.00  0.00    +0.345 C 
ATOM      3  N   UNL     1      -4.397  -2.539   0.000  0.00  0.00    -0.137 NA
ATOM      4  C   UNL     1      -4.397  -3.364   0.000  0.00  0.00    +0.213 A 
ATOM      5  C   UNL     1      -5.112  -3.776   0.000  0.00  0.00    +0.295 A 
ATOM      6  O   UNL     1      -5.826  -3.364   0.000  0.00  0.00    -0.264 OA
ATOM      7  N   UNL     1      -5.112  -4.601   0.000  0.00  0.00    -0.288 N 
ATOM      8  C   UNL     1      -5.826  -5.014   0.000  0.00  0.00    +0.134 C 
ATOM      9  C   UNL     1      -4.397  -5.014   0.000  0.00  0.00    +0.099 A 
ATOM     10  C   UNL     1      -3.683  -4.601   0.000  0.00  0.00    +0.119 A 
ATOM     11  N   UNL     1      -3.683  -3.776   0.000  0.00  0.00    -0.221 NA
ATOM     12  O   UNL     1      -3.683  -1.301   0.000  0.00  0.00    -0.249 OA
ENDROOT
BRANCH   1  14
ATOM     13  C   UNL     1      -1.841  -1.412   0.000  0.00  0.00    +0.022 C 
ATOM     14  C   UNL     1      -2.254  -2.126   0.000  0.00  0.00    +0.097 C 
ATOM     15  C   UNL     1      -1.429  -2.126   0.000  0.00  0.00    +0.023 C 
BRANCH  13  16
ATOM     16  C   UNL     1      -1.841  -0.587   0.000  0.00  0.00    +0.002 C 
BRANCH  16  18
ATOM     17  C   UNL     1      -1.127   0.651   0.000  0.00  0.00    +0.000 C 
ATOM     18  C   UNL     1      -1.127  -0.174   0.000  0.00  0.00    +0.000 C 
ENDBRANCH  16  18
ENDBRANCH  13  16
ENDBRANCH   1  14
TORSDOF 3
