REMARK  Name = 
REMARK  6 active torsions:
REMARK  status: ('A' for Active; 'I' for Inactive)
REMARK    1  A    between atoms: C_2  and  C_3
REMARK    2  A    between atoms: C_3  and  C_4
REMARK    3  A    between atoms: C_4  and  C_5
REMARK    4  A    between atoms: C_5  and  N_6
REMARK    5  A    between atoms: N_6  and  C_7
REMARK    6  A    between atoms: C_12  and  N_13
REMARK                            x       y       z     vdW  Elec       q    Type
REMARK                         _______ _______ _______ _____ _____    ______ ____
ROOT
ATOM      1  C   UNL     1       2.858  -3.300   0.000  0.00  0.00    +0.095 C 
ATOM      2  C   UNL     1       3.572  -3.712   0.000  0.00  0.00    +0.121 C 
ATOM      3  C   UNL     1       4.287  -3.300   0.000  0.00  0.00    +0.026 C 
ATOM      4  C   UNL     1       4.287  -2.475   0.000  0.00  0.00    +0.002 C 
ATOM      5  C   UNL     1       3.572  -2.062   0.000  0.00  0.00    +0.002 C 
ATOM      6  C   UNL     1       2.858  -2.475   0.000  0.00  0.00    +0.019 C 
ENDROOT
BRANCH   2   7
ATOM      7  N   UNL     1       3.572  -4.537   0.000  0.00  0.00    -0.250 N 
ATOM      8  N   UNL     1       2.905  -5.022   0.000  0.00  0.00    -0.168 NA
ATOM      9  C   UNL     1       3.160  -5.807   0.000  0.00  0.00    +0.122 A 
ATOM     10  C   UNL     1       3.985  -5.807   0.000  0.00  0.00    +0.043 A 
ATOM     11  C   UNL     1       4.240  -5.022   0.000  0.00  0.00    +0.097 A 
ENDBRANCH   2   7
BRANCH   1  12
ATOM     12  N   UNL     1       2.143  -3.712   0.000  0.00  0.00    -0.217 NA
BRANCH  12  13
ATOM     13  C   UNL     1       1.429  -3.300   0.000  0.00  0.00    +0.090 C 
BRANCH  13  14
ATOM     14  C   UNL     1       0.715  -3.712   0.000  0.00  0.00    +0.035 C 
BRANCH  14  15
ATOM     15  C   UNL     1       0.000  -3.300   0.000  0.00  0.00    +0.107 C 
BRANCH  15  17
ATOM     16  N   UNL     1      -1.429  -4.125   0.000  0.00  0.00    -0.196 NA
ATOM     17  C   UNL     1      -0.715  -3.712   0.000  0.00  0.00    +0.073 C 
ENDBRANCH  15  17
ENDBRANCH  14  15
ENDBRANCH  13  14
ENDBRANCH  12  13
ENDBRANCH   1  12
TORSDOF 6
