REMARK  Name = 
REMARK  7 active torsions:
REMARK  status: ('A' for Active; 'I' for Inactive)
REMARK    1  A    between atoms: C_2  and  C_4
REMARK    2  A    between atoms: C_4  and  C_5
REMARK    3  A    between atoms: C_4  and  C_16
REMARK    4  A    between atoms: C_5  and  N_6
REMARK    5  A    between atoms: C_7  and  C_9
REMARK    6  A    between atoms: C_9  and  C_10
REMARK    7  A    between atoms: C_10  and  C_11
REMARK                            x       y       z     vdW  Elec       q    Type
REMARK                         _______ _______ _______ _____ _____    ______ ____
ROOT
ATOM      1  C   UNL     1       1.080  -0.715   0.000  0.00  0.00    +0.119 C 
ENDROOT
BRANCH   1   2
ATOM      2  N   UNL     1       1.620  -1.338   0.000  0.00  0.00    -0.205 NA
ATOM      3  C   UNL     1       2.430  -1.182   0.000  0.00  0.00    +0.241 C 
ATOM      4  O   UNL     1       2.700  -0.403   0.000  0.00  0.00    -0.273 OA
BRANCH   3   5
ATOM      5  C   UNL     1       2.970  -1.806   0.000  0.00  0.00    +0.087 C 
BRANCH   5   6
ATOM      6  C   UNL     1       3.781  -1.650   0.000  0.00  0.00    +0.010 C 
BRANCH   6   7
ATOM      7  C   UNL     1       4.321  -2.274   0.000  0.00  0.00    +0.000 C 
ATOM      8  C   UNL     1       4.134  -3.077   0.000  0.00  0.00    +0.000 C 
ATOM      9  C   UNL     1       4.840  -3.503   0.000  0.00  0.00    +0.000 C 
ATOM     10  C   UNL     1       5.464  -2.963   0.000  0.00  0.00    +0.000 C 
ATOM     11  C   UNL     1       5.143  -2.203   0.000  0.00  0.00    +0.000 C 
ENDBRANCH   6   7
ENDBRANCH   5   6
ENDBRANCH   3   5
ENDBRANCH   1   2
BRANCH   1  12
ATOM     12  C   UNL     1       0.270  -0.870   0.000  0.00  0.00    +0.046 C 
BRANCH  12  13
ATOM     13  C   UNL     1      -0.270  -0.247   0.000  0.00  0.00    -0.002 A 
ATOM     14  C   UNL     1       0.000   0.533   0.000  0.00  0.00    +0.095 A 
ATOM     15  N   UNL     1      -0.540   1.156   0.000  0.00  0.00    -0.243 NA
ATOM     16  C   UNL     1      -1.350   1.000   0.000  0.00  0.00    +0.099 A 
ATOM     17  C   UNL     1      -1.620   0.221   0.000  0.00  0.00    +0.020 A 
ATOM     18  C   UNL     1      -1.080  -0.403   0.000  0.00  0.00    -0.001 A 
ENDBRANCH  12  13
BRANCH  12  20
ATOM     19  C   UNL     1       0.540  -2.274   0.000  0.00  0.00    +0.000 C 
ATOM     20  C   UNL     1       0.000  -1.650   0.000  0.00  0.00    +0.006 C 
ATOM     21  C   UNL     1      -0.810  -1.806   0.000  0.00  0.00    +0.000 C 
ENDBRANCH  12  20
ENDBRANCH   1  12
TORSDOF 7
