REMARK  Name = 
REMARK  7 active torsions:
REMARK  status: ('A' for Active; 'I' for Inactive)
REMARK    1  A    between atoms: C_2  and  N_3
REMARK    2  A    between atoms: C_2  and  C_23
REMARK    3  A    between atoms: C_4  and  C_6
REMARK    4  A    between atoms: C_6  and  N_7
REMARK    5  A    between atoms: C_11  and  C_12
REMARK    6  A    between atoms: N_14  and  C_16
REMARK    7  A    between atoms: C_16  and  C_18
REMARK                            x       y       z     vdW  Elec       q    Type
REMARK                         _______ _______ _______ _____ _____    ______ ____
ROOT
ATOM      1  N   UNL     1       3.572  -2.888   0.000  0.00  0.00    -0.285 N 
ATOM      2  C   UNL     1       3.572  -3.712   0.000  0.00  0.00    +0.266 A 
ATOM      3  O   UNL     1       2.858  -4.125   0.000  0.00  0.00    -0.267 OA
ATOM      4  C   UNL     1       4.287  -4.125   0.000  0.00  0.00    +0.110 A 
ATOM      5  C   UNL     1       5.001  -3.712   0.000  0.00  0.00    +0.011 A 
ATOM      6  C   UNL     1       5.001  -2.888   0.000  0.00  0.00    +0.019 A 
ATOM      7  C   UNL     1       4.287  -2.475   0.000  0.00  0.00    +0.079 A 
ENDROOT
BRANCH   4   8
ATOM      8  C   UNL     1       4.287  -4.950   0.000  0.00  0.00    +0.254 C 
ATOM      9  N   UNL     1       5.001  -5.362   0.000  0.00  0.00    -0.276 N 
ATOM     10  C   UNL     1       5.716  -4.950   0.000  0.00  0.00    +0.115 C 
ATOM     11  O   UNL     1       3.572  -5.362   0.000  0.00  0.00    -0.270 OA
BRANCH   9  12
ATOM     12  C   UNL     1       5.001  -6.188   0.000  0.00  0.00    +0.076 C 
ATOM     13  C   UNL     1       4.287  -6.600   0.000  0.00  0.00    +0.022 C 
BRANCH  12  14
ATOM     14  C   UNL     1       5.716  -6.600   0.000  0.00  0.00    +0.018 C 
ATOM     15  C   UNL     1       6.128  -7.314   0.000  0.00  0.00    +0.002 C 
ATOM     16  C   UNL     1       6.541  -6.600   0.000  0.00  0.00    +0.002 C 
ENDBRANCH  12  14
ENDBRANCH   9  12
ENDBRANCH   4   8
BRANCH   1  17
ATOM     17  C   UNL     1       2.858  -2.475   0.000  0.00  0.00    +0.196 C 
BRANCH  17  19
ATOM     18  N   UNL     1       1.429  -2.475   0.000  0.00  0.00    -0.206 NA
ATOM     19  C   UNL     1       2.143  -2.888   0.000  0.00  0.00    +0.264 C 
ATOM     20  O   UNL     1       2.143  -3.712   0.000  0.00  0.00    -0.271 OA
BRANCH  18  22
ATOM     21  C   UNL     1       0.715  -3.712   0.000  0.00  0.00    +0.023 C 
ATOM     22  C   UNL     1       0.715  -2.888   0.000  0.00  0.00    +0.095 C 
BRANCH  22  23
ATOM     23  C   UNL     1       0.000  -2.475   0.000  0.00  0.00    +0.020 C 
ATOM     24  C   UNL     1      -0.412  -1.760   0.000  0.00  0.00    +0.002 C 
ATOM     25  C   UNL     1      -0.825  -2.475   0.000  0.00  0.00    +0.002 C 
ENDBRANCH  22  23
ENDBRANCH  18  22
ENDBRANCH  17  19
ENDBRANCH   1  17
TORSDOF 7
