REMARK  Name = 
REMARK  4 active torsions:
REMARK  status: ('A' for Active; 'I' for Inactive)
REMARK    1  A    between atoms: C_5  and  N_9
REMARK    2  A    between atoms: N_9  and  C_10
REMARK    3  A    between atoms: C_10  and  C_11
REMARK    4  A    between atoms: C_11  and  C_12
REMARK                            x       y       z     vdW  Elec       q    Type
REMARK                         _______ _______ _______ _____ _____    ______ ____
ROOT
ATOM      1  C   UNL     1      -0.608   6.003   0.000  0.00  0.00    +0.093 C 
ENDROOT
BRANCH   1   2
ATOM      2  N   UNL     1      -0.608   6.828   0.000  0.00  0.00    -0.219 NA
BRANCH   2   8
ATOM      3  C   UNL     1       2.250   8.478   0.000  0.00  0.00    +0.000 C 
ATOM      4  C   UNL     1       1.536   8.065   0.000  0.00  0.00    +0.000 C 
ATOM      5  C   UNL     1       0.821   8.478   0.000  0.00  0.00    +0.001 C 
ATOM      6  C   UNL     1       0.821   9.303   0.000  0.00  0.00    +0.000 C 
ATOM      7  C   UNL     1       0.107   8.065   0.000  0.00  0.00    +0.017 C 
ATOM      8  C   UNL     1       0.107   7.240   0.000  0.00  0.00    +0.073 C 
ATOM      9  C   UNL     1       0.821   6.828   0.000  0.00  0.00    +0.017 C 
ATOM     10  C   UNL     1       1.536   7.240   0.000  0.00  0.00    +0.001 C 
ENDBRANCH   2   8
ENDBRANCH   1   2
BRANCH   1  11
ATOM     11  C   UNL     1      -1.322   5.590   0.000  0.00  0.00    +0.048 C 
BRANCH  11  12
ATOM     12  C   UNL     1      -1.322   4.765   0.000  0.00  0.00    +0.008 A 
ATOM     13  C   UNL     1      -1.990   4.280   0.000  0.00  0.00    +0.053 A 
ATOM     14  C   UNL     1      -2.774   4.535   0.000  0.00  0.00    +0.051 C 
ATOM     15  N   UNL     1      -1.735   3.496   0.000  0.00  0.00    -0.253 N 
ATOM     16  C   UNL     1      -2.220   2.828   0.000  0.00  0.00    +0.153 C 
ATOM     17  N   UNL     1      -0.910   3.496   0.000  0.00  0.00    -0.174 NA
ATOM     18  C   UNL     1      -0.655   4.280   0.000  0.00  0.00    +0.076 A 
ATOM     19  C   UNL     1       0.130   4.535   0.000  0.00  0.00    +0.054 C 
ENDBRANCH  11  12
ENDBRANCH   1  11
TORSDOF 4
