REMARK  Name = 
REMARK  6 active torsions:
REMARK  status: ('A' for Active; 'I' for Inactive)
REMARK    1  A    between atoms: O_2  and  C_3
REMARK    2  A    between atoms: C_3  and  C_4
REMARK    3  A    between atoms: C_4  and  O_5
REMARK    4  A    between atoms: O_5  and  C_6
REMARK    5  A    between atoms: C_11  and  C_12
REMARK    6  A    between atoms: C_17  and  C_20
REMARK                            x       y       z     vdW  Elec       q    Type
REMARK                         _______ _______ _______ _____ _____    ______ ____
ROOT
ATOM      1  C   UNL     1       3.572  -3.712   0.000  0.00  0.00    +0.229 A 
ATOM      2  C   UNL     1       4.287  -4.125   0.000  0.00  0.00    +0.107 A 
ATOM      3  C   UNL     1       5.001  -3.712   0.000  0.00  0.00    +0.011 A 
ATOM      4  C   UNL     1       5.001  -2.888   0.000  0.00  0.00    +0.021 A 
ATOM      5  C   UNL     1       4.287  -2.475   0.000  0.00  0.00    +0.102 A 
ATOM      6  N   UNL     1       3.572  -2.888   0.000  0.00  0.00    -0.210 NA
ENDROOT
BRANCH   2   7
ATOM      7  C   UNL     1       4.287  -4.950   0.000  0.00  0.00    +0.254 C 
ATOM      8  N   UNL     1       5.001  -5.362   0.000  0.00  0.00    -0.276 N 
ATOM      9  C   UNL     1       5.001  -6.188   0.000  0.00  0.00    +0.094 C 
ATOM     10  C   UNL     1       5.716  -6.600   0.000  0.00  0.00    +0.031 C 
ATOM     11  C   UNL     1       6.430  -6.188   0.000  0.00  0.00    +0.083 C 
ATOM     12  C   UNL     1       6.430  -5.362   0.000  0.00  0.00    +0.031 C 
ATOM     13  C   UNL     1       5.716  -4.950   0.000  0.00  0.00    +0.094 C 
ATOM     14  O   UNL     1       3.572  -5.362   0.000  0.00  0.00    -0.270 OA
BRANCH  11  15
ATOM     15  C   UNL     1       7.145  -6.600   0.000  0.00  0.00    +0.260 C 
ATOM     16  N   UNL     1       7.145  -7.425   0.000  0.00  0.00    -0.088 NA
ATOM     17  O   UNL     1       7.859  -6.188   0.000  0.00  0.00    -0.272 OA
ENDBRANCH  11  15
ENDBRANCH   2   7
BRANCH   1  18
ATOM     18  O   UNL     1       2.858  -4.125   0.000  0.00  0.00    -0.457 OA
BRANCH  18  19
ATOM     19  C   UNL     1       2.143  -3.712   0.000  0.00  0.00    +0.239 C 
BRANCH  19  20
ATOM     20  C   UNL     1       1.429  -4.125   0.000  0.00  0.00    +0.189 C 
BRANCH  20  22
ATOM     21  C   UNL     1       0.000  -4.125   0.000  0.00  0.00    +0.174 C 
ATOM     22  O   UNL     1       0.715  -3.712   0.000  0.00  0.00    -0.347 OA
ENDBRANCH  20  22
ENDBRANCH  19  20
ENDBRANCH  18  19
ENDBRANCH   1  18
TORSDOF 6
