REMARK  Name = 
REMARK  6 active torsions:
REMARK  status: ('A' for Active; 'I' for Inactive)
REMARK    1  A    between atoms: C_2  and  C_3
REMARK    2  A    between atoms: C_2  and  N_13
REMARK    3  A    between atoms: C_3  and  C_4
REMARK    4  A    between atoms: N_13  and  C_14
REMARK    5  A    between atoms: C_14  and  C_15
REMARK    6  A    between atoms: C_15  and  C_16
REMARK                            x       y       z     vdW  Elec       q    Type
REMARK                         _______ _______ _______ _____ _____    ______ ____
ROOT
ATOM      1  C   UNL     1       0.388  -0.324   0.000  0.00  0.00    +0.019 C 
ATOM      2  C   UNL     1       0.388  -1.149   0.000  0.00  0.00    +0.082 C 
ENDROOT
BRANCH   2   3
ATOM      3  N   UNL     1       1.102  -1.562   0.000  0.00  0.00    -0.219 NA
BRANCH   3   4
ATOM      4  C   UNL     1       1.817  -1.149   0.000  0.00  0.00    +0.093 C 
BRANCH   4   5
ATOM      5  C   UNL     1       2.531  -1.562   0.000  0.00  0.00    +0.048 C 
BRANCH   5   6
ATOM      6  C   UNL     1       3.245  -1.149   0.000  0.00  0.00    +0.019 A 
ATOM      7  C   UNL     1       3.999  -1.485   0.000  0.00  0.00    +0.092 A 
ATOM      8  N   UNL     1       4.551  -0.872   0.000  0.00  0.00    -0.248 N 
ATOM      9  C   UNL     1       5.372  -0.958   0.000  0.00  0.00    +0.154 C 
ATOM     10  N   UNL     1       4.139  -0.157   0.000  0.00  0.00    -0.168 NA
ATOM     11  C   UNL     1       3.332  -0.329   0.000  0.00  0.00    +0.117 A 
ENDBRANCH   5   6
ENDBRANCH   4   5
ENDBRANCH   3   4
ENDBRANCH   2   3
BRANCH   2  12
ATOM     12  C   UNL     1      -0.327  -1.562   0.000  0.00  0.00    +0.103 C 
BRANCH  12  13
ATOM     13  C   UNL     1      -1.041  -1.149   0.000  0.00  0.00    +0.227 C 
ATOM     14  N   UNL     1      -1.756  -1.562   0.000  0.00  0.00    -0.280 N 
ATOM     15  C   UNL     1      -2.438  -1.097   0.000  0.00  0.00    +0.093 C 
ATOM     16  C   UNL     1      -3.226  -1.340   0.000  0.00  0.00    +0.022 C 
ATOM     17  C   UNL     1      -3.527  -2.108   0.000  0.00  0.00    +0.002 C 
ATOM     18  C   UNL     1      -3.115  -2.823   0.000  0.00  0.00    +0.002 C 
ATOM     19  C   UNL     1      -2.299  -2.946   0.000  0.00  0.00    +0.022 C 
ATOM     20  C   UNL     1      -1.694  -2.385   0.000  0.00  0.00    +0.093 C 
ATOM     21  O   UNL     1      -1.041  -0.324   0.000  0.00  0.00    -0.275 OA
ENDBRANCH  12  13
ENDBRANCH   2  12
TORSDOF 6
