REMARK  Name = 
REMARK  8 active torsions:
REMARK  status: ('A' for Active; 'I' for Inactive)
REMARK    1  A    between atoms: N_1  and  C_7
REMARK    2  A    between atoms: C_6  and  N_15
REMARK    3  A    between atoms: C_10  and  C_19
REMARK    4  A    between atoms: C_10  and  C_20
REMARK    5  A    between atoms: C_11  and  C_18
REMARK    6  A    between atoms: N_15  and  C_24
REMARK    7  A    between atoms: N_17  and  C_21
REMARK    8  A    between atoms: C_21  and  C_24
REMARK                            x       y       z     vdW  Elec       q    Type
REMARK                         _______ _______ _______ _____ _____    ______ ____
ROOT
ATOM      1  N   UNL     1       4.895  -3.849   0.000  0.00  0.00    -0.296 N 
ATOM      2  C   UNL     1       4.562  -4.604   0.000  0.00  0.00    +0.180 A 
ATOM      3  N   UNL     1       3.741  -4.516   0.000  0.00  0.00    -0.219 NA
ATOM      4  C   UNL     1       3.570  -3.712   0.000  0.00  0.00    +0.149 A 
ATOM      5  C   UNL     1       2.854  -3.300   0.000  0.00  0.00    +0.154 A 
ATOM      6  N   UNL     1       2.854  -2.475   0.000  0.00  0.00    -0.207 NA
ATOM      7  C   UNL     1       3.570  -2.062   0.000  0.00  0.00    +0.201 A 
ATOM      8  N   UNL     1       4.283  -2.475   0.000  0.00  0.00    -0.205 NA
ATOM      9  C   UNL     1       4.283  -3.300   0.000  0.00  0.00    +0.167 A 
ENDROOT
BRANCH   1  10
ATOM     10  C   UNL     1       5.703  -3.679   0.000  0.00  0.00    +0.089 C 
ATOM     11  C   UNL     1       6.395  -4.129   0.000  0.00  0.00    +0.028 C 
ATOM     12  C   UNL     1       6.845  -3.437   0.000  0.00  0.00    +0.065 C 
ATOM     13  C   UNL     1       6.153  -2.987   0.000  0.00  0.00    +0.028 C 
BRANCH  12  14
ATOM     14  C   UNL     1       7.537  -3.883   0.000  0.00  0.00    +0.185 C 
ATOM     15  O   UNL     1       7.495  -4.708   0.000  0.00  0.00    -0.220 OA
ENDBRANCH  12  14
BRANCH  12  16
ATOM     16  C   UNL     1       7.295  -2.745   0.000  0.00  0.00    +0.185 C 
ATOM     17  O   UNL     1       6.920  -2.008   0.000  0.00  0.00    -0.220 OA
ENDBRANCH  12  16
ENDBRANCH   1  10
BRANCH   5  18
ATOM     18  N   UNL     1       2.141  -3.712   0.000  0.00  0.00    -0.288 N 
ATOM     19  C   UNL     1       2.141  -4.537   0.000  0.00  0.00    +0.114 C 
BRANCH  18  20
ATOM     20  C   UNL     1       1.425  -3.300   0.000  0.00  0.00    +0.116 C 
BRANCH  20  21
ATOM     21  C   UNL     1       0.712  -3.712   0.000  0.00  0.00    +0.137 C 
BRANCH  21  22
ATOM     22  N   UNL     1       0.000  -3.300   0.000  0.00  0.00    -0.204 NA
ATOM     23  C   UNL     1      -0.717  -3.712   0.000  0.00  0.00    +0.241 C 
ATOM     24  O   UNL     1      -0.717  -4.537   0.000  0.00  0.00    -0.273 OA
BRANCH  23  25
ATOM     25  C   UNL     1      -1.429  -3.300   0.000  0.00  0.00    +0.078 C 
ATOM     26  C   UNL     1      -1.429  -2.475   0.000  0.00  0.00    +0.010 C 
ATOM     27  C   UNL     1      -2.146  -3.712   0.000  0.00  0.00    +0.010 C 
ENDBRANCH  23  25
ENDBRANCH  21  22
ENDBRANCH  20  21
ENDBRANCH  18  20
ENDBRANCH   5  18
TORSDOF 8
