REMARK  Name = 
REMARK  5 active torsions:
REMARK  status: ('A' for Active; 'I' for Inactive)
REMARK    1  A    between atoms: C_2  and  N_6
REMARK    2  A    between atoms: N_3  and  C_10
REMARK    3  A    between atoms: C_10  and  C_11
REMARK    4  A    between atoms: C_11  and  C_15
REMARK    5  A    between atoms: C_14  and  C_21
REMARK                            x       y       z     vdW  Elec       q    Type
REMARK                         _______ _______ _______ _____ _____    ______ ____
ROOT
ATOM      1  C   UNL     1       2.563   0.825   0.000  0.00  0.00    +0.149 A 
ATOM      2  N   UNL     1       1.780   1.084   0.000  0.00  0.00    -0.219 NA
ATOM      3  C   UNL     1       1.292   0.413   0.000  0.00  0.00    +0.180 A 
ATOM      4  N   UNL     1       1.780  -0.254   0.000  0.00  0.00    -0.292 N 
ATOM      5  C   UNL     1       2.563   0.000   0.000  0.00  0.00    +0.167 A 
ATOM      6  N   UNL     1       3.276  -0.413   0.000  0.00  0.00    -0.205 NA
ATOM      7  C   UNL     1       3.993   0.000   0.000  0.00  0.00    +0.201 A 
ATOM      8  N   UNL     1       3.993   0.825   0.000  0.00  0.00    -0.207 NA
ATOM      9  C   UNL     1       3.276   1.238   0.000  0.00  0.00    +0.154 A 
ENDROOT
BRANCH   9  10
ATOM     10  N   UNL     1       3.276   2.063   0.000  0.00  0.00    -0.295 N 
ATOM     11  C   UNL     1       2.609   2.551   0.000  0.00  0.00    +0.074 C 
ATOM     12  C   UNL     1       2.863   3.334   0.000  0.00  0.00    +0.021 C 
ATOM     13  C   UNL     1       3.688   3.334   0.000  0.00  0.00    +0.021 C 
ATOM     14  C   UNL     1       3.947   2.551   0.000  0.00  0.00    +0.074 C 
ATOM     15  C   UNL     1       4.730   2.296   0.000  0.00  0.00    +0.021 C 
BRANCH  11  16
ATOM     16  C   UNL     1       1.825   2.296   0.000  0.00  0.00    +0.020 C 
ATOM     17  C   UNL     1       1.213   2.846   0.000  0.00  0.00    +0.002 C 
ENDBRANCH  11  16
ENDBRANCH   9  10
BRANCH   4  18
ATOM     18  C   UNL     1       1.521  -1.038   0.000  0.00  0.00    +0.144 C 
BRANCH  18  19
ATOM     19  C   UNL     1       2.075  -1.650   0.000  0.00  0.00    +0.201 C 
ATOM     20  O   UNL     1       2.884  -1.480   0.000  0.00  0.00    -0.218 OA
BRANCH  19  21
ATOM     21  C   UNL     1       1.821  -2.434   0.000  0.00  0.00    +0.147 C 
ATOM     22  C   UNL     1       2.305  -3.105   0.000  0.00  0.00    +0.035 C 
ATOM     23  C   UNL     1       1.821  -3.772   0.000  0.00  0.00    +0.035 C 
ATOM     24  C   UNL     1       1.034  -3.518   0.000  0.00  0.00    +0.142 C 
ATOM     25  O   UNL     1       1.034  -2.692   0.000  0.00  0.00    -0.354 OA
ENDBRANCH  19  21
ENDBRANCH  18  19
ENDBRANCH   4  18
TORSDOF 5
