REMARK  Name = 
REMARK  5 active torsions:
REMARK  status: ('A' for Active; 'I' for Inactive)
REMARK    1  A    between atoms: O_2  and  C_3
REMARK    2  A    between atoms: C_8  and  N_9
REMARK    3  A    between atoms: N_12  and  C_13
REMARK    4  A    between atoms: C_13  and  C_14
REMARK    5  A    between atoms: C_14  and  C_20
REMARK                            x       y       z     vdW  Elec       q    Type
REMARK                         _______ _______ _______ _____ _____    ______ ____
ROOT
ATOM      1  N   UNL     1       2.587  -0.708   0.000  0.00  0.00    -0.156 NA
ATOM      2  C   UNL     1       2.587  -1.533   0.000  0.00  0.00    +0.344 C 
ATOM      3  N   UNL     1       3.302  -1.946   0.000  0.00  0.00    -0.186 NA
ATOM      4  O   UNL     1       1.873  -1.946   0.000  0.00  0.00    -0.249 OA
ENDROOT
BRANCH   1   6
ATOM      5  C   UNL     1       1.159  -0.708   0.000  0.00  0.00    +0.241 A 
ATOM      6  C   UNL     1       1.873  -0.296   0.000  0.00  0.00    +0.128 A 
ATOM      7  C   UNL     1       1.873   0.529   0.000  0.00  0.00    +0.023 A 
ATOM      8  C   UNL     1       1.159   0.942   0.000  0.00  0.00    +0.022 A 
ATOM      9  C   UNL     1       0.444   0.529   0.000  0.00  0.00    +0.102 A 
ATOM     10  N   UNL     1       0.444  -0.296   0.000  0.00  0.00    -0.209 NA
BRANCH   5  12
ATOM     11  C   UNL     1       0.444  -1.946   0.000  0.00  0.00    +0.254 C 
ATOM     12  O   UNL     1       1.159  -1.533   0.000  0.00  0.00    -0.455 OA
ENDBRANCH   5  12
ENDBRANCH   1   6
BRANCH   3  13
ATOM     13  C   UNL     1       4.016  -1.533   0.000  0.00  0.00    +0.126 C 
BRANCH  13  14
ATOM     14  C   UNL     1       4.731  -1.946   0.000  0.00  0.00    +0.097 C 
ATOM     15  C   UNL     1       4.201  -2.578   0.000  0.00  0.00    +0.043 C 
ATOM     16  C   UNL     1       4.483  -3.353   0.000  0.00  0.00    +0.143 C 
ATOM     17  O   UNL     1       5.295  -3.496   0.000  0.00  0.00    -0.354 OA
ATOM     18  C   UNL     1       5.826  -2.864   0.000  0.00  0.00    +0.143 C 
ATOM     19  C   UNL     1       5.543  -2.089   0.000  0.00  0.00    +0.043 C 
BRANCH  14  20
ATOM     20  C   UNL     1       5.013  -1.171   0.000  0.00  0.00    +0.262 C 
ATOM     21  N   UNL     1       4.483  -0.538   0.000  0.00  0.00    -0.088 NA
ATOM     22  O   UNL     1       5.826  -1.027   0.000  0.00  0.00    -0.272 OA
ENDBRANCH  14  20
ENDBRANCH  13  14
ENDBRANCH   3  13
TORSDOF 5
