REMARK  Name = 
REMARK  5 active torsions:
REMARK  status: ('A' for Active; 'I' for Inactive)
REMARK    1  A    between atoms: CA_2  and  N_3
REMARK    2  A    between atoms: CA_2  and  C_16
REMARK    3  A    between atoms: C_4  and  C_6
REMARK    4  A    between atoms: C_6  and  C_7
REMARK    5  A    between atoms: C_10  and  C_12
REMARK                            x       y       z     vdW  Elec       q    Type
REMARK                         _______ _______ _______ _____ _____    ______ ____
ROOT
ATOM      1  C   UNK A   0       1.040  -1.040   0.000  0.00  0.00    +0.133 C 
ENDROOT
BRANCH   1   2
ATOM      2  C   UNK A   0       0.325  -0.627   0.000  0.00  0.00    +0.075 A 
ATOM      3  N   UNK A   0       0.239   0.193   0.000  0.00  0.00    -0.247 NA
ATOM      4  C   UNK A   0      -0.568   0.365   0.000  0.00  0.00    +0.087 A 
ATOM      5  S   UNK A   0      -0.981  -0.349   0.000  0.00  0.00    -0.071 S 
ATOM      6  C   UNK A   0      -0.429  -0.963   0.000  0.00  0.00    +0.052 A 
BRANCH   4   7
ATOM      7  C   UNK A   0      -0.904   1.119   0.000  0.00  0.00    +0.041 C 
ATOM      8  C   UNK A   0      -0.150   1.454   0.000  0.00  0.00    +0.006 C 
ATOM      9  C   UNK A   0      -1.657   0.783   0.000  0.00  0.00    +0.006 C 
ATOM     10  C   UNK A   0      -1.239   1.872   0.000  0.00  0.00    +0.006 C 
ENDBRANCH   4   7
ENDBRANCH   1   2
BRANCH   1  12
ATOM     11  N   ALA A   1       2.469  -1.040   0.000  0.00  0.00    -0.195 NA
ATOM     12  C   UNK A   0       1.754  -0.627   0.000  0.00  0.00    +0.248 C 
ATOM     13  O   UNK A   0       1.754   0.198   0.000  0.00  0.00    -0.273 OA
BRANCH  11  15
ATOM     14  CB  ALA A   1       3.183   0.198   0.000  0.00  0.00    +0.036 C 
ATOM     15  CA  ALA A   1       3.183  -0.627   0.000  0.00  0.00    +0.198 C 
BRANCH  15  16
ATOM     16  C   ALA A   1       3.897  -1.040   0.000  0.00  0.00    +0.384 C 
ATOM     17  OXT ALA A   1       3.897  -1.865   0.000  0.00  0.00    -0.244 OA
ATOM     18  O   ALA A   1       4.612  -0.627   0.000  0.00  0.00    -0.244 OA
ENDBRANCH  15  16
ENDBRANCH  11  15
ENDBRANCH   1  12
TORSDOF 5
