REMARK  Name = 
REMARK  5 active torsions:
REMARK  status: ('A' for Active; 'I' for Inactive)
REMARK    1  A    between atoms: C_2  and  O_3
REMARK    2  A    between atoms: O_3  and  C_4
REMARK    3  A    between atoms: C_9  and  N_10
REMARK    4  A    between atoms: N_13  and  C_14
REMARK    5  A    between atoms: N_18  and  S_20
REMARK                            x       y       z     vdW  Elec       q    Type
REMARK                         _______ _______ _______ _____ _____    ______ ____
ROOT
ATOM      1  N   UNL     1      -2.858  -2.475   0.000  0.00  0.00    -0.156 NA
ATOM      2  C   UNL     1      -3.572  -2.888   0.000  0.00  0.00    +0.344 C 
ATOM      3  N   UNL     1      -4.287  -2.475   0.000  0.00  0.00    -0.187 NA
ATOM      4  O   UNL     1      -3.572  -3.712   0.000  0.00  0.00    -0.249 OA
ENDROOT
BRANCH   1   6
ATOM      5  C   UNL     1      -1.429  -2.475   0.000  0.00  0.00    +0.241 A 
ATOM      6  C   UNL     1      -2.143  -2.888   0.000  0.00  0.00    +0.128 A 
ATOM      7  C   UNL     1      -2.143  -3.712   0.000  0.00  0.00    +0.023 A 
ATOM      8  C   UNL     1      -1.429  -4.125   0.000  0.00  0.00    +0.022 A 
ATOM      9  C   UNL     1      -0.715  -3.712   0.000  0.00  0.00    +0.102 A 
ATOM     10  N   UNL     1      -0.715  -2.888   0.000  0.00  0.00    -0.209 NA
BRANCH   5  11
ATOM     11  O   UNL     1      -1.429  -1.650   0.000  0.00  0.00    -0.459 OA
BRANCH  11  13
ATOM     12  C   UNL     1      -0.715  -0.412   0.000  0.00  0.00    +0.051 C 
ATOM     13  C   UNL     1      -0.715  -1.238   0.000  0.00  0.00    +0.207 C 
ENDBRANCH  11  13
ENDBRANCH   5  11
ENDBRANCH   1   6
BRANCH   3  14
ATOM     14  C   UNL     1      -5.001  -2.888   0.000  0.00  0.00    +0.115 C 
ATOM     15  C   UNL     1      -5.716  -2.475   0.000  0.00  0.00    +0.117 C 
ATOM     16  N   UNL     1      -6.430  -2.888   0.000  0.00  0.00    -0.158 NA
ATOM     17  C   UNL     1      -6.430  -3.712   0.000  0.00  0.00    +0.096 C 
ATOM     18  C   UNL     1      -5.716  -4.125   0.000  0.00  0.00    +0.021 C 
ATOM     19  C   UNL     1      -5.001  -3.712   0.000  0.00  0.00    +0.025 C 
BRANCH  16  20
ATOM     20  S   UNL     1      -7.145  -2.475   0.000  0.00  0.00    +0.046 S 
ATOM     21  C   UNL     1      -7.557  -3.189   0.000  0.00  0.00    +0.196 C 
ATOM     22  O   UNL     1      -6.732  -1.760   0.000  0.00  0.00    -0.157 OA
ATOM     23  O   UNL     1      -7.859  -2.062   0.000  0.00  0.00    -0.157 OA
ENDBRANCH  16  20
ENDBRANCH   3  14
TORSDOF 5
