REMARK  Name = 
REMARK  7 active torsions:
REMARK  status: ('A' for Active; 'I' for Inactive)
REMARK    1  A    between atoms: O_2  and  C_3
REMARK    2  A    between atoms: C_3  and  C_4
REMARK    3  A    between atoms: C_4  and  N_5
REMARK    4  A    between atoms: C_7  and  C_12
REMARK    5  A    between atoms: N_14  and  C_15
REMARK    6  A    between atoms: N_14  and  C_19
REMARK    7  A    between atoms: C_15  and  C_16
REMARK                            x       y       z     vdW  Elec       q    Type
REMARK                         _______ _______ _______ _____ _____    ______ ____
ROOT
ATOM      1  C   UNL     1      -1.429   2.475   0.000  0.00  0.00    +0.269 C 
ATOM      2  N   UNL     1      -0.715   2.062   0.000  0.00  0.00    -0.268 N 
ATOM      3  O   UNL     1      -1.429   3.300   0.000  0.00  0.00    -0.268 OA
ENDROOT
BRANCH   1   9
ATOM      4  N   UNL     1      -3.572   2.062   0.000  0.00  0.00    -0.214 N 
ATOM      5  C   UNL     1      -3.572   1.238   0.000  0.00  0.00    +0.277 A 
ATOM      6  O   UNL     1      -4.287   0.825   0.000  0.00  0.00    -0.266 OA
ATOM      7  C   UNL     1      -2.858   0.825   0.000  0.00  0.00    +0.064 A 
ATOM      8  C   UNL     1      -2.143   1.238   0.000  0.00  0.00    +0.030 A 
ATOM      9  C   UNL     1      -2.143   2.062   0.000  0.00  0.00    +0.154 A 
ATOM     10  N   UNL     1      -2.858   2.475   0.000  0.00  0.00    -0.162 NA
BRANCH   4  11
ATOM     11  C   UNL     1      -4.287   2.475   0.000  0.00  0.00    +0.163 C 
BRANCH  11  12
ATOM     12  C   UNL     1      -5.001   2.062   0.000  0.00  0.00    +0.169 C 
BRANCH  12  14
ATOM     13  C   UNL     1      -6.430   2.062   0.000  0.00  0.00    +0.174 C 
ATOM     14  O   UNL     1      -5.716   2.475   0.000  0.00  0.00    -0.349 OA
ENDBRANCH  12  14
ENDBRANCH  11  12
ENDBRANCH   4  11
ENDBRANCH   1   9
BRANCH   2  15
ATOM     15  C   UNL     1      -0.715   1.238   0.000  0.00  0.00    +0.076 C 
ATOM     16  C   UNL     1      -1.382   0.753   0.000  0.00  0.00    +0.020 C 
ATOM     17  C   UNL     1      -1.127  -0.032   0.000  0.00  0.00    +0.002 C 
ATOM     18  C   UNL     1      -0.302  -0.032   0.000  0.00  0.00    +0.002 C 
ATOM     19  C   UNL     1      -0.047   0.753   0.000  0.00  0.00    +0.020 C 
ENDBRANCH   2  15
BRANCH   2  20
ATOM     20  C   UNL     1       0.000   2.475   0.000  0.00  0.00    +0.183 C 
BRANCH  20  21
ATOM     21  C   UNL     1       0.715   2.062   0.000  0.00  0.00    +0.281 C 
ATOM     22  N   UNL     1       0.715   1.238   0.000  0.00  0.00    -0.086 NA
ATOM     23  O   UNL     1       1.429   2.475   0.000  0.00  0.00    -0.270 OA
ENDBRANCH  20  21
ENDBRANCH   2  20
TORSDOF 7
