REMARK  Name = 
REMARK  6 active torsions:
REMARK  status: ('A' for Active; 'I' for Inactive)
REMARK    1  A    between atoms: N_2  and  C_4
REMARK    2  A    between atoms: N_9  and  C_10
REMARK    3  A    between atoms: C_10  and  C_11
REMARK    4  A    between atoms: C_11  and  N_12
REMARK    5  A    between atoms: N_12  and  C_13
REMARK    6  A    between atoms: C_18  and  C_19
REMARK                            x       y       z     vdW  Elec       q    Type
REMARK                         _______ _______ _______ _____ _____    ______ ____
ROOT
ATOM      1  C   UNL     1       0.715  -3.712   0.000  0.00  0.00    +0.113 C 
ENDROOT
BRANCH   1   2
ATOM      2  N   UNL     1       0.000  -4.125   0.000  0.00  0.00    -0.217 NA
BRANCH   2   3
ATOM      3  C   UNL     1      -0.715  -3.712   0.000  0.00  0.00    +0.081 C 
ATOM      4  C   UNL     1      -0.715  -2.888   0.000  0.00  0.00    +0.111 C 
ATOM      5  C   UNL     1      -1.429  -2.475   0.000  0.00  0.00    +0.010 C 
ATOM      6  C   UNL     1      -2.143  -2.888   0.000  0.00  0.00    +0.000 C 
ATOM      7  C   UNL     1      -2.143  -3.712   0.000  0.00  0.00    +0.001 C 
ATOM      8  C   UNL     1      -1.429  -4.125   0.000  0.00  0.00    +0.018 C 
BRANCH   4   9
ATOM      9  C   UNL     1       0.000  -2.475   0.000  0.00  0.00    +0.399 C 
ATOM     10  F   UNL     1      -0.412  -1.760   0.000  0.00  0.00    -0.170 F 
ATOM     11  F   UNL     1       0.412  -3.189   0.000  0.00  0.00    -0.170 F 
ATOM     12  F   UNL     1       0.715  -2.062   0.000  0.00  0.00    -0.170 F 
ENDBRANCH   4   9
ENDBRANCH   2   3
ENDBRANCH   1   2
BRANCH   1  13
ATOM     13  C   UNL     1       1.429  -4.125   0.000  0.00  0.00    +0.128 C 
BRANCH  13  16
ATOM     14  C   UNL     1       2.858  -2.475   0.000  0.00  0.00    +0.307 A 
ATOM     15  C   UNL     1       2.143  -2.888   0.000  0.00  0.00    +0.155 A 
ATOM     16  N   UNL     1       2.143  -3.712   0.000  0.00  0.00    -0.288 N 
ATOM     17  C   UNL     1       2.858  -4.125   0.000  0.00  0.00    +0.261 A 
ATOM     18  O   UNL     1       2.858  -4.950   0.000  0.00  0.00    -0.267 OA
ATOM     19  C   UNL     1       3.572  -3.712   0.000  0.00  0.00    +0.067 A 
ATOM     20  C   UNL     1       3.572  -2.888   0.000  0.00  0.00    +0.082 A 
BRANCH  14  22
ATOM     21  O   UNL     1       3.572  -1.238   0.000  0.00  0.00    -0.576 OA
ATOM     22  N   UNL     1       2.858  -1.650   0.000  0.00  0.00    +0.082 N 
ATOM     23  O   UNL     1       2.143  -1.238   0.000  0.00  0.00    +0.042 OA
ENDBRANCH  14  22
ENDBRANCH  13  16
ENDBRANCH   1  13
TORSDOF 6
