REMARK  Name = 
REMARK  6 active torsions:
REMARK  status: ('A' for Active; 'I' for Inactive)
REMARK    1  A    between atoms: C_2  and  O_3
REMARK    2  A    between atoms: O_3  and  C_4
REMARK    3  A    between atoms: C_6  and  N_7
REMARK    4  A    between atoms: N_7  and  C_8
REMARK    5  A    between atoms: C_8  and  C_9
REMARK    6  A    between atoms: C_9  and  C_12
REMARK                            x       y       z     vdW  Elec       q    Type
REMARK                         _______ _______ _______ _____ _____    ______ ____
ROOT
ATOM      1  N   UNL     1       0.412   1.821   0.000  0.00  0.00    -0.216 NA
ENDROOT
BRANCH   1   7
ATOM      2  C   UNL     1       0.412  -0.171   0.000  0.00  0.00    +0.118 C 
ATOM      3  C   UNL     1       0.996   0.412   0.000  0.00  0.00    +0.040 C 
ATOM      4  C   UNL     1       1.579  -0.171   0.000  0.00  0.00    +0.004 C 
ATOM      5  C   UNL     1       2.163   0.412   0.000  0.00  0.00    +0.000 C 
ATOM      6  C   UNL     1       1.579   0.996   0.000  0.00  0.00    +0.004 C 
ATOM      7  C   UNL     1       0.412   0.996   0.000  0.00  0.00    +0.077 C 
ATOM      8  C   UNL     1      -0.171   0.412   0.000  0.00  0.00    +0.047 C 
BRANCH   2   9
ATOM      9  O   UNL     1       0.412  -0.996   0.000  0.00  0.00    -0.356 OA
BRANCH   9  11
ATOM     10  C   UNL     1       1.127  -2.233   0.000  0.00  0.00    +0.035 C 
ATOM     11  C   UNL     1       1.127  -1.408   0.000  0.00  0.00    +0.142 C 
ENDBRANCH   9  11
ENDBRANCH   2   9
ENDBRANCH   1   7
BRANCH   1  12
ATOM     12  C   UNL     1       1.127   2.233   0.000  0.00  0.00    +0.123 C 
BRANCH  12  13
ATOM     13  C   UNL     1       1.127   3.058   0.000  0.00  0.00    +0.164 C 
ATOM     14  O   UNL     1       0.302   3.058   0.000  0.00  0.00    -0.220 OA
ATOM     15  C   UNL     1       1.952   3.058   0.000  0.00  0.00    +0.039 C 
BRANCH  13  16
ATOM     16  C   UNL     1       1.127   3.883   0.000  0.00  0.00    +0.046 A 
ATOM     17  C   UNL     1       1.794   4.368   0.000  0.00  0.00    +0.095 A 
ATOM     18  N   UNL     1       1.540   5.153   0.000  0.00  0.00    -0.248 N 
ATOM     19  C   UNL     1       2.024   5.820   0.000  0.00  0.00    +0.154 C 
ATOM     20  N   UNL     1       0.715   5.153   0.000  0.00  0.00    -0.168 NA
ATOM     21  C   UNL     1       0.460   4.368   0.000  0.00  0.00    +0.120 A 
ENDBRANCH  13  16
ENDBRANCH  12  13
ENDBRANCH   1  12
TORSDOF 6
