REMARK  Name = 
REMARK  5 active torsions:
REMARK  status: ('A' for Active; 'I' for Inactive)
REMARK    1  A    between atoms: C_2  and  C_3
REMARK    2  A    between atoms: C_3  and  C_4
REMARK    3  A    between atoms: C_4  and  C_5
REMARK    4  A    between atoms: C_5  and  N_6
REMARK    5  A    between atoms: N_9  and  C_10
REMARK                            x       y       z     vdW  Elec       q    Type
REMARK                         _______ _______ _______ _____ _____    ______ ____
ROOT
ATOM      1  N   UNL     1       1.429  -2.475   0.000  0.00  0.00    -0.187 NA
ATOM      2  C   UNL     1       2.143  -2.888   0.000  0.00  0.00    +0.344 C 
ATOM      3  N   UNL     1       2.858  -2.475   0.000  0.00  0.00    -0.159 NA
ATOM      4  O   UNL     1       2.143  -3.712   0.000  0.00  0.00    -0.249 OA
ENDROOT
BRANCH   3   5
ATOM      5  C   UNL     1       3.572  -2.888   0.000  0.00  0.00    +0.094 A 
ATOM      6  C   UNL     1       3.572  -3.712   0.000  0.00  0.00    +0.115 A 
ATOM      7  N   UNL     1       4.287  -4.125   0.000  0.00  0.00    -0.241 NA
ATOM      8  C   UNL     1       5.001  -3.712   0.000  0.00  0.00    +0.099 A 
ATOM      9  C   UNL     1       5.001  -2.888   0.000  0.00  0.00    +0.022 A 
ATOM     10  C   UNL     1       4.287  -2.475   0.000  0.00  0.00    +0.020 A 
ENDBRANCH   3   5
BRANCH   1  11
ATOM     11  C   UNL     1       1.429  -1.650   0.000  0.00  0.00    +0.117 C 
BRANCH  11  12
ATOM     12  C   UNL     1       2.143  -1.238   0.000  0.00  0.00    +0.023 C 
ATOM     13  C   UNL     1       2.479  -1.991   0.000  0.00  0.00    +0.002 C 
ATOM     14  C   UNL     1       3.300  -1.905   0.000  0.00  0.00    +0.000 C 
ATOM     15  C   UNL     1       3.471  -1.098   0.000  0.00  0.00    +0.000 C 
ATOM     16  C   UNL     1       2.756  -0.685   0.000  0.00  0.00    +0.002 C 
BRANCH  12  17
ATOM     17  C   UNL     1       1.659  -0.570   0.000  0.00  0.00    +0.037 C 
BRANCH  17  19
ATOM     18  O   UNL     1       0.353   0.011   0.000  0.00  0.00    -0.220 OA
ATOM     19  C   UNL     1       0.838  -0.656   0.000  0.00  0.00    +0.182 C 
ENDBRANCH  17  19
ENDBRANCH  12  17
ENDBRANCH  11  12
ENDBRANCH   1  11
TORSDOF 5
