REMARK  Name = 
REMARK  4 active torsions:
REMARK  status: ('A' for Active; 'I' for Inactive)
REMARK    1  A    between atoms: C_2  and  C_4
REMARK    2  A    between atoms: C_4  and  N_5
REMARK    3  A    between atoms: C_7  and  N_8
REMARK    4  A    between atoms: N_11  and  C_12
REMARK                            x       y       z     vdW  Elec       q    Type
REMARK                         _______ _______ _______ _____ _____    ______ ____
ROOT
ATOM      1  N   UNL     1       3.649  -4.474   0.000  0.00  0.00    -0.158 NA
ATOM      2  C   UNL     1       3.313  -5.227   0.000  0.00  0.00    +0.344 C 
ATOM      3  N   UNL     1       3.798  -5.895   0.000  0.00  0.00    -0.189 NA
ATOM      4  O   UNL     1       2.493  -5.314   0.000  0.00  0.00    -0.249 OA
ENDROOT
BRANCH   3   5
ATOM      5  C   UNL     1       3.462  -6.648   0.000  0.00  0.00    +0.097 C 
ATOM      6  C   UNL     1       2.642  -6.735   0.000  0.00  0.00    +0.024 C 
ATOM      7  C   UNL     1       2.306  -7.488   0.000  0.00  0.00    +0.035 C 
ATOM      8  C   UNL     1       2.791  -8.156   0.000  0.00  0.00    +0.152 C 
ATOM      9  O   UNL     1       2.456  -8.909   0.000  0.00  0.00    -0.223 OA
ATOM     10  C   UNL     1       3.612  -8.069   0.000  0.00  0.00    +0.035 C 
ATOM     11  C   UNL     1       3.947  -7.316   0.000  0.00  0.00    +0.024 C 
ENDBRANCH   3   5
BRANCH   1  15
ATOM     12  N   UNL     1       2.751  -2.537   0.000  0.00  0.00    -0.239 N 
ATOM     13  N   UNL     1       2.084  -3.022   0.000  0.00  0.00    -0.166 NA
ATOM     14  C   UNL     1       2.339  -3.806   0.000  0.00  0.00    +0.138 A 
ATOM     15  C   UNL     1       3.164  -3.806   0.000  0.00  0.00    +0.115 A 
ATOM     16  C   UNL     1       3.419  -3.022   0.000  0.00  0.00    +0.114 A 
BRANCH  12  17
ATOM     17  C   UNL     1       2.751  -1.712   0.000  0.00  0.00    +0.215 C 
BRANCH  17  19
ATOM     18  N   UNL     1       2.037  -0.474   0.000  0.00  0.00    -0.086 NA
ATOM     19  C   UNL     1       2.037  -1.299   0.000  0.00  0.00    +0.286 C 
ATOM     20  O   UNL     1       1.322  -1.712   0.000  0.00  0.00    -0.269 OA
ENDBRANCH  17  19
ENDBRANCH  12  17
ENDBRANCH   1  15
TORSDOF 4
