REMARK  Name = 
REMARK  5 active torsions:
REMARK  status: ('A' for Active; 'I' for Inactive)
REMARK    1  A    between atoms: C_7  and  N_9
REMARK    2  A    between atoms: N_9  and  C_10
REMARK    3  A    between atoms: C_10  and  C_11
REMARK    4  A    between atoms: C_11  and  N_12
REMARK    5  A    between atoms: C_11  and  C_15
REMARK                            x       y       z     vdW  Elec       q    Type
REMARK                         _______ _______ _______ _____ _____    ______ ____
ROOT
ATOM      1  C   UNL     1       2.143   2.062   0.000  0.00  0.00    +0.109 C 
ENDROOT
BRANCH   1   2
ATOM      2  N   UNL     1       2.143   1.238   0.000  0.00  0.00    -0.218 NA
BRANCH   2   6
ATOM      3  C   UNL     1       0.715  -1.238   0.000  0.00  0.00    +0.000 C 
ATOM      4  C   UNL     1       0.715  -0.412   0.000  0.00  0.00    +0.001 C 
ATOM      5  C   UNL     1       1.429   0.000   0.000  0.00  0.00    +0.017 C 
ATOM      6  C   UNL     1       1.429   0.825   0.000  0.00  0.00    +0.073 C 
ATOM      7  C   UNL     1       0.715   1.238   0.000  0.00  0.00    +0.017 C 
ATOM      8  C   UNL     1       0.000   0.825   0.000  0.00  0.00    +0.001 C 
ATOM      9  C   UNL     1      -0.715   1.238   0.000  0.00  0.00    +0.000 C 
ATOM     10  C   UNL     1       0.000   0.000   0.000  0.00  0.00    +0.000 C 
ENDBRANCH   2   6
ENDBRANCH   1   2
BRANCH   1  11
ATOM     11  C   UNL     1       2.858   2.475   0.000  0.00  0.00    +0.101 C 
BRANCH  11  12
ATOM     12  C   UNL     1       2.858   3.300   0.000  0.00  0.00    +0.033 A 
ATOM     13  C   UNL     1       3.525   3.785   0.000  0.00  0.00    +0.094 A 
ATOM     14  N   UNL     1       3.270   4.569   0.000  0.00  0.00    -0.248 N 
ATOM     15  C   UNL     1       3.755   5.237   0.000  0.00  0.00    +0.154 C 
ATOM     16  N   UNL     1       2.445   4.569   0.000  0.00  0.00    -0.168 NA
ATOM     17  C   UNL     1       2.190   3.785   0.000  0.00  0.00    +0.119 A 
ENDBRANCH  11  12
BRANCH  11  18
ATOM     18  N   UNL     1       3.572   2.062   0.000  0.00  0.00    -0.267 NA
ATOM     19  C   UNL     1       3.572   1.238   0.000  0.00  0.00    +0.090 C 
ATOM     20  C   UNL     1       4.287   2.475   0.000  0.00  0.00    +0.090 C 
ENDBRANCH  11  18
ENDBRANCH   1  11
TORSDOF 5
