REMARK  Name = 
REMARK  2 active torsions:
REMARK  status: ('A' for Active; 'I' for Inactive)
REMARK    1  A    between atoms: C_8  and  C_9
REMARK    2  A    between atoms: C_9  and  C_10
REMARK                            x       y       z     vdW  Elec       q    Type
REMARK                         _______ _______ _______ _____ _____    ______ ____
ROOT
ATOM      1 CL   UNL     1       0.000   0.000   0.000  0.00  0.00    +0.000 Cl
ENDROOT
TORSDOF 0
REMARK  Name = 
REMARK  2 active torsions:
REMARK  status: ('A' for Active; 'I' for Inactive)
REMARK    1  A    between atoms: C_8  and  C_9
REMARK    2  A    between atoms: C_9  and  C_10
REMARK                            x       y       z     vdW  Elec       q    Type
REMARK                         _______ _______ _______ _____ _____    ______ ____
ROOT
ATOM      1  N   UNL     1       3.911   0.900   0.000  0.00  0.00    -0.108 NA
ATOM      2  C   UNL     1       3.911   0.075   0.000  0.00  0.00    +0.166 A 
ATOM      3  C   UNL     1       3.197  -0.338   0.000  0.00  0.00    +0.024 A 
ATOM      4  C   UNL     1       3.197  -1.163   0.000  0.00  0.00    +0.001 A 
ATOM      5  C   UNL     1       3.911  -1.575   0.000  0.00  0.00    +0.020 A 
ATOM      6  C   UNL     1       4.626  -1.163   0.000  0.00  0.00    +0.100 A 
ATOM      7  N   UNL     1       4.626  -0.338   0.000  0.00  0.00    -0.226 NA
ENDROOT
BRANCH   3   8
ATOM      8  C   UNL     1       2.482   0.075   0.000  0.00  0.00    +0.143 C 
BRANCH   8   9
ATOM      9  C   UNL     1       2.482   0.900   0.000  0.00  0.00    +0.369 C 
ATOM     10  O   UNL     1       3.197   1.312   0.000  0.00  0.00    -0.245 OA
ATOM     11  O   UNL     1       1.768   1.312   0.000  0.00  0.00    -0.245 OA
ENDBRANCH   8   9
ENDBRANCH   3   8
TORSDOF 2
