REMARK  Name = 
REMARK  6 active torsions:
REMARK  status: ('A' for Active; 'I' for Inactive)
REMARK    1  A    between atoms: C_2  and  N_3
REMARK    2  A    between atoms: C_2  and  C_17
REMARK    3  A    between atoms: C_7  and  C_8
REMARK    4  A    between atoms: C_8  and  N_9
REMARK    5  A    between atoms: N_19  and  C_20
REMARK    6  A    between atoms: C_20  and  C_21
REMARK                            x       y       z     vdW  Elec       q    Type
REMARK                         _______ _______ _______ _____ _____    ______ ____
ROOT
ATOM      1  N   UNL     1       2.143  -3.712   0.000  0.00  0.00    -0.262 NA
ATOM      2  C   UNL     1       2.143  -2.888   0.000  0.00  0.00    +0.104 C 
ATOM      3  C   UNL     1       1.429  -2.475   0.000  0.00  0.00    +0.153 C 
ATOM      4  O   UNL     1       0.715  -2.888   0.000  0.00  0.00    -0.352 OA
ATOM      5  C   UNL     1       0.715  -3.712   0.000  0.00  0.00    +0.159 C 
ATOM      6  C   UNL     1       1.429  -4.125   0.000  0.00  0.00    +0.105 C 
ENDROOT
BRANCH   1   8
ATOM      7  C   UNL     1       2.858  -4.950   0.000  0.00  0.00    +0.027 C 
ATOM      8  C   UNL     1       2.858  -4.125   0.000  0.00  0.00    +0.137 C 
BRANCH   8   9
ATOM      9  C   UNL     1       3.572  -3.712   0.000  0.00  0.00    +0.256 C 
ATOM     10  N   UNL     1       4.287  -4.125   0.000  0.00  0.00    -0.199 NA
ATOM     11  O   UNL     1       3.572  -2.888   0.000  0.00  0.00    -0.272 OA
BRANCH  10  12
ATOM     12  C   UNL     1       5.001  -3.712   0.000  0.00  0.00    +0.141 C 
BRANCH  12  13
ATOM     13  C   UNL     1       5.716  -4.125   0.000  0.00  0.00    -0.003 C 
ATOM     14  C   UNL     1       6.430  -3.712   0.000  0.00  0.00    -0.003 C 
ENDBRANCH  12  13
ENDBRANCH  10  12
ENDBRANCH   8   9
ENDBRANCH   1   8
BRANCH   3  15
ATOM     15  C   UNL     1       1.429  -1.650   0.000  0.00  0.00    +0.145 C 
BRANCH  15  16
ATOM     16  N   UNL     1       0.715  -1.238   0.000  0.00  0.00    -0.216 NA
ATOM     17  C   UNL     1       0.715  -0.412   0.000  0.00  0.00    +0.169 A 
ATOM     18  N   UNL     1       1.429   0.000   0.000  0.00  0.00    -0.131 NA
ATOM     19  N   UNL     1       1.429   0.825   0.000  0.00  0.00    -0.145 NA
ATOM     20  C   UNL     1       0.715   1.238   0.000  0.00  0.00    +0.122 A 
ATOM     21  C   UNL     1       0.000   0.825   0.000  0.00  0.00    +0.025 A 
ATOM     22  C   UNL     1       0.000   0.000   0.000  0.00  0.00    +0.039 A 
ENDBRANCH  15  16
ENDBRANCH   3  15
TORSDOF 6
