REMARK  Name = 
REMARK  4 active torsions:
REMARK  status: ('A' for Active; 'I' for Inactive)
REMARK    1  A    between atoms: C_6  and  C_7
REMARK    2  A    between atoms: C_7  and  C_8
REMARK    3  A    between atoms: N_10  and  C_11
REMARK    4  A    between atoms: C_11  and  C_12
REMARK                            x       y       z     vdW  Elec       q    Type
REMARK                         _______ _______ _______ _____ _____    ______ ____
ROOT
ATOM      1  C   UNL     1      -3.572   3.712   0.000  0.00  0.00    +0.074 C 
ATOM      2  C   UNL     1      -2.858   3.300   0.000  0.00  0.00    +0.142 A 
ATOM      3  N   UNL     1      -2.858   2.475   0.000  0.00  0.00    -0.193 NA
ATOM      4  C   UNL     1      -2.143   2.062   0.000  0.00  0.00    +0.278 A 
ATOM      5  O   UNL     1      -2.143   1.238   0.000  0.00  0.00    -0.265 OA
ATOM      6  C   UNL     1      -1.429   2.475   0.000  0.00  0.00    +0.058 A 
ATOM      7  C   UNL     1      -1.429   3.300   0.000  0.00  0.00    +0.062 A 
ATOM      8  C   UNL     1      -0.715   3.712   0.000  0.00  0.00    +0.052 C 
ATOM      9  N   UNL     1      -2.143   3.712   0.000  0.00  0.00    -0.235 NA
ENDROOT
BRANCH   6  10
ATOM     10  C   UNL     1      -0.715   2.062   0.000  0.00  0.00    +0.119 C 
BRANCH  10  11
ATOM     11  C   UNL     1       0.000   2.475   0.000  0.00  0.00    +0.246 C 
ATOM     12  N   UNL     1       0.715   2.062   0.000  0.00  0.00    -0.205 NA
ATOM     13  O   UNL     1       0.000   3.300   0.000  0.00  0.00    -0.273 OA
BRANCH  12  14
ATOM     14  C   UNL     1       1.429   2.475   0.000  0.00  0.00    +0.115 C 
BRANCH  14  15
ATOM     15  C   UNL     1       2.143   2.062   0.000  0.00  0.00    +0.022 C 
ATOM     16  C   UNL     1       2.556   1.348   0.000  0.00  0.00    +0.002 C 
ATOM     17  C   UNL     1       2.968   2.062   0.000  0.00  0.00    +0.002 C 
ENDBRANCH  14  15
ENDBRANCH  12  14
ENDBRANCH  10  11
ENDBRANCH   6  10
TORSDOF 4
