REMARK  Name = 
REMARK  4 active torsions:
REMARK  status: ('A' for Active; 'I' for Inactive)
REMARK    1  A    between atoms: O_2  and  C_3
REMARK    2  A    between atoms: C_3  and  C_4
REMARK    3  A    between atoms: C_4  and  N_5
REMARK    4  A    between atoms: N_8  and  C_9
REMARK                            x       y       z     vdW  Elec       q    Type
REMARK                         _______ _______ _______ _____ _____    ______ ____
ROOT
ATOM      1  C   UNL     1       5.716  -6.600   0.000  0.00  0.00    +0.094 A 
ATOM      2  C   UNL     1       5.716  -7.425   0.000  0.00  0.00    +0.117 A 
ATOM      3  N   UNL     1       6.430  -7.838   0.000  0.00  0.00    -0.228 NA
ATOM      4  C   UNL     1       7.145  -7.425   0.000  0.00  0.00    +0.132 A 
ATOM      5  N   UNL     1       7.859  -7.838   0.000  0.00  0.00    -0.288 N 
ATOM      6  C   UNL     1       7.859  -8.662   0.000  0.00  0.00    +0.122 C 
ATOM      7  C   UNL     1       8.574  -9.075   0.000  0.00  0.00    +0.135 C 
ATOM      8  C   UNL     1       8.574  -9.900   0.000  0.00  0.00    +0.034 C 
ATOM      9  O   UNL     1       9.288  -8.662   0.000  0.00  0.00    -0.355 OA
ATOM     10  C   UNL     1       9.288  -7.838   0.000  0.00  0.00    +0.135 C 
ATOM     11  C   UNL     1      10.003  -7.425   0.000  0.00  0.00    +0.034 C 
ATOM     12  C   UNL     1       8.574  -7.425   0.000  0.00  0.00    +0.122 C 
ATOM     13  C   UNL     1       7.145  -6.600   0.000  0.00  0.00    +0.036 A 
ATOM     14  C   UNL     1       6.430  -6.188   0.000  0.00  0.00    +0.021 A 
ENDROOT
BRANCH   1  17
ATOM     15  N   UNL     1       3.572  -6.188   0.000  0.00  0.00    -0.184 NA
ATOM     16  C   UNL     1       4.287  -6.600   0.000  0.00  0.00    +0.344 C 
ATOM     17  N   UNL     1       5.001  -6.188   0.000  0.00  0.00    -0.159 NA
ATOM     18  O   UNL     1       4.287  -7.425   0.000  0.00  0.00    -0.249 OA
BRANCH  15  19
ATOM     19  C   UNL     1       2.858  -6.600   0.000  0.00  0.00    +0.149 C 
BRANCH  19  20
ATOM     20  C   UNL     1       2.143  -6.188   0.000  0.00  0.00    +0.166 C 
BRANCH  20  22
ATOM     21  C   UNL     1       0.715  -6.188   0.000  0.00  0.00    +0.174 C 
ATOM     22  O   UNL     1       1.429  -6.600   0.000  0.00  0.00    -0.349 OA
ENDBRANCH  20  22
ENDBRANCH  19  20
ENDBRANCH  15  19
ENDBRANCH   1  17
TORSDOF 4
