REMARK  Name = 
REMARK  6 active torsions:
REMARK  status: ('A' for Active; 'I' for Inactive)
REMARK    1  A    between atoms: N_1  and  C_10
REMARK    2  A    between atoms: N_2  and  C_8
REMARK    3  A    between atoms: C_7  and  O_11
REMARK    4  A    between atoms: C_10  and  C_20
REMARK    5  A    between atoms: O_11  and  C_21
REMARK    6  A    between atoms: C_20  and  C_21
REMARK                            x       y       z     vdW  Elec       q    Type
REMARK                         _______ _______ _______ _____ _____    ______ ____
ROOT
ATOM      1  N   UNL     1       2.142  -2.062   0.000  0.00  0.00    -0.244 N 
ATOM      2  C   UNL     1       2.142  -1.238   0.000  0.00  0.00    +0.293 A 
ATOM      3  O   UNL     1       1.425  -0.825   0.000  0.00  0.00    -0.264 OA
ATOM      4  C   UNL     1       2.854  -0.825   0.000  0.00  0.00    +0.213 A 
ATOM      5  C   UNL     1       3.571  -1.238   0.000  0.00  0.00    +0.116 A 
ATOM      6  N   UNL     1       3.571  -2.062   0.000  0.00  0.00    -0.255 N 
ATOM      7  F   UNL     1       2.854   0.000   0.000  0.00  0.00    -0.198 F 
ATOM      8  C   UNL     1       2.854  -2.475   0.000  0.00  0.00    +0.336 A 
ATOM      9  O   UNL     1       2.854  -3.300   0.000  0.00  0.00    -0.246 OA
ENDROOT
BRANCH   6  10
ATOM     10  C   UNL     1       4.283  -2.475   0.000  0.00  0.00    +0.208 C 
ATOM     11  C   UNL     1       5.037  -2.138   0.000  0.00  0.00    +0.057 C 
ATOM     12  C   UNL     1       5.592  -2.750   0.000  0.00  0.00    +0.037 C 
ATOM     13  C   UNL     1       5.179  -3.467   0.000  0.00  0.00    +0.144 C 
ATOM     14  O   UNL     1       4.371  -3.292   0.000  0.00  0.00    -0.335 OA
ENDBRANCH   6  10
BRANCH   1  15
ATOM     15  C   UNL     1       1.425  -2.475   0.000  0.00  0.00    +0.150 C 
BRANCH  15  16
ATOM     16  C   UNL     1       0.713  -2.062   0.000  0.00  0.00    +0.218 C 
ATOM     17  O   UNL     1       0.713  -1.238   0.000  0.00  0.00    -0.217 OA
BRANCH  16  18
ATOM     18  C   UNL     1       0.000  -2.475   0.000  0.00  0.00    +0.240 C 
BRANCH  18  19
ATOM     19  O   UNL     1      -0.717  -2.062   0.000  0.00  0.00    -0.473 OA
BRANCH  19  20
ATOM     20  C   UNL     1      -1.429  -2.475   0.000  0.00  0.00    +0.130 A 
ATOM     21  C   UNL     1      -2.146  -2.062   0.000  0.00  0.00    +0.012 A 
ATOM     22  C   UNL     1      -2.146  -1.238   0.000  0.00  0.00    +0.034 C 
ATOM     23  C   UNL     1      -2.858  -2.475   0.000  0.00  0.00    -0.002 A 
ATOM     24  C   UNL     1      -2.858  -3.300   0.000  0.00  0.00    -0.005 A 
ATOM     25  C   UNL     1      -2.146  -3.712   0.000  0.00  0.00    -0.023 A 
ATOM     26  C   UNL     1      -2.146  -4.537   0.000  0.00  0.00    +0.031 C 
ATOM     27  C   UNL     1      -1.429  -3.300   0.000  0.00  0.00    +0.008 A 
ATOM     28  C   UNL     1      -0.717  -3.712   0.000  0.00  0.00    +0.034 C 
ENDBRANCH  19  20
ENDBRANCH  18  19
ENDBRANCH  16  18
ENDBRANCH  15  16
ENDBRANCH   1  15
TORSDOF 6
