REMARK  Name = 
REMARK  3 active torsions:
REMARK  status: ('A' for Active; 'I' for Inactive)
REMARK    1  A    between atoms: O_2  and  C_3
REMARK    2  A    between atoms: C_6  and  N_7
REMARK    3  A    between atoms: N_10  and  C_11
REMARK                            x       y       z     vdW  Elec       q    Type
REMARK                         _______ _______ _______ _____ _____    ______ ____
ROOT
ATOM      1  N   UNL     1       2.092  -5.456   0.000  0.00  0.00    -0.159 NA
ATOM      2  C   UNL     1       1.378  -5.869   0.000  0.00  0.00    +0.344 C 
ATOM      3  N   UNL     1       1.378  -6.694   0.000  0.00  0.00    -0.179 NA
ATOM      4  O   UNL     1       0.663  -5.456   0.000  0.00  0.00    -0.249 OA
ENDROOT
BRANCH   3   5
ATOM      5  C   UNL     1       0.663  -7.106   0.000  0.00  0.00    +0.174 C 
ATOM      6  C   UNL     1      -0.018  -6.642   0.000  0.00  0.00    +0.261 C 
ATOM      7  O   UNL     1       0.104  -5.826   0.000  0.00  0.00    -0.271 OA
ATOM      8  N   UNL     1      -0.807  -6.885   0.000  0.00  0.00    -0.204 NA
ATOM      9  C   UNL     1      -1.108  -7.653   0.000  0.00  0.00    +0.115 C 
ATOM     10  C   UNL     1      -0.696  -8.367   0.000  0.00  0.00    +0.024 C 
ATOM     11  C   UNL     1       0.120  -8.490   0.000  0.00  0.00    +0.004 C 
ATOM     12  C   UNL     1       0.725  -7.929   0.000  0.00  0.00    +0.031 C 
ENDBRANCH   3   5
BRANCH   1  16
ATOM     13  C   UNL     1       2.092  -2.981   0.000  0.00  0.00    +0.225 A 
ATOM     14  N   UNL     1       1.378  -3.394   0.000  0.00  0.00    -0.209 NA
ATOM     15  C   UNL     1       1.378  -4.219   0.000  0.00  0.00    +0.119 A 
ATOM     16  C   UNL     1       2.092  -4.631   0.000  0.00  0.00    +0.094 A 
ATOM     17  C   UNL     1       2.807  -4.219   0.000  0.00  0.00    +0.023 A 
ATOM     18  C   UNL     1       2.807  -3.394   0.000  0.00  0.00    +0.059 A 
BRANCH  13  20
ATOM     19  C   UNL     1       1.378  -1.744   0.000  0.00  0.00    +0.254 C 
ATOM     20  O   UNL     1       2.092  -2.156   0.000  0.00  0.00    -0.456 OA
ENDBRANCH  13  20
ENDBRANCH   1  16
TORSDOF 3
