REMARK  Name = 
REMARK  4 active torsions:
REMARK  status: ('A' for Active; 'I' for Inactive)
REMARK    1  A    between atoms: C_2  and  N_4
REMARK    2  A    between atoms: C_5  and  C_7
REMARK    3  A    between atoms: C_7  and  N_8
REMARK    4  A    between atoms: C_11  and  C_12
REMARK                            x       y       z     vdW  Elec       q    Type
REMARK                         _______ _______ _______ _____ _____    ______ ____
ROOT
ATOM      1  N   UNL     1       3.572  -2.888   0.000  0.00  0.00    -0.290 N 
ATOM      2  C   UNL     1       3.572  -3.712   0.000  0.00  0.00    +0.261 A 
ATOM      3  O   UNL     1       2.858  -4.125   0.000  0.00  0.00    -0.267 OA
ATOM      4  C   UNL     1       4.287  -4.125   0.000  0.00  0.00    +0.057 A 
ATOM      5  C   UNL     1       5.001  -3.712   0.000  0.00  0.00    -0.010 A 
ATOM      6  C   UNL     1       5.716  -4.125   0.000  0.00  0.00    +0.031 C 
ATOM      7  C   UNL     1       5.001  -2.888   0.000  0.00  0.00    +0.088 A 
ATOM      8  C   UNL     1       4.287  -2.475   0.000  0.00  0.00    +0.047 A 
ATOM      9  C   UNL     1       4.287  -1.650   0.000  0.00  0.00    +0.050 C 
ENDROOT
BRANCH   7  10
ATOM     10  C   UNL     1       5.716  -2.475   0.000  0.00  0.00    +0.389 C 
ATOM     11  O   UNL     1       6.430  -2.888   0.000  0.00  0.00    -0.241 OA
ATOM     12  O   UNL     1       5.716  -1.650   0.000  0.00  0.00    -0.241 OA
ENDBRANCH   7  10
BRANCH   1  13
ATOM     13  C   UNL     1       2.858  -2.475   0.000  0.00  0.00    +0.196 C 
BRANCH  13  15
ATOM     14  N   UNL     1       1.429  -2.475   0.000  0.00  0.00    -0.206 NA
ATOM     15  C   UNL     1       2.143  -2.888   0.000  0.00  0.00    +0.264 C 
ATOM     16  O   UNL     1       2.143  -3.712   0.000  0.00  0.00    -0.271 OA
BRANCH  14  18
ATOM     17  C   UNL     1       0.000  -2.475   0.000  0.00  0.00    +0.023 C 
ATOM     18  C   UNL     1       0.715  -2.888   0.000  0.00  0.00    +0.095 C 
ATOM     19  C   UNL     1       0.715  -3.712   0.000  0.00  0.00    +0.023 C 
ENDBRANCH  14  18
ENDBRANCH  13  15
ENDBRANCH   1  13
TORSDOF 4
