REMARK  Name = 
REMARK  5 active torsions:
REMARK  status: ('A' for Active; 'I' for Inactive)
REMARK    1  A    between atoms: S_2  and  C_3
REMARK    2  A    between atoms: C_8  and  N_9
REMARK    3  A    between atoms: N_9  and  S_10
REMARK    4  A    between atoms: S_10  and  C_13
REMARK    5  A    between atoms: C_13  and  C_14
REMARK                            x       y       z     vdW  Elec       q    Type
REMARK                         _______ _______ _______ _____ _____    ______ ____
ROOT
ATOM      1  N   UNL     1       3.466   2.001   0.000  0.00  0.00    -0.082 NA
ENDROOT
BRANCH   1   3
ATOM      2  C   UNL     1       2.751   3.238   0.000  0.00  0.00    +0.065 C 
ATOM      3  C   UNL     1       3.466   2.826   0.000  0.00  0.00    +0.107 C 
ATOM      4  C   UNL     1       4.180   3.238   0.000  0.00  0.00    +0.020 C 
ATOM      5  C   UNL     1       4.180   4.063   0.000  0.00  0.00    +0.002 C 
ATOM      6  C   UNL     1       3.466   4.476   0.000  0.00  0.00    +0.001 C 
ATOM      7  C   UNL     1       2.751   4.063   0.000  0.00  0.00    +0.012 C 
BRANCH   2   9
ATOM      8  C   UNL     1       1.322   3.238   0.000  0.00  0.00    +0.069 C 
ATOM      9  S   UNL     1       2.037   2.826   0.000  0.00  0.00    -0.139 S 
ENDBRANCH   2   9
ENDBRANCH   1   3
BRANCH   1  10
ATOM     10  S   UNL     1       4.180   1.588   0.000  0.00  0.00    +0.063 S 
ATOM     11  O   UNL     1       4.593   2.303   0.000  0.00  0.00    -0.156 OA
ATOM     12  O   UNL     1       3.768   0.874   0.000  0.00  0.00    -0.156 OA
BRANCH  10  13
ATOM     13  C   UNL     1       4.895   1.176   0.000  0.00  0.00    +0.219 C 
BRANCH  13  14
ATOM     14  C   UNL     1       4.895   0.351   0.000  0.00  0.00    +0.126 A 
ATOM     15  N   UNL     1       4.227  -0.134   0.000  0.00  0.00    -0.079 NA
ATOM     16  O   UNL     1       4.482  -0.919   0.000  0.00  0.00    -0.350 OA
ATOM     17  C   UNL     1       5.307  -0.919   0.000  0.00  0.00    +0.214 A 
ATOM     18  C   UNL     1       5.562  -0.134   0.000  0.00  0.00    +0.063 A 
ENDBRANCH  13  14
ENDBRANCH  10  13
ENDBRANCH   1  10
TORSDOF 5
