REMARK  Name = 
REMARK  3 active torsions:
REMARK  status: ('A' for Active; 'I' for Inactive)
REMARK    1  A    between atoms: C_2  and  C_4
REMARK    2  A    between atoms: C_9  and  C_10
REMARK    3  A    between atoms: C_10  and  C_11
REMARK                            x       y       z     vdW  Elec       q    Type
REMARK                         _______ _______ _______ _____ _____    ______ ____
ROOT
ATOM      1  C   UNL     1      -0.147   2.352   0.000  0.00  0.00    +0.247 C 
ATOM      2  N   UNL     1       0.568   1.939   0.000  0.00  0.00    -0.154 NA
ATOM      3  C   UNL     1       0.568   1.114   0.000  0.00  0.00    +0.186 A 
ATOM      4  S   UNL     1      -0.100   0.629   0.000  0.00  0.00    -0.049 S 
ATOM      5  C   UNL     1       0.155  -0.155   0.000  0.00  0.00    +0.053 A 
ATOM      6  C   UNL     1       0.980  -0.155   0.000  0.00  0.00    +0.077 A 
ATOM      7  N   UNL     1       1.235   0.629   0.000  0.00  0.00    -0.226 NA
ATOM      8  O   UNL     1      -0.861   1.939   0.000  0.00  0.00    -0.273 OA
ENDROOT
BRANCH   1  10
ATOM      9  C   UNL     1      -0.861   3.589   0.000  0.00  0.00    +0.010 C 
ATOM     10  C   UNL     1      -0.147   3.177   0.000  0.00  0.00    +0.079 C 
ATOM     11  C   UNL     1       0.568   3.589   0.000  0.00  0.00    +0.010 C 
ENDBRANCH   1  10
BRANCH   6  12
ATOM     12  C   UNL     1       1.465  -0.823   0.000  0.00  0.00    +0.135 C 
BRANCH  12  13
ATOM     13  C   UNL     1       1.130  -1.576   0.000  0.00  0.00    +0.267 C 
ATOM     14  N   UNL     1       0.309  -1.663   0.000  0.00  0.00    -0.087 NA
ATOM     15  O   UNL     1       1.615  -2.244   0.000  0.00  0.00    -0.271 OA
ENDBRANCH  12  13
ENDBRANCH   6  12
TORSDOF 3
