REMARK  Name = 
REMARK  6 active torsions:
REMARK  status: ('A' for Active; 'I' for Inactive)
REMARK    1  A    between atoms: C_2  and  C_3
REMARK    2  A    between atoms: C_3  and  C_4
REMARK    3  A    between atoms: C_4  and  C_7
REMARK    4  A    between atoms: C_7  and  N_8
REMARK    5  A    between atoms: C_9  and  C_11
REMARK    6  A    between atoms: C_16  and  N_17
REMARK                            x       y       z     vdW  Elec       q    Type
REMARK                         _______ _______ _______ _____ _____    ______ ____
ROOT
ATOM      1  C   UNL     1       0.715  -1.238   0.000  0.00  0.00    +0.087 A 
ATOM      2  C   UNL     1       0.000  -1.650   0.000  0.00  0.00    +0.136 A 
ATOM      3  N   UNL     1       0.000  -2.475   0.000  0.00  0.00    -0.229 NA
ATOM      4  C   UNL     1       0.715  -2.888   0.000  0.00  0.00    +0.100 A 
ATOM      5  C   UNL     1       1.429  -2.475   0.000  0.00  0.00    +0.021 A 
ATOM      6  C   UNL     1       1.429  -1.650   0.000  0.00  0.00    +0.009 A 
ENDROOT
BRANCH   2   7
ATOM      7  N   UNL     1      -0.715  -1.238   0.000  0.00  0.00    -0.288 N 
ATOM      8  C   UNL     1      -0.715  -0.412   0.000  0.00  0.00    +0.124 C 
ATOM      9  C   UNL     1      -1.429   0.000   0.000  0.00  0.00    +0.164 C 
ATOM     10  O   UNL     1      -2.143  -0.412   0.000  0.00  0.00    -0.350 OA
ATOM     11  C   UNL     1      -2.143  -1.238   0.000  0.00  0.00    +0.164 C 
ATOM     12  C   UNL     1      -1.429  -1.650   0.000  0.00  0.00    +0.124 C 
ENDBRANCH   2   7
BRANCH   1  14
ATOM     13  N   UNL     1       1.429   0.000   0.000  0.00  0.00    -0.199 NA
ATOM     14  C   UNL     1       0.715  -0.412   0.000  0.00  0.00    +0.268 C 
ATOM     15  O   UNL     1       0.000   0.000   0.000  0.00  0.00    -0.268 OA
BRANCH  13  16
ATOM     16  C   UNL     1       1.429   0.825   0.000  0.00  0.00    +0.146 C 
BRANCH  16  17
ATOM     17  C   UNL     1       2.143   1.238   0.000  0.00  0.00    +0.147 C 
ATOM     18  O   UNL     1       2.556   0.523   0.000  0.00  0.00    -0.224 OA
ATOM     19  C   UNL     1       1.731   1.952   0.000  0.00  0.00    +0.035 C 
BRANCH  17  20
ATOM     20  C   UNL     1       2.858   1.650   0.000  0.00  0.00    +0.032 C 
BRANCH  20  22
ATOM     21  C   UNL     1       3.572   2.888   0.000  0.00  0.00    +0.000 C 
ATOM     22  C   UNL     1       2.858   2.475   0.000  0.00  0.00    +0.003 C 
ENDBRANCH  20  22
ENDBRANCH  17  20
ENDBRANCH  16  17
ENDBRANCH  13  16
ENDBRANCH   1  14
TORSDOF 6
