REMARK  Name = 
REMARK  7 active torsions:
REMARK  status: ('A' for Active; 'I' for Inactive)
REMARK    1  A    between atoms: O_2  and  C_3
REMARK    2  A    between atoms: C_3  and  C_4
REMARK    3  A    between atoms: C_4  and  O_5
REMARK    4  A    between atoms: O_5  and  C_6
REMARK    5  A    between atoms: C_11  and  C_13
REMARK    6  A    between atoms: N_18  and  C_19
REMARK    7  A    between atoms: C_19  and  C_20
REMARK                            x       y       z     vdW  Elec       q    Type
REMARK                         _______ _______ _______ _____ _____    ______ ____
ROOT
ATOM      1  C   UNL     1       7.145  -0.825   0.000  0.00  0.00    +0.225 A 
ATOM      2  N   UNL     1       7.859  -1.238   0.000  0.00  0.00    -0.206 NA
ATOM      3  C   UNL     1       8.574  -0.825   0.000  0.00  0.00    +0.148 A 
ATOM      4  C   UNL     1       8.574   0.000   0.000  0.00  0.00    +0.080 A 
ATOM      5 CL   UNL     1       9.288   0.412   0.000  0.00  0.00    -0.081 Cl
ATOM      6  C   UNL     1       7.859   0.412   0.000  0.00  0.00    +0.018 A 
ATOM      7  C   UNL     1       7.145   0.000   0.000  0.00  0.00    +0.059 A 
ENDROOT
BRANCH   3   8
ATOM      8  C   UNL     1       9.288  -1.238   0.000  0.00  0.00    +0.268 C 
ATOM      9  N   UNL     1       9.288  -2.062   0.000  0.00  0.00    -0.272 N 
ATOM     10  C   UNL     1       8.574  -2.475   0.000  0.00  0.00    +0.111 C 
ATOM     11  C   UNL     1       8.574  -3.300   0.000  0.00  0.00    +0.094 C 
ATOM     12  N   UNL     1       9.288  -3.712   0.000  0.00  0.00    -0.268 NA
ATOM     13  C   UNL     1      10.003  -3.300   0.000  0.00  0.00    +0.094 C 
ATOM     14  C   UNL     1      10.003  -2.475   0.000  0.00  0.00    +0.111 C 
ATOM     15  O   UNL     1      10.003  -0.825   0.000  0.00  0.00    -0.268 OA
BRANCH  12  16
ATOM     16  C   UNL     1       9.288  -4.537   0.000  0.00  0.00    +0.108 C 
BRANCH  16  17
ATOM     17  C   UNL     1      10.003  -4.950   0.000  0.00  0.00    +0.199 C 
ATOM     18  O   UNL     1      10.717  -4.537   0.000  0.00  0.00    -0.219 OA
ENDBRANCH  16  17
ENDBRANCH  12  16
ENDBRANCH   3   8
BRANCH   1  19
ATOM     19  O   UNL     1       6.430  -1.238   0.000  0.00  0.00    -0.457 OA
BRANCH  19  20
ATOM     20  C   UNL     1       5.716  -0.825   0.000  0.00  0.00    +0.239 C 
BRANCH  20  21
ATOM     21  C   UNL     1       5.001  -1.238   0.000  0.00  0.00    +0.189 C 
BRANCH  21  23
ATOM     22  C   UNL     1       3.572  -1.238   0.000  0.00  0.00    +0.174 C 
ATOM     23  O   UNL     1       4.287  -0.825   0.000  0.00  0.00    -0.347 OA
ENDBRANCH  21  23
ENDBRANCH  20  21
ENDBRANCH  19  20
ENDBRANCH   1  19
TORSDOF 7
