REMARK  Name = 
REMARK  4 active torsions:
REMARK  status: ('A' for Active; 'I' for Inactive)
REMARK    1  A    between atoms: N_1  and  C_7
REMARK    2  A    between atoms: N_2  and  C_12
REMARK    3  A    between atoms: C_7  and  C_9
REMARK    4  A    between atoms: C_8  and  C_13
REMARK                            x       y       z     vdW  Elec       q    Type
REMARK                         _______ _______ _______ _____ _____    ______ ____
ROOT
ATOM      1  C   UNL     1      -2.038  -1.296   0.000  0.00  0.00    +0.199 C 
ENDROOT
BRANCH   1   2
ATOM      2  C   UNL     1      -2.754  -1.708   0.000  0.00  0.00    +0.249 C 
ATOM      3  O   UNL     1      -2.754  -2.533   0.000  0.00  0.00    -0.273 OA
ATOM      4  N   UNL     1      -3.467  -1.296   0.000  0.00  0.00    -0.274 N 
ATOM      5  C   UNL     1      -4.183  -1.708   0.000  0.00  0.00    +0.115 C 
ATOM      6  C   UNL     1      -4.896  -1.296   0.000  0.00  0.00    +0.115 C 
ATOM      7  N   UNL     1      -4.896  -0.471   0.000  0.00  0.00    -0.272 N 
ATOM      8  C   UNL     1      -4.183  -0.058   0.000  0.00  0.00    +0.115 C 
ATOM      9  C   UNL     1      -5.612  -0.058   0.000  0.00  0.00    +0.255 C 
ATOM     10  O   UNL     1      -6.321  -0.471   0.000  0.00  0.00    -0.269 OA
ATOM     11  C   UNL     1      -3.467  -0.471   0.000  0.00  0.00    +0.115 C 
BRANCH   9  12
ATOM     12  C   UNL     1      -5.612   0.767   0.000  0.00  0.00    +0.083 A 
ATOM     13  C   UNL     1      -6.275   1.250   0.000  0.00  0.00    +0.012 A 
ATOM     14  C   UNL     1      -6.021   2.033   0.000  0.00  0.00    +0.008 A 
ATOM     15  C   UNL     1      -5.200   2.033   0.000  0.00  0.00    +0.036 A 
ATOM     16  S   UNL     1      -4.942   1.250   0.000  0.00  0.00    -0.082 S 
ENDBRANCH   9  12
ENDBRANCH   1   2
BRANCH   1  17
ATOM     17  N   UNL     1      -1.325  -1.708   0.000  0.00  0.00    -0.238 N 
ATOM     18  C   UNL     1      -0.608  -1.296   0.000  0.00  0.00    +0.294 A 
ATOM     19  O   UNL     1      -0.608  -0.471   0.000  0.00  0.00    -0.264 OA
ATOM     20  C   UNL     1       0.104  -1.708   0.000  0.00  0.00    +0.213 A 
ATOM     21  F   UNL     1       0.821  -1.296   0.000  0.00  0.00    -0.198 F 
ATOM     22  C   UNL     1       0.104  -2.533   0.000  0.00  0.00    +0.116 A 
ATOM     23  N   UNL     1      -0.608  -2.946   0.000  0.00  0.00    -0.255 N 
ATOM     24  C   UNL     1      -1.325  -2.533   0.000  0.00  0.00    +0.336 A 
ATOM     25  O   UNL     1      -2.038  -2.946   0.000  0.00  0.00    -0.246 OA
BRANCH  23  26
ATOM     26  C   UNL     1      -0.608  -3.771   0.000  0.00  0.00    +0.208 C 
ATOM     27  C   UNL     1       0.058  -4.258   0.000  0.00  0.00    +0.057 C 
ATOM     28  C   UNL     1      -0.196  -5.042   0.000  0.00  0.00    +0.037 C 
ATOM     29  C   UNL     1      -1.021  -5.042   0.000  0.00  0.00    +0.144 C 
ATOM     30  O   UNL     1      -1.279  -4.258   0.000  0.00  0.00    -0.335 OA
ENDBRANCH  23  26
ENDBRANCH   1  17
TORSDOF 4
