REMARK  Name = 
REMARK  4 active torsions:
REMARK  status: ('A' for Active; 'I' for Inactive)
REMARK    1  A    between atoms: C_2  and  N_3
REMARK    2  A    between atoms: C_2  and  C_21
REMARK    3  A    between atoms: N_6  and  C_7
REMARK    4  A    between atoms: C_10  and  C_13
REMARK                            x       y       z     vdW  Elec       q    Type
REMARK                         _______ _______ _______ _____ _____    ______ ____
ROOT
ATOM      1  C   UNL     1       7.145  -3.300   0.000  0.00  0.00    +0.094 A 
ATOM      2  C   UNL     1       7.145  -4.125   0.000  0.00  0.00    +0.116 A 
ATOM      3  N   UNL     1       7.859  -4.537   0.000  0.00  0.00    -0.238 NA
ATOM      4  C   UNL     1       8.574  -4.125   0.000  0.00  0.00    +0.135 A 
ATOM      5  C   UNL     1       8.574  -3.300   0.000  0.00  0.00    +0.025 A 
ATOM      6  C   UNL     1       7.859  -2.888   0.000  0.00  0.00    +0.020 A 
ENDROOT
BRANCH   4   7
ATOM      7  C   UNL     1       9.288  -4.537   0.000  0.00  0.00    +0.267 C 
ATOM      8  N   UNL     1       9.288  -5.362   0.000  0.00  0.00    -0.275 N 
ATOM      9  C   UNL     1       8.574  -5.775   0.000  0.00  0.00    +0.094 C 
ATOM     10  C   UNL     1       8.574  -6.600   0.000  0.00  0.00    +0.022 C 
ATOM     11  C   UNL     1       9.288  -7.013   0.000  0.00  0.00    +0.004 C 
ATOM     12  C   UNL     1      10.003  -6.600   0.000  0.00  0.00    +0.022 C 
ATOM     13  C   UNL     1      10.003  -5.775   0.000  0.00  0.00    +0.094 C 
ATOM     14  O   UNL     1      10.003  -4.125   0.000  0.00  0.00    -0.268 OA
ENDBRANCH   4   7
BRANCH   1  17
ATOM     15  N   UNL     1       5.001  -2.888   0.000  0.00  0.00    -0.189 NA
ATOM     16  C   UNL     1       5.716  -3.300   0.000  0.00  0.00    +0.343 C 
ATOM     17  N   UNL     1       6.430  -2.888   0.000  0.00  0.00    -0.159 NA
ATOM     18  O   UNL     1       5.716  -4.125   0.000  0.00  0.00    -0.249 OA
BRANCH  15  20
ATOM     19  C   UNL     1       4.287  -4.125   0.000  0.00  0.00    +0.023 C 
ATOM     20  C   UNL     1       4.287  -3.300   0.000  0.00  0.00    +0.097 C 
BRANCH  20  21
ATOM     21  C   UNL     1       3.572  -2.888   0.000  0.00  0.00    +0.020 C 
ATOM     22  C   UNL     1       3.160  -2.173   0.000  0.00  0.00    +0.002 C 
ATOM     23  C   UNL     1       2.747  -2.888   0.000  0.00  0.00    +0.002 C 
ENDBRANCH  20  21
ENDBRANCH  15  20
ENDBRANCH   1  17
TORSDOF 4
