REMARK  Name = 
REMARK  3 active torsions:
REMARK  status: ('A' for Active; 'I' for Inactive)
REMARK    1  A    between atoms: O_2  and  C_3
REMARK    2  A    between atoms: C_4  and  N_5
REMARK    3  A    between atoms: N_8  and  C_9
REMARK                            x       y       z     vdW  Elec       q    Type
REMARK                         _______ _______ _______ _____ _____    ______ ____
ROOT
ATOM      1  N   UNL     1       3.454  -3.251   0.000  0.00  0.00    -0.155 NA
ATOM      2  C   UNL     1       4.067  -3.803   0.000  0.00  0.00    +0.344 C 
ATOM      3  N   UNL     1       4.852  -3.548   0.000  0.00  0.00    -0.189 NA
ATOM      4  O   UNL     1       3.896  -4.610   0.000  0.00  0.00    -0.249 OA
ENDROOT
BRANCH   1  11
ATOM      5  C   UNL     1       2.002  -3.021   0.000  0.00  0.00    +0.239 A 
ATOM      6  N   UNL     1       1.334  -3.506   0.000  0.00  0.00    -0.217 N 
ATOM      7  C   UNL     1       0.550  -3.251   0.000  0.00  0.00    +0.157 C 
ATOM      8  N   UNL     1       1.589  -4.290   0.000  0.00  0.00    -0.170 NA
ATOM      9  C   UNL     1       2.414  -4.290   0.000  0.00  0.00    +0.099 A 
ATOM     10  C   UNL     1       2.899  -4.958   0.000  0.00  0.00    +0.056 C 
ATOM     11  C   UNL     1       2.669  -3.506   0.000  0.00  0.00    +0.143 A 
BRANCH   5  13
ATOM     12  C   UNL     1       1.287  -1.783   0.000  0.00  0.00    +0.254 C 
ATOM     13  O   UNL     1       2.002  -2.196   0.000  0.00  0.00    -0.455 OA
ENDBRANCH   5  13
ENDBRANCH   1  11
BRANCH   3  14
ATOM     14  C   UNL     1       5.465  -4.100   0.000  0.00  0.00    +0.097 C 
ATOM     15  C   UNL     1       5.233  -4.892   0.000  0.00  0.00    +0.022 C 
ATOM     16  C   UNL     1       5.708  -5.566   0.000  0.00  0.00    +0.002 C 
ATOM     17  C   UNL     1       6.532  -5.616   0.000  0.00  0.00    +0.000 C 
ATOM     18  C   UNL     1       7.084  -5.003   0.000  0.00  0.00    +0.000 C 
ATOM     19  C   UNL     1       6.949  -4.189   0.000  0.00  0.00    +0.002 C 
ATOM     20  C   UNL     1       6.228  -3.787   0.000  0.00  0.00    +0.022 C 
ENDBRANCH   3  14
TORSDOF 3
