REMARK  Name = 
REMARK  4 active torsions:
REMARK  status: ('A' for Active; 'I' for Inactive)
REMARK    1  A    between atoms: C_2  and  C_3
REMARK    2  A    between atoms: C_3  and  N_4
REMARK    3  A    between atoms: C_5  and  C_7
REMARK    4  A    between atoms: C_7  and  N_8
REMARK                            x       y       z     vdW  Elec       q    Type
REMARK                         _______ _______ _______ _____ _____    ______ ____
ROOT
ATOM      1  N   UNL     1       5.716  -4.125   0.000  0.00  0.00    -0.269 N 
ATOM      2  C   UNL     1       5.716  -4.950   0.000  0.00  0.00    +0.353 A 
ATOM      3  O   UNL     1       5.001  -5.362   0.000  0.00  0.00    -0.244 OA
ATOM      4  N   UNL     1       6.430  -5.362   0.000  0.00  0.00    -0.153 NA
ATOM      5  C   UNL     1       7.145  -4.950   0.000  0.00  0.00    +0.285 A 
ATOM      6  O   UNL     1       7.859  -5.362   0.000  0.00  0.00    -0.265 OA
ATOM      7  C   UNL     1       7.145  -4.125   0.000  0.00  0.00    +0.081 A 
ATOM      8  C   UNL     1       6.430  -3.712   0.000  0.00  0.00    +0.085 A 
ENDROOT
BRANCH   1   9
ATOM      9  C   UNL     1       5.001  -3.712   0.000  0.00  0.00    +0.197 C 
BRANCH   9  11
ATOM     10  N   UNL     1       3.572  -3.712   0.000  0.00  0.00    -0.204 NA
ATOM     11  C   UNL     1       4.287  -4.125   0.000  0.00  0.00    +0.265 C 
ATOM     12  O   UNL     1       4.287  -4.950   0.000  0.00  0.00    -0.271 OA
BRANCH  10  13
ATOM     13  C   UNL     1       2.858  -4.125   0.000  0.00  0.00    +0.115 C 
BRANCH  13  15
ATOM     14  C   UNL     1       1.429  -4.125   0.000  0.00  0.00    +0.002 C 
ATOM     15  C   UNL     1       2.143  -3.712   0.000  0.00  0.00    +0.023 C 
ENDBRANCH  13  15
ENDBRANCH  10  13
ENDBRANCH   9  11
ENDBRANCH   1   9
TORSDOF 4
