REMARK  Name = 
REMARK  4 active torsions:
REMARK  status: ('A' for Active; 'I' for Inactive)
REMARK    1  A    between atoms: C_2  and  C_3
REMARK    2  A    between atoms: C_2  and  N_9
REMARK    3  A    between atoms: C_3  and  N_4
REMARK    4  A    between atoms: C_15  and  C_18
REMARK                            x       y       z     vdW  Elec       q    Type
REMARK                         _______ _______ _______ _____ _____    ______ ____
ROOT
ATOM      1  N   UNL     1       2.143  -2.888   0.000  0.00  0.00    -0.188 NA
ATOM      2  C   UNL     1       2.858  -2.475   0.000  0.00  0.00    +0.323 C 
ATOM      3  N   UNL     1       3.572  -2.888   0.000  0.00  0.00    -0.263 N 
ATOM      4  C   UNL     1       3.572  -3.712   0.000  0.00  0.00    +0.095 C 
ATOM      5  C   UNL     1       4.287  -4.125   0.000  0.00  0.00    +0.031 C 
ATOM      6  C   UNL     1       5.001  -3.712   0.000  0.00  0.00    +0.083 C 
ATOM      7  C   UNL     1       5.001  -2.888   0.000  0.00  0.00    +0.031 C 
ATOM      8  C   UNL     1       4.287  -2.475   0.000  0.00  0.00    +0.095 C 
ATOM      9  O   UNL     1       2.858  -1.650   0.000  0.00  0.00    -0.251 OA
ENDROOT
BRANCH   6  10
ATOM     10  C   UNL     1       5.716  -4.125   0.000  0.00  0.00    +0.260 C 
ATOM     11  N   UNL     1       5.716  -4.950   0.000  0.00  0.00    -0.088 NA
ATOM     12  O   UNL     1       6.430  -3.712   0.000  0.00  0.00    -0.272 OA
ENDBRANCH   6  10
BRANCH   1  14
ATOM     13  C   UNL     1       1.429  -1.650   0.000  0.00  0.00    +0.026 C 
ATOM     14  C   UNL     1       1.429  -2.475   0.000  0.00  0.00    +0.119 C 
BRANCH  14  15
ATOM     15  C   UNL     1       0.715  -2.888   0.000  0.00  0.00    +0.129 C 
BRANCH  15  16
ATOM     16  N   UNL     1       0.000  -2.475   0.000  0.00  0.00    -0.306 N 
ATOM     17  C   UNL     1      -0.086  -1.655   0.000  0.00  0.00    +0.179 A 
ATOM     18  N   UNL     1      -0.893  -1.483   0.000  0.00  0.00    -0.222 NA
ATOM     19  C   UNL     1      -1.306  -2.197   0.000  0.00  0.00    +0.119 A 
ATOM     20  C   UNL     1      -0.754  -2.811   0.000  0.00  0.00    +0.098 A 
ENDBRANCH  15  16
ENDBRANCH  14  15
ENDBRANCH   1  14
TORSDOF 4
