REMARK  Name = 
REMARK  3 active torsions:
REMARK  status: ('A' for Active; 'I' for Inactive)
REMARK    1  A    between atoms: C_3  and  C_5
REMARK    2  A    between atoms: C_5  and  N_6
REMARK    3  A    between atoms: C_10  and  C_11
REMARK                            x       y       z     vdW  Elec       q    Type
REMARK                         _______ _______ _______ _____ _____    ______ ____
ROOT
ATOM      1  N   UNL     1       1.256  -1.005   0.000  0.00  0.00    -0.208 N 
ATOM      2  C   UNL     1       0.589  -1.490   0.000  0.00  0.00    +0.161 A 
ATOM      3  N   UNL     1       0.844  -2.275   0.000  0.00  0.00    -0.113 NA
ATOM      4  N   UNL     1       1.669  -2.275   0.000  0.00  0.00    -0.023 NA
ATOM      5  N   UNL     1       1.924  -1.490   0.000  0.00  0.00    -0.043 NA
ENDROOT
BRANCH   2   6
ATOM      6  C   UNL     1      -0.196  -1.235   0.000  0.00  0.00    +0.060 C 
ATOM      7  C   UNL     1      -0.451  -0.451   0.000  0.00  0.00    +0.008 C 
ATOM      8  C   UNL     1      -1.276  -0.451   0.000  0.00  0.00    +0.000 C 
ATOM      9  C   UNL     1      -1.530  -1.235   0.000  0.00  0.00    +0.000 C 
ATOM     10  C   UNL     1      -0.863  -1.720   0.000  0.00  0.00    +0.008 C 
ENDBRANCH   2   6
BRANCH   1  11
ATOM     11  C   UNL     1       1.256  -0.180   0.000  0.00  0.00    +0.217 C 
BRANCH  11  14
ATOM     12  C   UNL     1       2.685   1.470   0.000  0.00  0.00    +0.139 C 
ATOM     13  N   UNL     1       1.971   1.057   0.000  0.00  0.00    -0.202 NA
ATOM     14  C   UNL     1       1.971   0.232   0.000  0.00  0.00    +0.266 C 
ATOM     15  O   UNL     1       2.685  -0.180   0.000  0.00  0.00    -0.271 OA
ENDBRANCH  11  14
ENDBRANCH   1  11
TORSDOF 3
