REMARK  Name = 
REMARK  4 active torsions:
REMARK  status: ('A' for Active; 'I' for Inactive)
REMARK    1  A    between atoms: C_2  and  C_3
REMARK    2  A    between atoms: C_2  and  C_15
REMARK    3  A    between atoms: C_3  and  N_4
REMARK    4  A    between atoms: C_7  and  C_11
REMARK                            x       y       z     vdW  Elec       q    Type
REMARK                         _______ _______ _______ _____ _____    ______ ____
ROOT
ATOM      1  N   UNL     1       1.429  -2.475   0.000  0.00  0.00    -0.275 N 
ATOM      2  C   UNL     1       0.715  -2.888   0.000  0.00  0.00    +0.263 A 
ATOM      3  O   UNL     1       0.000  -2.475   0.000  0.00  0.00    -0.267 OA
ATOM      4  C   UNL     1       0.715  -3.712   0.000  0.00  0.00    +0.075 A 
ATOM      5  C   UNL     1       1.429  -4.125   0.000  0.00  0.00    +0.065 A 
ATOM      6  N   UNL     1       2.143  -3.712   0.000  0.00  0.00    -0.230 NA
ATOM      7  C   UNL     1       2.143  -2.888   0.000  0.00  0.00    +0.181 A 
ENDROOT
BRANCH   5   8
ATOM      8  C   UNL     1       1.429  -4.950   0.000  0.00  0.00    +0.040 C 
ATOM      9  C   UNL     1       0.846  -5.533   0.000  0.00  0.00    +0.006 C 
ATOM     10  C   UNL     1       1.429  -6.117   0.000  0.00  0.00    +0.001 C 
ATOM     11  C   UNL     1       2.012  -5.533   0.000  0.00  0.00    +0.006 C 
ENDBRANCH   5   8
BRANCH   1  12
ATOM     12  C   UNL     1       1.429  -1.650   0.000  0.00  0.00    +0.148 C 
BRANCH  12  14
ATOM     13  O   UNL     1       0.000  -1.650   0.000  0.00  0.00    -0.216 OA
ATOM     14  C   UNL     1       0.715  -1.238   0.000  0.00  0.00    +0.197 C 
BRANCH  14  15
ATOM     15  C   UNL     1       0.715  -0.412   0.000  0.00  0.00    +0.010 A 
ATOM     16  C   UNL     1       1.429   0.000   0.000  0.00  0.00    +0.001 A 
ATOM     17  C   UNL     1       1.429   0.825   0.000  0.00  0.00    +0.029 A 
ATOM     18  C   UNL     1       0.715   1.238   0.000  0.00  0.00    +0.140 A 
ATOM     19  F   UNL     1       0.715   2.062   0.000  0.00  0.00    -0.204 F 
ATOM     20  C   UNL     1       0.000   0.825   0.000  0.00  0.00    +0.029 A 
ATOM     21  C   UNL     1       0.000   0.000   0.000  0.00  0.00    +0.001 A 
ENDBRANCH  14  15
ENDBRANCH  12  14
ENDBRANCH   1  12
TORSDOF 4
