REMARK  Name = 
REMARK  3 active torsions:
REMARK  status: ('A' for Active; 'I' for Inactive)
REMARK    1  A    between atoms: C_4  and  N_5
REMARK    2  A    between atoms: N_8  and  C_9
REMARK    3  A    between atoms: N_12  and  C_14
REMARK                            x       y       z     vdW  Elec       q    Type
REMARK                         _______ _______ _______ _____ _____    ______ ____
ROOT
ATOM      1  N   UNL     1       0.140   6.977   0.000  0.00  0.00    -0.142 NA
ATOM      2  C   UNL     1       0.625   6.309   0.000  0.00  0.00    +0.345 C 
ATOM      3  N   UNL     1       0.289   5.556   0.000  0.00  0.00    -0.187 NA
ATOM      4  O   UNL     1       1.445   6.396   0.000  0.00  0.00    -0.249 OA
ENDROOT
BRANCH   1  10
ATOM      5  C   UNL     1       2.083   9.135   0.000  0.00  0.00    +0.054 C 
ATOM      6  C   UNL     1       1.369   8.723   0.000  0.00  0.00    +0.082 A 
ATOM      7  N   UNL     1       0.615   9.058   0.000  0.00  0.00    -0.172 NA
ATOM      8  N   UNL     1       0.063   8.445   0.000  0.00  0.00    -0.234 N 
ATOM      9  C   UNL     1      -0.757   8.531   0.000  0.00  0.00    +0.155 C 
ATOM     10  C   UNL     1       0.475   7.731   0.000  0.00  0.00    +0.154 A 
ATOM     11  C   UNL     1       1.282   7.902   0.000  0.00  0.00    +0.052 A 
ENDBRANCH   1  10
BRANCH   3  12
ATOM     12  C   UNL     1       0.774   4.888   0.000  0.00  0.00    +0.114 C 
ATOM     13  C   UNL     1       0.519   4.104   0.000  0.00  0.00    +0.094 C 
ATOM     14  N   UNL     1       1.187   3.619   0.000  0.00  0.00    -0.272 NA
ATOM     15  C   UNL     1       1.854   4.104   0.000  0.00  0.00    +0.074 C 
ATOM     16  C   UNL     1       1.599   4.888   0.000  0.00  0.00    +0.040 C 
BRANCH  14  17
ATOM     17  C   UNL     1       1.187   2.794   0.000  0.00  0.00    +0.058 C 
ATOM     18  C   UNL     1       0.774   2.079   0.000  0.00  0.00    +0.017 C 
ATOM     19  C   UNL     1       1.599   2.079   0.000  0.00  0.00    +0.017 C 
ENDBRANCH  14  17
ENDBRANCH   3  12
TORSDOF 3
