REMARK  Name = 
REMARK  2 active torsions:
REMARK  status: ('A' for Active; 'I' for Inactive)
REMARK    1  A    between atoms: N_1  and  C1*_2
REMARK    2  A    between atoms: C4*_10  and  C5*_18
REMARK                            x       y       z     vdW  Elec       q    Type
REMARK                         _______ _______ _______ _____ _____    ______ ____
ROOT
ATOM      1  N   UNL     1       1.137  -1.363   0.000  0.00  0.00    -0.269 N 
ATOM      2  C   UNL     1       0.650  -0.696   0.000  0.00  0.00    +0.182 A 
ATOM      3  N   UNL     1       1.137  -0.029   0.000  0.00  0.00    -0.220 NA
ATOM      4  C   UNL     1       1.921  -0.283   0.000  0.00  0.00    +0.145 A 
ATOM      5  C   UNL     1       2.638   0.129   0.000  0.00  0.00    +0.161 A 
ATOM      6 CL   UNL     1       2.638   0.954   0.000  0.00  0.00    -0.060 Cl
ATOM      7  N   UNL     1       3.350  -0.283   0.000  0.00  0.00    -0.211 NA
ATOM      8  C   UNL     1       3.350  -1.108   0.000  0.00  0.00    +0.201 A 
ATOM      9  N   UNL     1       2.638  -1.521   0.000  0.00  0.00    -0.205 NA
ATOM     10  C   UNL     1       1.921  -1.108   0.000  0.00  0.00    +0.169 A 
ENDROOT
BRANCH   1  11
ATOM     11  C1* UNL     1       0.883  -2.150   0.000  0.00  0.00    +0.241 C 
ATOM     12  O4* UNL     1       0.096  -2.404   0.000  0.00  0.00    -0.331 OA
ATOM     13  C4* UNL     1       0.096  -3.229   0.000  0.00  0.00    +0.183 C 
ATOM     14  C3* UNL     1       0.883  -3.483   0.000  0.00  0.00    +0.216 C 
ATOM     15  O3* UNL     1       1.137  -4.267   0.000  0.00  0.00    -0.218 OA
ATOM     16  C2* UNL     1       1.367  -2.817   0.000  0.00  0.00    +0.234 C 
ATOM     17  O2* UNL     1       2.192  -2.817   0.000  0.00  0.00    -0.216 OA
BRANCH  13  18
ATOM     18  C5* UNL     1      -0.571  -3.712   0.000  0.00  0.00    +0.214 C 
ATOM     19  O5* UNL     1      -0.483  -4.533   0.000  0.00  0.00    -0.218 OA
ENDBRANCH  13  18
ENDBRANCH   1  11
TORSDOF 2
