REMARK  Name = 
REMARK  6 active torsions:
REMARK  status: ('A' for Active; 'I' for Inactive)
REMARK    1  A    between atoms: N_2  and  C_7
REMARK    2  A    between atoms: C_5  and  N_8
REMARK    3  A    between atoms: N_8  and  C_16
REMARK    4  A    between atoms: C_11  and  C_24
REMARK    5  A    between atoms: C_11  and  C_25
REMARK    6  A    between atoms: N_17  and  C_21
REMARK                            x       y       z     vdW  Elec       q    Type
REMARK                         _______ _______ _______ _____ _____    ______ ____
ROOT
ATOM      1  C   UNL     1       2.563   0.825   0.000  0.00  0.00    +0.149 A 
ATOM      2  C   UNL     1       3.276   1.238   0.000  0.00  0.00    +0.154 A 
ATOM      3  N   UNL     1       3.993   0.825   0.000  0.00  0.00    -0.207 NA
ATOM      4  C   UNL     1       3.993   0.000   0.000  0.00  0.00    +0.201 A 
ATOM      5  N   UNL     1       3.276  -0.413   0.000  0.00  0.00    -0.205 NA
ATOM      6  N   UNL     1       1.780   1.083   0.000  0.00  0.00    -0.219 NA
ATOM      7  C   UNL     1       1.292   0.413   0.000  0.00  0.00    +0.180 A 
ATOM      8  N   UNL     1       1.780  -0.254   0.000  0.00  0.00    -0.296 N 
ATOM      9  C   UNL     1       2.563   0.000   0.000  0.00  0.00    +0.167 A 
ENDROOT
BRANCH   8  10
ATOM     10  C   UNL     1       1.521  -1.038   0.000  0.00  0.00    +0.089 C 
ATOM     11  C   UNL     1       0.788  -1.413   0.000  0.00  0.00    +0.028 C 
ATOM     12  C   UNL     1       1.163  -2.146   0.000  0.00  0.00    +0.065 C 
ATOM     13  C   UNL     1       1.896  -1.771   0.000  0.00  0.00    +0.028 C 
BRANCH  12  14
ATOM     14  C   UNL     1       1.538  -2.884   0.000  0.00  0.00    +0.185 C 
ATOM     15  O   UNL     1       2.363  -2.926   0.000  0.00  0.00    -0.220 OA
ENDBRANCH  12  14
BRANCH  12  16
ATOM     16  C   UNL     1       0.429  -2.521   0.000  0.00  0.00    +0.185 C 
ATOM     17  O   UNL     1      -0.267  -2.071   0.000  0.00  0.00    -0.220 OA
ENDBRANCH  12  16
ENDBRANCH   8  10
BRANCH   2  18
ATOM     18  N   UNL     1       3.276   2.063   0.000  0.00  0.00    -0.292 N 
ATOM     19  C   UNL     1       2.563   2.475   0.000  0.00  0.00    +0.114 C 
BRANCH  18  20
ATOM     20  C   UNL     1       3.993   2.475   0.000  0.00  0.00    +0.074 C 
ATOM     21  C   UNL     1       4.705   2.063   0.000  0.00  0.00    +0.022 C 
ATOM     22  C   UNL     1       5.422   2.475   0.000  0.00  0.00    +0.023 C 
ATOM     23  C   UNL     1       5.422   3.301   0.000  0.00  0.00    +0.095 C 
ATOM     24  C   UNL     1       4.705   3.713   0.000  0.00  0.00    +0.023 C 
ATOM     25  C   UNL     1       3.993   3.301   0.000  0.00  0.00    +0.022 C 
BRANCH  23  26
ATOM     26  N   UNL     1       6.135   3.713   0.000  0.00  0.00    -0.207 NA
ATOM     27  C   UNL     1       6.851   3.301   0.000  0.00  0.00    +0.242 C 
ATOM     28  C   UNL     1       6.851   2.475   0.000  0.00  0.00    +0.096 C 
ATOM     29  O   UNL     1       7.564   3.713   0.000  0.00  0.00    -0.273 OA
ENDBRANCH  23  26
ENDBRANCH  18  20
ENDBRANCH   2  18
TORSDOF 6
