REMARK  Name = 
REMARK  4 active torsions:
REMARK  status: ('A' for Active; 'I' for Inactive)
REMARK    1  A    between atoms: O_2  and  C_3
REMARK    2  A    between atoms: C_3  and  C_4
REMARK    3  A    between atoms: C_4  and  C_6
REMARK    4  A    between atoms: C_6  and  N_7
REMARK                            x       y       z     vdW  Elec       q    Type
REMARK                         _______ _______ _______ _____ _____    ______ ____
ROOT
ATOM      1  N   UNL     1       6.351  -0.410   0.000  0.00  0.00    -0.312 N 
ATOM      2  C   UNL     1       7.105  -0.745   0.000  0.00  0.00    +0.079 A 
ATOM      3  C   UNL     1       7.657  -0.132   0.000  0.00  0.00    +0.098 A 
ATOM      4  C   UNL     1       8.464  -0.304   0.000  0.00  0.00    +0.021 A 
ATOM      5  C   UNL     1       8.719  -1.088   0.000  0.00  0.00    +0.002 A 
ATOM      6  C   UNL     1       8.167  -1.701   0.000  0.00  0.00    +0.002 A 
ATOM      7  N   UNL     1       7.245   0.582   0.000  0.00  0.00    -0.231 NA
ATOM      8  C   UNL     1       7.360  -1.530   0.000  0.00  0.00    +0.019 A 
ATOM      9  C   UNL     1       6.438   0.411   0.000  0.00  0.00    +0.121 A 
ATOM     10  C   UNL     1       5.825   0.963   0.000  0.00  0.00    +0.072 C 
ENDROOT
BRANCH   1  11
ATOM     11  C   UNL     1       5.637  -0.822   0.000  0.00  0.00    +0.143 C 
BRANCH  11  12
ATOM     12  C   UNL     1       4.923  -0.410   0.000  0.00  0.00    +0.204 C 
ATOM     13  O   UNL     1       4.923   0.415   0.000  0.00  0.00    -0.218 OA
BRANCH  12  14
ATOM     14  C   UNL     1       4.208  -0.822   0.000  0.00  0.00    +0.177 C 
BRANCH  14  16
ATOM     15  C   UNL     1       2.779  -0.822   0.000  0.00  0.00    +0.174 C 
ATOM     16  O   UNL     1       3.494  -0.410   0.000  0.00  0.00    -0.348 OA
ENDBRANCH  14  16
ENDBRANCH  12  14
ENDBRANCH  11  12
ENDBRANCH   1  11
TORSDOF 4
