REMARK  Name = 
REMARK  4 active torsions:
REMARK  status: ('A' for Active; 'I' for Inactive)
REMARK    1  A    between atoms: C_4  and  C_6
REMARK    2  A    between atoms: C_8  and  N_9
REMARK    3  A    between atoms: N_12  and  C_13
REMARK    4  A    between atoms: C_13  and  C_14
REMARK                            x       y       z     vdW  Elec       q    Type
REMARK                         _______ _______ _______ _____ _____    ______ ____
ROOT
ATOM      1  C   UNL     1      -3.572   2.062   0.000  0.00  0.00    +0.136 A 
ATOM      2  N   UNL     1      -3.572   1.238   0.000  0.00  0.00    -0.239 NA
ATOM      3  C   UNL     1      -2.858   0.825   0.000  0.00  0.00    +0.100 A 
ATOM      4  C   UNL     1      -2.143   1.238   0.000  0.00  0.00    +0.037 A 
ATOM      5  C   UNL     1      -2.143   2.062   0.000  0.00  0.00    +0.078 A 
ATOM      6  C   UNL     1      -2.858   2.475   0.000  0.00  0.00    +0.040 A 
ENDROOT
BRANCH   1   9
ATOM      7  C   UNL     1      -5.716   2.475   0.000  0.00  0.00    +0.115 C 
ATOM      8  N   UNL     1      -5.001   2.062   0.000  0.00  0.00    -0.271 N 
ATOM      9  C   UNL     1      -4.287   2.475   0.000  0.00  0.00    +0.267 C 
ATOM     10  O   UNL     1      -4.287   3.300   0.000  0.00  0.00    -0.268 OA
ATOM     11  C   UNL     1      -5.001   1.238   0.000  0.00  0.00    +0.115 C 
ENDBRANCH   1   9
BRANCH   5  12
ATOM     12  N   UNL     1      -1.429   2.475   0.000  0.00  0.00    -0.161 NA
ATOM     13  C   UNL     1      -0.715   2.062   0.000  0.00  0.00    +0.343 C 
ATOM     14  N   UNL     1       0.000   2.475   0.000  0.00  0.00    -0.187 NA
ATOM     15  O   UNL     1      -0.715   1.238   0.000  0.00  0.00    -0.249 OA
BRANCH  14  16
ATOM     16  C   UNL     1       0.715   2.062   0.000  0.00  0.00    +0.117 C 
BRANCH  16  17
ATOM     17  C   UNL     1       1.429   2.475   0.000  0.00  0.00    +0.020 C 
ATOM     18  C   UNL     1       2.214   2.730   0.000  0.00  0.00    +0.002 C 
ATOM     19  C   UNL     1       2.214   3.555   0.000  0.00  0.00    +0.000 C 
ATOM     20  C   UNL     1       1.429   3.810   0.000  0.00  0.00    +0.000 C 
ATOM     21  C   UNL     1       0.944   3.142   0.000  0.00  0.00    +0.002 C 
ATOM     22  C   UNL     1       1.764   1.721   0.000  0.00  0.00    +0.002 C 
ENDBRANCH  16  17
ENDBRANCH  14  16
ENDBRANCH   5  12
TORSDOF 4
