REMARK  Name = 
REMARK  3 active torsions:
REMARK  status: ('A' for Active; 'I' for Inactive)
REMARK    1  A    between atoms: N_13  and  C_14
REMARK    2  A    between atoms: C_14  and  C_15
REMARK    3  A    between atoms: C_15  and  N_16
REMARK                            x       y       z     vdW  Elec       q    Type
REMARK                         _______ _______ _______ _____ _____    ______ ____
ROOT
ATOM      1  C   UNL     1      -2.719   3.920   0.000  0.00  0.00    +0.095 C 
ATOM      2  C   UNL     1      -2.361   3.177   0.000  0.00  0.00    +0.226 C 
ATOM      3  N   UNL     1      -1.538   3.115   0.000  0.00  0.00    -0.278 N 
ATOM      4  C   UNL     1      -1.237   2.347   0.000  0.00  0.00    +0.115 C 
ATOM      5  C   UNL     1      -0.448   2.104   0.000  0.00  0.00    +0.116 C 
ATOM      6  N   UNL     1       0.233   2.569   0.000  0.00  0.00    -0.261 N 
ATOM      7  C   UNL     1       0.948   2.156   0.000  0.00  0.00    +0.323 C 
ATOM      8  N   UNL     1       1.662   2.569   0.000  0.00  0.00    -0.186 NA
ATOM      9  O   UNL     1       0.948   1.331   0.000  0.00  0.00    -0.251 OA
ATOM     10  C   UNL     1       0.295   3.392   0.000  0.00  0.00    +0.097 C 
ATOM     11  C   UNL     1      -0.310   3.953   0.000  0.00  0.00    +0.043 C 
ATOM     12  C   UNL     1      -1.125   3.830   0.000  0.00  0.00    +0.095 C 
ATOM     13  O   UNL     1      -2.825   2.495   0.000  0.00  0.00    -0.275 OA
ENDROOT
BRANCH   8  14
ATOM     14  C   UNL     1       2.377   2.156   0.000  0.00  0.00    +0.141 C 
BRANCH  14  15
ATOM     15  C   UNL     1       3.091   2.569   0.000  0.00  0.00    +0.131 C 
BRANCH  15  16
ATOM     16  N   UNL     1       3.806   2.156   0.000  0.00  0.00    -0.306 N 
ATOM     17  C   UNL     1       3.892   1.336   0.000  0.00  0.00    +0.179 A 
ATOM     18  N   UNL     1       4.699   1.164   0.000  0.00  0.00    -0.222 NA
ATOM     19  C   UNL     1       5.111   1.879   0.000  0.00  0.00    +0.119 A 
ATOM     20  C   UNL     1       4.559   2.492   0.000  0.00  0.00    +0.098 A 
ENDBRANCH  15  16
ENDBRANCH  14  15
ENDBRANCH   8  14
TORSDOF 3
