REMARK  Name = 
REMARK  5 active torsions:
REMARK  status: ('A' for Active; 'I' for Inactive)
REMARK    1  A    between atoms: C_4  and  N_5
REMARK    2  A    between atoms: C_6  and  C_8
REMARK    3  A    between atoms: C_8  and  O_9
REMARK    4  A    between atoms: O_9  and  C_10
REMARK    5  A    between atoms: C_10  and  C_11
REMARK                            x       y       z     vdW  Elec       q    Type
REMARK                         _______ _______ _______ _____ _____    ______ ____
ROOT
ATOM      1  N   UNL     1      -0.715   1.238   0.000  0.00  0.00    -0.176 NA
ATOM      2  C   UNL     1       0.000   0.825   0.000  0.00  0.00    +0.276 C 
ATOM      3  O   UNL     1       0.000   0.000   0.000  0.00  0.00    -0.270 OA
ENDROOT
BRANCH   1  10
ATOM      4  C   UNL     1      -3.572   1.238   0.000  0.00  0.00    +0.134 C 
ATOM      5  N   UNL     1      -2.858   0.825   0.000  0.00  0.00    -0.291 N 
ATOM      6  C   UNL     1      -2.858   0.000   0.000  0.00  0.00    +0.261 A 
ATOM      7  O   UNL     1      -3.572  -0.412   0.000  0.00  0.00    -0.267 OA
ATOM      8  C   UNL     1      -2.143  -0.412   0.000  0.00  0.00    +0.062 A 
ATOM      9  C   UNL     1      -1.429   0.000   0.000  0.00  0.00    +0.023 A 
ATOM     10  C   UNL     1      -1.429   0.825   0.000  0.00  0.00    +0.091 A 
ATOM     11  C   UNL     1      -2.143   1.238   0.000  0.00  0.00    +0.095 A 
ENDBRANCH   1  10
BRANCH   2  12
ATOM     12  C   UNL     1       0.715   1.238   0.000  0.00  0.00    +0.229 C 
BRANCH  12  13
ATOM     13  O   UNL     1       1.429   0.825   0.000  0.00  0.00    -0.344 OA
BRANCH  13  14
ATOM     14  C   UNL     1       2.143   1.238   0.000  0.00  0.00    +0.143 C 
BRANCH  14  15
ATOM     15  C   UNL     1       2.858   0.825   0.000  0.00  0.00    +0.030 C 
ATOM     16  C   UNL     1       3.270   0.111   0.000  0.00  0.00    +0.003 C 
ATOM     17  C   UNL     1       3.683   0.825   0.000  0.00  0.00    +0.003 C 
ENDBRANCH  14  15
ENDBRANCH  13  14
ENDBRANCH  12  13
ENDBRANCH   2  12
TORSDOF 5
