REMARK  Name = 
REMARK  4 active torsions:
REMARK  status: ('A' for Active; 'I' for Inactive)
REMARK    1  A    between atoms: N_11  and  C_12
REMARK    2  A    between atoms: C_12  and  C_13
REMARK    3  A    between atoms: C_13  and  C_14
REMARK    4  A    between atoms: N_16  and  C_17
REMARK                            x       y       z     vdW  Elec       q    Type
REMARK                         _______ _______ _______ _____ _____    ______ ____
ROOT
ATOM      1  C   UNL     1       1.429  -7.425   0.000  0.00  0.00    +0.031 C 
ATOM      2  C   UNL     1       1.429  -6.600   0.000  0.00  0.00    -0.018 A 
ATOM      3  C   UNL     1       2.143  -6.188   0.000  0.00  0.00    +0.032 A 
ATOM      4  C   UNL     1       2.143  -5.362   0.000  0.00  0.00    +0.155 A 
ATOM      5  N   UNL     1       2.858  -4.950   0.000  0.00  0.00    -0.142 NA
ATOM      6  C   UNL     1       3.572  -5.362   0.000  0.00  0.00    +0.345 C 
ATOM      7  N   UNL     1       4.287  -4.950   0.000  0.00  0.00    -0.186 NA
ATOM      8  O   UNL     1       3.572  -6.188   0.000  0.00  0.00    -0.249 OA
ATOM      9  N   UNL     1       1.429  -4.950   0.000  0.00  0.00    -0.233 NA
ATOM     10  C   UNL     1       0.715  -5.362   0.000  0.00  0.00    +0.061 A 
ATOM     11  C   UNL     1       0.000  -4.950   0.000  0.00  0.00    +0.052 C 
ATOM     12  C   UNL     1       0.715  -6.188   0.000  0.00  0.00    +0.011 A 
ENDROOT
BRANCH   7  13
ATOM     13  C   UNL     1       5.001  -5.362   0.000  0.00  0.00    +0.126 C 
BRANCH  13  14
ATOM     14  C   UNL     1       5.716  -4.950   0.000  0.00  0.00    +0.110 C 
BRANCH  14  15
ATOM     15  C   UNL     1       6.430  -5.362   0.000  0.00  0.00    +0.243 C 
ATOM     16  N   UNL     1       7.145  -4.950   0.000  0.00  0.00    -0.207 NA
ATOM     17  O   UNL     1       6.430  -6.188   0.000  0.00  0.00    -0.273 OA
BRANCH  16  18
ATOM     18  C   UNL     1       7.859  -5.362   0.000  0.00  0.00    +0.095 C 
ATOM     19  C   UNL     1       7.859  -6.188   0.000  0.00  0.00    +0.022 C 
ATOM     20  C   UNL     1       8.574  -6.600   0.000  0.00  0.00    +0.002 C 
ATOM     21  C   UNL     1       9.288  -6.188   0.000  0.00  0.00    +0.000 C 
ATOM     22  C   UNL     1       9.288  -5.362   0.000  0.00  0.00    +0.002 C 
ATOM     23  C   UNL     1       8.574  -4.950   0.000  0.00  0.00    +0.022 C 
ENDBRANCH  16  18
ENDBRANCH  14  15
ENDBRANCH  13  14
ENDBRANCH   7  13
TORSDOF 4
