REMARK  Name = 
REMARK  5 active torsions:
REMARK  status: ('A' for Active; 'I' for Inactive)
REMARK    1  A    between atoms: N_7  and  C_8
REMARK    2  A    between atoms: C_8  and  C_9
REMARK    3  A    between atoms: C_9  and  C_10
REMARK    4  A    between atoms: C_10  and  N_11
REMARK    5  A    between atoms: N_14  and  C_15
REMARK                            x       y       z     vdW  Elec       q    Type
REMARK                         _______ _______ _______ _____ _____    ______ ____
ROOT
ATOM      1  N   UNL     1       4.287   0.000   0.000  0.00  0.00    -0.187 NA
ATOM      2  C   UNL     1       5.001  -0.412   0.000  0.00  0.00    +0.345 C 
ATOM      3  N   UNL     1       5.716   0.000   0.000  0.00  0.00    -0.142 NA
ATOM      4  O   UNL     1       5.001  -1.238   0.000  0.00  0.00    -0.249 OA
ENDROOT
BRANCH   3   5
ATOM      5  C   UNL     1       6.430  -0.412   0.000  0.00  0.00    +0.154 A 
ATOM      6  N   UNL     1       6.516  -1.233   0.000  0.00  0.00    -0.234 N 
ATOM      7  C   UNL     1       5.903  -1.785   0.000  0.00  0.00    +0.155 C 
ATOM      8  N   UNL     1       7.323  -1.405   0.000  0.00  0.00    -0.172 NA
ATOM      9  C   UNL     1       7.736  -0.690   0.000  0.00  0.00    +0.082 A 
ATOM     10  C   UNL     1       8.556  -0.604   0.000  0.00  0.00    +0.054 C 
ATOM     11  C   UNL     1       7.184  -0.077   0.000  0.00  0.00    +0.052 A 
ENDBRANCH   3   5
BRANCH   1  12
ATOM     12  C   UNL     1       3.572  -0.412   0.000  0.00  0.00    +0.118 C 
BRANCH  12  13
ATOM     13  C   UNL     1       2.858   0.000   0.000  0.00  0.00    +0.041 C 
BRANCH  13  14
ATOM     14  C   UNL     1       2.143  -0.412   0.000  0.00  0.00    +0.074 C 
BRANCH  14  17
ATOM     15  C   UNL     1       0.715  -1.238   0.000  0.00  0.00    +0.017 C 
ATOM     16  C   UNL     1       0.715  -0.412   0.000  0.00  0.00    +0.058 C 
ATOM     17  N   UNL     1       1.429   0.000   0.000  0.00  0.00    -0.274 NA
ATOM     18  C   UNL     1       1.429   0.825   0.000  0.00  0.00    +0.072 C 
ATOM     19  C   UNL     1       0.715   1.238   0.000  0.00  0.00    +0.017 C 
ATOM     20  C   UNL     1       0.000   0.825   0.000  0.00  0.00    +0.003 C 
ATOM     21  C   UNL     1       0.000   0.000   0.000  0.00  0.00    +0.016 C 
ENDBRANCH  14  17
ENDBRANCH  13  14
ENDBRANCH  12  13
ENDBRANCH   1  12
TORSDOF 5
