REMARK  Name = 
REMARK  4 active torsions:
REMARK  status: ('A' for Active; 'I' for Inactive)
REMARK    1  A    between atoms: O_2  and  C_3
REMARK    2  A    between atoms: C_3  and  C_4
REMARK    3  A    between atoms: C_4  and  N_5
REMARK    4  A    between atoms: N_12  and  C_13
REMARK                            x       y       z     vdW  Elec       q    Type
REMARK                         _______ _______ _______ _____ _____    ______ ____
ROOT
ATOM      1  N   UNL     1       2.751  -2.537   0.000  0.00  0.00    -0.246 N 
ATOM      2  N   UNL     1       2.084  -3.022   0.000  0.00  0.00    -0.152 NA
ATOM      3  C   UNL     1       2.339  -3.806   0.000  0.00  0.00    +0.177 A 
ATOM      4  N   UNL     1       1.854  -4.474   0.000  0.00  0.00    -0.140 NA
ATOM      5  C   UNL     1       1.033  -4.387   0.000  0.00  0.00    +0.345 C 
ATOM      6  N   UNL     1       0.548  -5.055   0.000  0.00  0.00    -0.189 NA
ATOM      7  O   UNL     1       0.698  -3.634   0.000  0.00  0.00    -0.249 OA
ATOM      8  C   UNL     1       3.164  -3.806   0.000  0.00  0.00    +0.058 A 
ATOM      9  C   UNL     1       3.419  -3.022   0.000  0.00  0.00    +0.098 A 
ENDROOT
BRANCH   6  10
ATOM     10  C   UNL     1      -0.272  -4.969   0.000  0.00  0.00    +0.097 C 
ATOM     11  C   UNL     1      -0.608  -4.215   0.000  0.00  0.00    +0.022 C 
ATOM     12  C   UNL     1      -1.428  -4.129   0.000  0.00  0.00    +0.002 C 
ATOM     13  C   UNL     1      -1.913  -4.796   0.000  0.00  0.00    +0.000 C 
ATOM     14  C   UNL     1      -2.486  -4.203   0.000  0.00  0.00    +0.000 C 
ATOM     15  C   UNL     1      -2.597  -5.257   0.000  0.00  0.00    +0.000 C 
ATOM     16  C   UNL     1      -1.577  -5.550   0.000  0.00  0.00    +0.002 C 
ATOM     17  C   UNL     1      -0.757  -5.636   0.000  0.00  0.00    +0.022 C 
ENDBRANCH   6  10
BRANCH   1  18
ATOM     18  C   UNL     1       2.751  -1.712   0.000  0.00  0.00    +0.159 C 
BRANCH  18  19
ATOM     19  C   UNL     1       3.466  -1.299   0.000  0.00  0.00    +0.169 C 
BRANCH  19  21
ATOM     20  C   UNL     1       4.180  -0.062   0.000  0.00  0.00    +0.174 C 
ATOM     21  O   UNL     1       3.466  -0.474   0.000  0.00  0.00    -0.349 OA
ENDBRANCH  19  21
ENDBRANCH  18  19
ENDBRANCH   1  18
TORSDOF 4
