REMARK  Name = 
REMARK  5 active torsions:
REMARK  status: ('A' for Active; 'I' for Inactive)
REMARK    1  A    between atoms: C_2  and  C_4
REMARK    2  A    between atoms: C_4  and  C_5
REMARK    3  A    between atoms: C_10  and  C_12
REMARK    4  A    between atoms: C_12  and  C_13
REMARK    5  A    between atoms: C_13  and  C_14
REMARK                            x       y       z     vdW  Elec       q    Type
REMARK                         _______ _______ _______ _____ _____    ______ ____
ROOT
ATOM      1  C   UNL     1      -0.633  -1.718   0.000  0.00  0.00    +0.077 A 
ATOM      2  N   UNL     1      -0.081  -2.331   0.000  0.00  0.00    -0.226 NA
ATOM      3  C   UNL     1       0.672  -1.996   0.000  0.00  0.00    +0.186 A 
ATOM      4  N   UNL     1       1.387  -2.408   0.000  0.00  0.00    -0.154 NA
ATOM      5  C   UNL     1       2.102  -1.996   0.000  0.00  0.00    +0.247 C 
ATOM      6  O   UNL     1       2.102  -1.171   0.000  0.00  0.00    -0.273 OA
ATOM      7  S   UNL     1       0.586  -1.175   0.000  0.00  0.00    -0.049 S 
ATOM      8  C   UNL     1      -0.221  -1.004   0.000  0.00  0.00    +0.053 A 
ENDROOT
BRANCH   1   9
ATOM      9  C   UNL     1      -1.454  -1.804   0.000  0.00  0.00    +0.135 C 
BRANCH   9  11
ATOM     10  N   UNL     1      -2.759  -1.223   0.000  0.00  0.00    -0.087 NA
ATOM     11  C   UNL     1      -1.939  -1.137   0.000  0.00  0.00    +0.267 C 
ATOM     12  O   UNL     1      -1.603  -0.383   0.000  0.00  0.00    -0.271 OA
ENDBRANCH   9  11
ENDBRANCH   1   9
BRANCH   5  13
ATOM     13  C   UNL     1       2.816  -2.408   0.000  0.00  0.00    +0.087 C 
BRANCH  13  14
ATOM     14  C   UNL     1       3.530  -1.996   0.000  0.00  0.00    +0.010 C 
BRANCH  14  15
ATOM     15  C   UNL     1       4.245  -2.408   0.000  0.00  0.00    +0.000 C 
ATOM     16  C   UNL     1       4.331  -3.229   0.000  0.00  0.00    +0.000 C 
ATOM     17  C   UNL     1       5.138  -3.400   0.000  0.00  0.00    +0.000 C 
ATOM     18  C   UNL     1       5.551  -2.686   0.000  0.00  0.00    +0.000 C 
ATOM     19  C   UNL     1       4.999  -2.073   0.000  0.00  0.00    +0.000 C 
ENDBRANCH  14  15
ENDBRANCH  13  14
ENDBRANCH   5  13
TORSDOF 5
