REMARK  Name = 
REMARK  5 active torsions:
REMARK  status: ('A' for Active; 'I' for Inactive)
REMARK    1  A    between atoms: C_2  and  N_4
REMARK    2  A    between atoms: C_6  and  C_10
REMARK    3  A    between atoms: N_12  and  C_13
REMARK    4  A    between atoms: C_13  and  C_14
REMARK    5  A    between atoms: C_14  and  C_15
REMARK                            x       y       z     vdW  Elec       q    Type
REMARK                         _______ _______ _______ _____ _____    ______ ____
ROOT
ATOM      1  C   UNL     1       0.028  -2.025   0.000  0.00  0.00    +0.243 C 
ATOM      2  N   UNL     1       0.743  -2.437   0.000  0.00  0.00    -0.205 NA
ATOM      3  O   UNL     1       0.028  -1.200   0.000  0.00  0.00    -0.273 OA
ENDROOT
BRANCH   1   8
ATOM      4  N   UNL     1      -1.992  -2.715   0.000  0.00  0.00    -0.281 N 
ATOM      5  C   UNL     1      -1.580  -3.429   0.000  0.00  0.00    +0.226 C 
ATOM      6  O   UNL     1      -1.915  -4.183   0.000  0.00  0.00    -0.275 OA
ATOM      7  C   UNL     1      -0.773  -3.258   0.000  0.00  0.00    +0.096 C 
ATOM      8  C   UNL     1      -0.686  -2.437   0.000  0.00  0.00    +0.107 C 
ATOM      9  C   UNL     1      -1.440  -2.102   0.000  0.00  0.00    +0.103 C 
BRANCH   4  11
ATOM     10  C   UNL     1      -3.298  -3.296   0.000  0.00  0.00    +0.022 C 
ATOM     11  C   UNL     1      -2.813  -2.629   0.000  0.00  0.00    +0.075 C 
ATOM     12  C   UNL     1      -3.148  -1.875   0.000  0.00  0.00    +0.022 C 
ENDBRANCH   4  11
ENDBRANCH   1   8
BRANCH   2  13
ATOM     13  C   UNL     1       1.457  -2.025   0.000  0.00  0.00    +0.121 C 
BRANCH  13  14
ATOM     14  C   UNL     1       2.171  -2.437   0.000  0.00  0.00    +0.070 C 
BRANCH  14  15
ATOM     15  C   UNL     1       2.886  -2.025   0.000  0.00  0.00    +0.067 A 
ATOM     16  N   UNL     1       3.640  -2.360   0.000  0.00  0.00    -0.247 NA
ATOM     17  C   UNL     1       4.192  -1.747   0.000  0.00  0.00    +0.088 A 
ATOM     18  C   UNL     1       5.012  -1.833   0.000  0.00  0.00    +0.059 C 
ATOM     19  S   UNL     1       3.779  -1.033   0.000  0.00  0.00    -0.071 S 
ATOM     20  C   UNL     1       2.972  -1.204   0.000  0.00  0.00    +0.051 A 
ENDBRANCH  14  15
ENDBRANCH  13  14
ENDBRANCH   2  13
TORSDOF 5
