REMARK  Name = 
REMARK  4 active torsions:
REMARK  status: ('A' for Active; 'I' for Inactive)
REMARK    1  A    between atoms: C_2  and  C_4
REMARK    2  A    between atoms: C_4  and  N_10
REMARK    3  A    between atoms: C_11  and  C_13
REMARK    4  A    between atoms: C_13  and  N_14
REMARK                            x       y       z     vdW  Elec       q    Type
REMARK                         _______ _______ _______ _____ _____    ______ ____
ROOT
ATOM      1  C   UNL     1      -4.091   1.909   0.000  0.00  0.00    +0.171 C 
ATOM      2  C   UNL     1      -4.621   2.541   0.000  0.00  0.00    +0.031 C 
ATOM      3  C   UNL     1      -5.434   2.397   0.000  0.00  0.00    +0.002 C 
ATOM      4  C   UNL     1      -5.716   1.622   0.000  0.00  0.00    +0.000 C 
ATOM      5  C   UNL     1      -5.186   0.990   0.000  0.00  0.00    +0.002 C 
ATOM      6  C   UNL     1      -4.373   1.133   0.000  0.00  0.00    +0.031 C 
ENDROOT
BRANCH   1   8
ATOM      7  O   UNL     1      -3.843   3.316   0.000  0.00  0.00    -0.244 OA
ATOM      8  C   UNL     1      -3.561   2.541   0.000  0.00  0.00    +0.382 C 
ATOM      9  O   UNL     1      -2.748   2.397   0.000  0.00  0.00    -0.244 OA
ENDBRANCH   1   8
BRANCH   1  10
ATOM     10  N   UNL     1      -3.377   1.496   0.000  0.00  0.00    -0.196 NA
ATOM     11  C   UNL     1      -3.377   0.671   0.000  0.00  0.00    +0.267 C 
ATOM     12  O   UNL     1      -4.091   0.259   0.000  0.00  0.00    -0.271 OA
BRANCH  11  13
ATOM     13  C   UNL     1      -2.662   0.259   0.000  0.00  0.00    +0.214 C 
BRANCH  13  14
ATOM     14  N   UNL     1      -2.662  -0.566   0.000  0.00  0.00    -0.240 N 
ATOM     15  N   UNL     1      -3.330  -1.051   0.000  0.00  0.00    -0.167 NA
ATOM     16  C   UNL     1      -3.075  -1.836   0.000  0.00  0.00    +0.122 A 
ATOM     17  C   UNL     1      -2.250  -1.836   0.000  0.00  0.00    +0.043 A 
ATOM     18  C   UNL     1      -1.995  -1.051   0.000  0.00  0.00    +0.097 A 
ENDBRANCH  13  14
ENDBRANCH  11  13
ENDBRANCH   1  10
TORSDOF 4
