REMARK  Name = 
REMARK  4 active torsions:
REMARK  status: ('A' for Active; 'I' for Inactive)
REMARK    1  A    between atoms: C_2  and  C_4
REMARK    2  A    between atoms: C_4  and  N_5
REMARK    3  A    between atoms: C_8  and  N_11
REMARK    4  A    between atoms: N_14  and  C_15
REMARK                            x       y       z     vdW  Elec       q    Type
REMARK                         _______ _______ _______ _____ _____    ______ ____
ROOT
ATOM      1  N   UNL     1      -0.107   8.065   0.000  0.00  0.00    -0.265 NA
ATOM      2  C   UNL     1      -0.107   7.240   0.000  0.00  0.00    +0.074 C 
ATOM      3  C   UNL     1       0.608   6.828   0.000  0.00  0.00    +0.039 C 
ATOM      4  C   UNL     1       1.322   7.240   0.000  0.00  0.00    +0.100 C 
ATOM      5  C   UNL     1       1.322   8.065   0.000  0.00  0.00    +0.039 C 
ATOM      6  C   UNL     1       0.608   8.478   0.000  0.00  0.00    +0.074 C 
ENDROOT
BRANCH   4   7
ATOM      7  N   UNL     1       2.037   6.828   0.000  0.00  0.00    -0.189 NA
ATOM      8  C   UNL     1       2.037   6.003   0.000  0.00  0.00    +0.344 C 
ATOM      9  N   UNL     1       2.751   5.590   0.000  0.00  0.00    -0.158 NA
ATOM     10  O   UNL     1       1.322   5.590   0.000  0.00  0.00    -0.249 OA
BRANCH   9  11
ATOM     11  C   UNL     1       2.751   4.765   0.000  0.00  0.00    +0.117 A 
ATOM     12  C   UNL     1       2.084   4.280   0.000  0.00  0.00    +0.140 A 
ATOM     13  N   UNL     1       2.339   3.496   0.000  0.00  0.00    -0.145 NA
ATOM     14  N   UNL     1       3.164   3.496   0.000  0.00  0.00    -0.145 NA
ATOM     15  C   UNL     1       3.419   4.280   0.000  0.00  0.00    +0.140 A 
ENDBRANCH   9  11
ENDBRANCH   4   7
BRANCH   1  16
ATOM     16  C   UNL     1      -0.821   8.478   0.000  0.00  0.00    +0.162 C 
BRANCH  16  18
ATOM     17  N   UNL     1      -2.250   8.478   0.000  0.00  0.00    -0.087 NA
ATOM     18  C   UNL     1      -1.536   8.065   0.000  0.00  0.00    +0.277 C 
ATOM     19  O   UNL     1      -1.536   7.240   0.000  0.00  0.00    -0.270 OA
ENDBRANCH  16  18
ENDBRANCH   1  16
TORSDOF 4
