REMARK  Name = 
REMARK  7 active torsions:
REMARK  status: ('A' for Active; 'I' for Inactive)
REMARK    1  A    between atoms: C_2  and  C_3
REMARK    2  A    between atoms: C_3  and  C_4
REMARK    3  A    between atoms: C_4  and  S_5
REMARK    4  A    between atoms: S_5  and  C_8
REMARK    5  A    between atoms: N_13  and  C_14
REMARK    6  A    between atoms: C_14  and  C_15
REMARK    7  A    between atoms: C_15  and  C_16
REMARK                            x       y       z     vdW  Elec       q    Type
REMARK                         _______ _______ _______ _____ _____    ______ ____
ROOT
ATOM      1  O   UNL     1       0.715  -3.712   0.000  0.00  0.00    -0.273 OA
ATOM      2  C   UNL     1       0.715  -2.888   0.000  0.00  0.00    +0.243 C 
ATOM      3  N   UNL     1       1.429  -2.475   0.000  0.00  0.00    -0.205 NA
ENDROOT
BRANCH   3   4
ATOM      4  C   UNL     1       2.143  -2.888   0.000  0.00  0.00    +0.120 C 
BRANCH   4   5
ATOM      5  C   UNL     1       2.858  -2.475   0.000  0.00  0.00    +0.051 C 
BRANCH   5   6
ATOM      6  C   UNL     1       3.572  -2.888   0.000  0.00  0.00    -0.001 A 
ATOM      7  C   UNL     1       3.572  -3.712   0.000  0.00  0.00    +0.095 A 
ATOM      8  N   UNL     1       4.287  -4.125   0.000  0.00  0.00    -0.243 NA
ATOM      9  C   UNL     1       5.001  -3.712   0.000  0.00  0.00    +0.099 A 
ATOM     10  C   UNL     1       5.001  -2.888   0.000  0.00  0.00    +0.020 A 
ATOM     11  C   UNL     1       4.287  -2.475   0.000  0.00  0.00    -0.001 A 
ENDBRANCH   5   6
ENDBRANCH   4   5
ENDBRANCH   3   4
BRANCH   2  12
ATOM     12  C   UNL     1       0.000  -2.475   0.000  0.00  0.00    +0.112 C 
BRANCH  12  13
ATOM     13  C   UNL     1      -0.715  -2.888   0.000  0.00  0.00    +0.160 C 
BRANCH  13  14
ATOM     14  S   UNL     1      -1.429  -2.475   0.000  0.00  0.00    -0.011 S 
ATOM     15  O   UNL     1      -1.016  -1.760   0.000  0.00  0.00    -0.173 OA
ATOM     16  O   UNL     1      -1.841  -3.189   0.000  0.00  0.00    -0.173 OA
BRANCH  14  17
ATOM     17  C   UNL     1      -2.143  -2.062   0.000  0.00  0.00    +0.129 C 
ATOM     18  C   UNL     1      -2.230  -1.242   0.000  0.00  0.00    +0.024 C 
ATOM     19  C   UNL     1      -3.037  -1.071   0.000  0.00  0.00    +0.002 C 
ATOM     20  C   UNL     1      -3.449  -1.785   0.000  0.00  0.00    +0.002 C 
ATOM     21  C   UNL     1      -2.897  -2.398   0.000  0.00  0.00    +0.024 C 
ENDBRANCH  14  17
ENDBRANCH  13  14
ENDBRANCH  12  13
ENDBRANCH   2  12
TORSDOF 7
