REMARK  Name = 
REMARK  1 active torsions:
REMARK  status: ('A' for Active; 'I' for Inactive)
REMARK    1  A    between atoms: C_4  and  C_7
REMARK                            x       y       z     vdW  Elec       q    Type
REMARK                         _______ _______ _______ _____ _____    ______ ____
ROOT
ATOM      1  C   UNL     1       0.715   5.941   0.000  0.00  0.00    +0.121 C 
ATOM      2  N   UNL     1       0.000   5.529   0.000  0.00  0.00    -0.212 NA
ATOM      3  C   UNL     1       0.000   4.704   0.000  0.00  0.00    +0.125 C 
ATOM      4  C   UNL     1       0.715   4.291   0.000  0.00  0.00    +0.178 C 
ATOM      5  O   UNL     1       1.429   4.704   0.000  0.00  0.00    -0.347 OA
ATOM      6  C   UNL     1       1.429   5.529   0.000  0.00  0.00    +0.161 C 
ENDROOT
BRANCH   4   7
ATOM      7  C   UNL     1       0.715   3.466   0.000  0.00  0.00    +0.117 A 
ATOM      8  S   UNL     1       0.047   2.981   0.000  0.00  0.00    -0.068 S 
ATOM      9  C   UNL     1       0.302   2.196   0.000  0.00  0.00    +0.057 A 
ATOM     10  C   UNL     1       1.127   2.196   0.000  0.00  0.00    +0.106 A 
ATOM     11  N   UNL     1       1.382   2.981   0.000  0.00  0.00    -0.239 NA
ENDBRANCH   4   7
TORSDOF 1
