REMARK  Name = 
REMARK  5 active torsions:
REMARK  status: ('A' for Active; 'I' for Inactive)
REMARK    1  A    between atoms: C_2  and  C_3
REMARK    2  A    between atoms: C_3  and  O_4
REMARK    3  A    between atoms: O_4  and  C_5
REMARK    4  A    between atoms: C_8  and  N_9
REMARK    5  A    between atoms: N_9  and  C_10
REMARK                            x       y       z     vdW  Elec       q    Type
REMARK                         _______ _______ _______ _____ _____    ______ ____
ROOT
ATOM      1  C   UNL     1      -0.107   5.590   0.000  0.00  0.00    +0.225 A 
ATOM      2  N   UNL     1      -0.107   4.765   0.000  0.00  0.00    -0.209 NA
ATOM      3  C   UNL     1       0.608   4.353   0.000  0.00  0.00    +0.118 A 
ATOM      4  C   UNL     1       1.322   4.765   0.000  0.00  0.00    +0.085 A 
ATOM      5  C   UNL     1       1.322   5.590   0.000  0.00  0.00    +0.022 A 
ATOM      6  C   UNL     1       0.608   6.003   0.000  0.00  0.00    +0.059 A 
ENDROOT
BRANCH   1   7
ATOM      7  O   UNL     1      -0.821   6.003   0.000  0.00  0.00    -0.457 OA
BRANCH   7   8
ATOM      8  C   UNL     1      -1.536   5.590   0.000  0.00  0.00    +0.243 C 
BRANCH   8  10
ATOM      9  O   UNL     1      -2.965   5.590   0.000  0.00  0.00    -0.216 OA
ATOM     10  C   UNL     1      -2.250   6.003   0.000  0.00  0.00    +0.229 C 
ENDBRANCH   8  10
ENDBRANCH   7   8
ENDBRANCH   1   7
BRANCH   4  11
ATOM     11  N   UNL     1       2.037   4.353   0.000  0.00  0.00    -0.235 NA
BRANCH  11  12
ATOM     12  C   UNL     1       2.037   3.528   0.000  0.00  0.00    +0.125 C 
ATOM     13  C   UNL     1       1.369   3.043   0.000  0.00  0.00    +0.164 C 
ATOM     14  O   UNL     1       1.624   2.258   0.000  0.00  0.00    -0.352 OA
ATOM     15  C   UNL     1       2.449   2.258   0.000  0.00  0.00    +0.144 C 
ATOM     16  C   UNL     1       2.704   3.043   0.000  0.00  0.00    +0.056 C 
ENDBRANCH  11  12
ENDBRANCH   4  11
TORSDOF 5
