REMARK  Name = 
REMARK  11 active torsions:
REMARK  status: ('A' for Active; 'I' for Inactive)
REMARK    1  A    between atoms: N_1  and  C_7
REMARK    2  A    between atoms: C_5  and  N_8
REMARK    3  A    between atoms: N_8  and  C_17
REMARK    4  A    between atoms: N_8  and  C_19
REMARK    5  A    between atoms: C_11  and  C_20
REMARK    6  A    between atoms: C_11  and  C_21
REMARK    7  A    between atoms: C_16  and  C_18
REMARK    8  A    between atoms: C_17  and  C_24
REMARK    9  A    between atoms: C_18  and  C_19
REMARK   10  A    between atoms: C_24  and  C_25
REMARK   11  A    between atoms: C_24  and  C_26
REMARK                            x       y       z     vdW  Elec       q    Type
REMARK                         _______ _______ _______ _____ _____    ______ ____
ROOT
ATOM      1  N   UNL     1       3.991  -0.200   0.000  0.00  0.00    -0.296 N 
ATOM      2  C   UNL     1       4.074  -1.020   0.000  0.00  0.00    +0.180 A 
ATOM      3  N   UNL     1       3.321  -1.353   0.000  0.00  0.00    -0.219 NA
ATOM      4  C   UNL     1       2.772  -0.741   0.000  0.00  0.00    +0.149 A 
ATOM      5  C   UNL     1       1.948  -0.741   0.000  0.00  0.00    +0.154 A 
ATOM      6  N   UNL     1       1.536  -0.029   0.000  0.00  0.00    -0.207 NA
ATOM      7  C   UNL     1       1.948   0.687   0.000  0.00  0.00    +0.201 A 
ATOM      8  N   UNL     1       2.772   0.687   0.000  0.00  0.00    -0.205 NA
ATOM      9  C   UNL     1       3.184  -0.029   0.000  0.00  0.00    +0.167 A 
ENDROOT
BRANCH   1  10
ATOM     10  C   UNL     1       4.603   0.354   0.000  0.00  0.00    +0.089 C 
ATOM     11  C   UNL     1       5.427   0.308   0.000  0.00  0.00    +0.028 C 
ATOM     12  C   UNL     1       5.468   1.132   0.000  0.00  0.00    +0.065 C 
ATOM     13  C   UNL     1       4.644   1.174   0.000  0.00  0.00    +0.028 C 
BRANCH  12  14
ATOM     14  C   UNL     1       5.510   1.956   0.000  0.00  0.00    +0.185 C 
ATOM     15  O   UNL     1       4.819   2.405   0.000  0.00  0.00    -0.220 OA
ENDBRANCH  12  14
BRANCH  12  16
ATOM     16  C   UNL     1       6.292   1.090   0.000  0.00  0.00    +0.185 C 
ATOM     17  O   UNL     1       6.667   0.354   0.000  0.00  0.00    -0.220 OA
ENDBRANCH  12  16
ENDBRANCH   1  10
BRANCH   5  18
ATOM     18  N   UNL     1       1.536  -1.456   0.000  0.00  0.00    -0.291 N 
BRANCH  18  19
ATOM     19  C   UNL     1       1.948  -2.168   0.000  0.00  0.00    +0.108 C 
BRANCH  19  20
ATOM     20  C   UNL     1       2.772  -2.168   0.000  0.00  0.00    +0.127 C 
BRANCH  20  21
ATOM     21  C   UNL     1       3.184  -2.884   0.000  0.00  0.00    +0.075 C 
ATOM     22  N   UNL     1       3.596  -3.596   0.000  0.00  0.00    -0.196 NA
ENDBRANCH  20  21
ENDBRANCH  19  20
ENDBRANCH  18  19
BRANCH  18  23
ATOM     23  C   UNL     1       0.712  -1.456   0.000  0.00  0.00    +0.092 C 
BRANCH  23  24
ATOM     24  C   UNL     1       0.300  -2.168   0.000  0.00  0.00    +0.020 C 
BRANCH  24  25
ATOM     25  C   UNL     1      -0.524  -2.168   0.000  0.00  0.00    +0.002 C 
ATOM     26  C   UNL     1      -0.936  -2.884   0.000  0.00  0.00    +0.000 C 
ENDBRANCH  24  25
BRANCH  24  27
ATOM     27  C   UNL     1       0.712  -2.884   0.000  0.00  0.00    +0.002 C 
ATOM     28  C   UNL     1       0.300  -3.596   0.000  0.00  0.00    +0.000 C 
ENDBRANCH  24  27
ENDBRANCH  23  24
ENDBRANCH  18  23
ENDBRANCH   5  18
TORSDOF 11
