REMARK  Name = 
REMARK  2 active torsions:
REMARK  status: ('A' for Active; 'I' for Inactive)
REMARK    1  A    between atoms: C_5  and  C_7
REMARK    2  A    between atoms: N_10  and  C_12
REMARK                            x       y       z     vdW  Elec       q    Type
REMARK                         _______ _______ _______ _____ _____    ______ ____
ROOT
ATOM      1 CL   UNL     1       0.000   0.000   0.000  0.00  0.00    +0.000 Cl
ENDROOT
TORSDOF 0
REMARK  Name = 
REMARK  2 active torsions:
REMARK  status: ('A' for Active; 'I' for Inactive)
REMARK    1  A    between atoms: C_5  and  C_7
REMARK    2  A    between atoms: N_10  and  C_12
REMARK                            x       y       z     vdW  Elec       q    Type
REMARK                         _______ _______ _______ _____ _____    ______ ____
ROOT
ATOM      1 CL   UNL     1       2.004   0.000   0.000  0.00  0.00    +0.000 Cl
ENDROOT
TORSDOF 0
REMARK  Name = 
REMARK  2 active torsions:
REMARK  status: ('A' for Active; 'I' for Inactive)
REMARK    1  A    between atoms: C_5  and  C_7
REMARK    2  A    between atoms: N_10  and  C_12
REMARK                            x       y       z     vdW  Elec       q    Type
REMARK                         _______ _______ _______ _____ _____    ______ ____
ROOT
ATOM      1  C   UNL     1       0.505  -3.712   0.000  0.00  0.00    +0.157 A 
ATOM      2  N   UNL     1      -0.162  -4.197   0.000  0.00  0.00    -0.165 NA
ATOM      3  N   UNL     1       0.093  -4.982   0.000  0.00  0.00    -0.250 N 
ATOM      4  C   UNL     1       0.918  -4.982   0.000  0.00  0.00    +0.097 A 
ATOM      5  C   UNL     1       1.173  -4.197   0.000  0.00  0.00    +0.046 A 
ENDROOT
BRANCH   3   6
ATOM      6  C   UNL     1      -0.392  -5.649   0.000  0.00  0.00    +0.123 C 
ATOM      7  C   UNL     1      -1.213  -5.563   0.000  0.00  0.00    +0.113 C 
ATOM      8  N   UNL     1      -1.698  -6.231   0.000  0.00  0.00    -0.216 NA
ATOM      9  C   UNL     1      -1.362  -6.984   0.000  0.00  0.00    +0.089 C 
ATOM     10  C   UNL     1      -0.541  -7.071   0.000  0.00  0.00    +0.021 C 
ATOM     11  C   UNL     1      -0.057  -6.403   0.000  0.00  0.00    +0.027 C 
ENDBRANCH   3   6
BRANCH   1  14
ATOM     12  C   UNL     1       1.220  -1.650   0.000  0.00  0.00    +0.139 C 
ATOM     13  N   UNL     1       1.220  -2.475   0.000  0.00  0.00    -0.198 NA
ATOM     14  C   UNL     1       0.505  -2.888   0.000  0.00  0.00    +0.284 C 
ATOM     15  O   UNL     1      -0.209  -2.475   0.000  0.00  0.00    -0.267 OA
ENDBRANCH   1  14
TORSDOF 2
