REMARK  Name = 
REMARK  5 active torsions:
REMARK  status: ('A' for Active; 'I' for Inactive)
REMARK    1  A    between atoms: C_2  and  C_3
REMARK    2  A    between atoms: C_2  and  N_9
REMARK    3  A    between atoms: C_3  and  N_4
REMARK    4  A    between atoms: N_9  and  S_10
REMARK    5  A    between atoms: S_10  and  N_13
REMARK                            x       y       z     vdW  Elec       q    Type
REMARK                         _______ _______ _______ _____ _____    ______ ____
ROOT
ATOM      1  S   UNL     1       3.247  -1.350   0.000  0.00  0.00    +0.116 S 
ATOM      2  O   UNL     1       2.835  -0.636   0.000  0.00  0.00    -0.140 OA
ATOM      3  O   UNL     1       3.660  -2.065   0.000  0.00  0.00    -0.140 OA
ENDROOT
BRANCH   1   4
ATOM      4  N   UNL     1       3.962  -0.938   0.000  0.00  0.00    -0.144 NA
ATOM      5  C   UNL     1       4.643  -1.402   0.000  0.00  0.00    +0.097 C 
ATOM      6  C   UNL     1       5.432  -1.159   0.000  0.00  0.00    +0.019 C 
ATOM      7  C   UNL     1       5.733  -0.391   0.000  0.00  0.00    +0.002 C 
ATOM      8  C   UNL     1       5.321   0.323   0.000  0.00  0.00    +0.002 C 
ATOM      9  C   UNL     1       4.505   0.446   0.000  0.00  0.00    +0.019 C 
ATOM     10  C   UNL     1       3.900  -0.115   0.000  0.00  0.00    +0.097 C 
ENDBRANCH   1   4
BRANCH   1  11
ATOM     11  N   UNL     1       2.533  -1.763   0.000  0.00  0.00    -0.066 NA
BRANCH  11  13
ATOM     12  C   UNL     1       3.247  -3.000   0.000  0.00  0.00    +0.023 C 
ATOM     13  C   UNL     1       2.533  -2.588   0.000  0.00  0.00    +0.123 C 
BRANCH  13  14
ATOM     14  C   UNL     1       1.818  -3.000   0.000  0.00  0.00    +0.147 C 
BRANCH  14  15
ATOM     15  N   UNL     1       1.818  -3.825   0.000  0.00  0.00    -0.248 N 
ATOM     16  N   UNL     1       1.151  -4.310   0.000  0.00  0.00    -0.168 NA
ATOM     17  C   UNL     1       1.406  -5.095   0.000  0.00  0.00    +0.122 A 
ATOM     18  C   UNL     1       2.231  -5.095   0.000  0.00  0.00    +0.043 A 
ATOM     19  C   UNL     1       2.486  -4.310   0.000  0.00  0.00    +0.097 A 
ENDBRANCH  14  15
ENDBRANCH  13  14
ENDBRANCH  11  13
ENDBRANCH   1  11
TORSDOF 5
