REMARK  Name = 
REMARK  5 active torsions:
REMARK  status: ('A' for Active; 'I' for Inactive)
REMARK    1  A    between atoms: C_2  and  C_4
REMARK    2  A    between atoms: C_4  and  O_5
REMARK    3  A    between atoms: O_5  and  C_6
REMARK    4  A    between atoms: C_10  and  N_11
REMARK    5  A    between atoms: N_14  and  C_15
REMARK                            x       y       z     vdW  Elec       q    Type
REMARK                         _______ _______ _______ _____ _____    ______ ____
ROOT
ATOM      1  C   UNL     1       1.841   3.538   0.000  0.00  0.00    +0.226 A 
ATOM      2  N   UNL     1       2.556   3.126   0.000  0.00  0.00    -0.195 NA
ATOM      3  C   UNL     1       3.270   3.538   0.000  0.00  0.00    +0.159 A 
ATOM      4  C   UNL     1       3.270   4.363   0.000  0.00  0.00    +0.036 A 
ATOM      5  C   UNL     1       2.556   4.776   0.000  0.00  0.00    +0.008 A 
ATOM      6  C   UNL     1       1.841   4.363   0.000  0.00  0.00    +0.058 A 
ENDROOT
BRANCH   3   7
ATOM      7  N   UNL     1       3.985   3.126   0.000  0.00  0.00    -0.142 NA
ATOM      8  C   UNL     1       3.985   2.301   0.000  0.00  0.00    +0.345 C 
ATOM      9  N   UNL     1       4.699   1.888   0.000  0.00  0.00    -0.189 NA
ATOM     10  O   UNL     1       3.270   1.888   0.000  0.00  0.00    -0.249 OA
BRANCH   9  11
ATOM     11  C   UNL     1       4.699   1.063   0.000  0.00  0.00    +0.097 C 
ATOM     12  C   UNL     1       4.287   0.349   0.000  0.00  0.00    +0.023 C 
ATOM     13  C   UNL     1       5.112   0.349   0.000  0.00  0.00    +0.023 C 
ENDBRANCH   9  11
ENDBRANCH   3   7
BRANCH   1  14
ATOM     14  O   UNL     1       1.127   3.126   0.000  0.00  0.00    -0.454 OA
BRANCH  14  15
ATOM     15  C   UNL     1       0.412   3.538   0.000  0.00  0.00    +0.279 C 
BRANCH  15  17
ATOM     16  F   UNL     1      -1.016   3.538   0.000  0.00  0.00    -0.194 F 
ATOM     17  C   UNL     1      -0.302   3.126   0.000  0.00  0.00    +0.362 C 
ATOM     18  F   UNL     1      -0.302   2.301   0.000  0.00  0.00    -0.194 F 
ENDBRANCH  15  17
ENDBRANCH  14  15
ENDBRANCH   1  14
TORSDOF 5
