REMARK  Name = 
REMARK  6 active torsions:
REMARK  status: ('A' for Active; 'I' for Inactive)
REMARK    1  A    between atoms: N_10  and  C_11
REMARK    2  A    between atoms: C_11  and  C_12
REMARK    3  A    between atoms: C_12  and  C_14
REMARK    4  A    between atoms: C_14  and  O_15
REMARK    5  A    between atoms: O_15  and  C_16
REMARK    6  A    between atoms: C_16  and  C_17
REMARK                            x       y       z     vdW  Elec       q    Type
REMARK                         _______ _______ _______ _____ _____    ______ ____
ROOT
ATOM      1  C   UNL     1       3.563  -0.793   0.000  0.00  0.00    +0.204 C 
ATOM      2  O   UNL     1       3.563  -1.618   0.000  0.00  0.00    -0.218 OA
ENDROOT
BRANCH   1   3
ATOM      3  C   UNL     1       2.849  -0.381   0.000  0.00  0.00    +0.143 C 
BRANCH   3   6
ATOM      4  C   UNL     1       2.661  -2.166   0.000  0.00  0.00    +0.072 C 
ATOM      5  C   UNL     1       2.048  -1.613   0.000  0.00  0.00    +0.121 A 
ATOM      6  N   UNL     1       2.135  -0.793   0.000  0.00  0.00    -0.312 N 
ATOM      7  C   UNL     1       1.381  -0.457   0.000  0.00  0.00    +0.079 A 
ATOM      8  C   UNL     1       0.829  -1.071   0.000  0.00  0.00    +0.098 A 
ATOM      9  C   UNL     1       0.022  -0.899   0.000  0.00  0.00    +0.021 A 
ATOM     10  C   UNL     1      -0.233  -0.114   0.000  0.00  0.00    +0.002 A 
ATOM     11  C   UNL     1       0.319   0.499   0.000  0.00  0.00    +0.002 A 
ATOM     12  C   UNL     1       1.126   0.327   0.000  0.00  0.00    +0.019 A 
ATOM     13  N   UNL     1       1.241  -1.785   0.000  0.00  0.00    -0.231 NA
ENDBRANCH   3   6
ENDBRANCH   1   3
BRANCH   1  14
ATOM     14  C   UNL     1       4.278  -0.381   0.000  0.00  0.00    +0.177 C 
BRANCH  14  15
ATOM     15  O   UNL     1       4.992  -0.793   0.000  0.00  0.00    -0.346 OA
BRANCH  15  16
ATOM     16  C   UNL     1       5.707  -0.381   0.000  0.00  0.00    +0.171 C 
BRANCH  16  17
ATOM     17  C   UNL     1       6.421  -0.793   0.000  0.00  0.00    +0.035 A 
ATOM     18  C   UNL     1       6.421  -1.618   0.000  0.00  0.00    +0.138 A 
ATOM     19  F   UNL     1       5.707  -2.030   0.000  0.00  0.00    -0.204 F 
ATOM     20  C   UNL     1       7.136  -2.030   0.000  0.00  0.00    +0.029 A 
ATOM     21  C   UNL     1       7.850  -1.618   0.000  0.00  0.00    +0.002 A 
ATOM     22  C   UNL     1       7.850  -0.793   0.000  0.00  0.00    -0.000 A 
ATOM     23  C   UNL     1       7.136  -0.381   0.000  0.00  0.00    +0.000 A 
ENDBRANCH  16  17
ENDBRANCH  15  16
ENDBRANCH  14  15
ENDBRANCH   1  14
TORSDOF 6
