REMARK  Name = 
REMARK  6 active torsions:
REMARK  status: ('A' for Active; 'I' for Inactive)
REMARK    1  A    between atoms: C_2  and  C_5
REMARK    2  A    between atoms: N_10  and  C_11
REMARK    3  A    between atoms: C_11  and  C_12
REMARK    4  A    between atoms: N_14  and  C_15
REMARK    5  A    between atoms: C_15  and  C_16
REMARK    6  A    between atoms: C_16  and  C_17
REMARK                            x       y       z     vdW  Elec       q    Type
REMARK                         _______ _______ _______ _____ _____    ______ ____
ROOT
ATOM      1  C   UNL     1       2.143  -3.712   0.000  0.00  0.00    +0.196 C 
ENDROOT
BRANCH   1   4
ATOM      2  C   UNL     1       0.715  -5.362   0.000  0.00  0.00    +0.089 A 
ATOM      3  C   UNL     1       1.429  -4.950   0.000  0.00  0.00    +0.083 A 
ATOM      4  N   UNL     1       1.429  -4.125   0.000  0.00  0.00    -0.285 N 
ATOM      5  C   UNL     1       0.715  -3.712   0.000  0.00  0.00    +0.261 A 
ATOM      6  O   UNL     1       0.715  -2.888   0.000  0.00  0.00    -0.267 OA
ATOM      7  C   UNL     1       0.000  -4.125   0.000  0.00  0.00    +0.061 A 
ATOM      8  C   UNL     1       0.000  -4.950   0.000  0.00  0.00    +0.010 A 
BRANCH   2  10
ATOM      9  F   UNL     1       0.715  -7.013   0.000  0.00  0.00    -0.166 F 
ATOM     10  C   UNL     1       0.715  -6.188   0.000  0.00  0.00    +0.420 C 
ATOM     11  F   UNL     1      -0.111  -6.188   0.000  0.00  0.00    -0.166 F 
ATOM     12  F   UNL     1       1.540  -6.188   0.000  0.00  0.00    -0.166 F 
ENDBRANCH   2  10
ENDBRANCH   1   4
BRANCH   1  13
ATOM     13  C   UNL     1       2.858  -4.125   0.000  0.00  0.00    +0.265 C 
ATOM     14  N   UNL     1       3.572  -3.712   0.000  0.00  0.00    -0.203 NA
ATOM     15  O   UNL     1       2.858  -4.950   0.000  0.00  0.00    -0.271 OA
BRANCH  14  16
ATOM     16  C   UNL     1       4.287  -4.125   0.000  0.00  0.00    +0.120 C 
BRANCH  16  17
ATOM     17  C   UNL     1       5.001  -3.712   0.000  0.00  0.00    +0.045 C 
BRANCH  17  18
ATOM     18  C   UNL     1       5.716  -4.125   0.000  0.00  0.00    -0.047 C 
ATOM     19  C   UNL     1       5.716  -4.950   0.000  0.00  0.00    +0.022 C 
ATOM     20  C   UNL     1       6.430  -5.362   0.000  0.00  0.00    +0.005 C 
ATOM     21  C   UNL     1       7.145  -4.950   0.000  0.00  0.00    +0.005 C 
ATOM     22  C   UNL     1       7.145  -4.125   0.000  0.00  0.00    +0.025 C 
ATOM     23  C   UNL     1       6.430  -3.712   0.000  0.00  0.00    -0.035 C 
ENDBRANCH  17  18
ENDBRANCH  16  17
ENDBRANCH  14  16
ENDBRANCH   1  13
TORSDOF 6
