REMARK  Name = 
REMARK  2 active torsions:
REMARK  status: ('A' for Active; 'I' for Inactive)
REMARK    1  A    between atoms: C_2  and  C_3
REMARK    2  A    between atoms: C_4  and  N_5
REMARK                            x       y       z     vdW  Elec       q    Type
REMARK                         _______ _______ _______ _____ _____    ______ ____
ROOT
ATOM      1  C   UNL     1       0.164   0.542   0.000  0.00  0.00    +0.053 C 
ATOM      2  C   UNL     1       0.878   0.954   0.000  0.00  0.00    +0.004 C 
ATOM      3  C   UNL     1       0.672   0.129   0.000  0.00  0.00    +0.002 C 
ATOM      4  C   UNL     1       0.878  -0.696   0.000  0.00  0.00    +0.020 C 
ATOM      5  C   UNL     1       1.593  -0.283   0.000  0.00  0.00    +0.002 C 
ATOM      6  C   UNL     1       1.593   0.542   0.000  0.00  0.00    +0.000 C 
ATOM      7  C   UNL     1       0.164  -0.283   0.000  0.00  0.00    +0.099 C 
ENDROOT
BRANCH   7   8
ATOM      8  N   UNL     1      -0.551  -0.696   0.000  0.00  0.00    -0.189 NA
ATOM      9  C   UNL     1      -1.265  -0.283   0.000  0.00  0.00    +0.345 C 
ATOM     10  N   UNL     1      -1.980  -0.696   0.000  0.00  0.00    -0.134 NA
ATOM     11  C   UNL     1      -2.694  -0.283   0.000  0.00  0.00    +0.209 A 
ATOM     12  S   UNL     1      -2.781   0.537   0.000  0.00  0.00    -0.027 S 
ATOM     13  C   UNL     1      -3.588   0.709   0.000  0.00  0.00    +0.161 A 
ATOM     14  N   UNL     1      -4.000  -0.006   0.000  0.00  0.00    -0.137 NA
ATOM     15  N   UNL     1      -3.448  -0.619   0.000  0.00  0.00    -0.123 NA
ATOM     16  O   UNL     1      -1.265   0.542   0.000  0.00  0.00    -0.249 OA
ENDBRANCH   7   8
BRANCH   1  18
ATOM     17  O   UNL     1      -0.551   1.779   0.000  0.00  0.00    -0.220 OA
ATOM     18  C   UNL     1      -0.551   0.954   0.000  0.00  0.00    +0.184 C 
ENDBRANCH   1  18
TORSDOF 2
