REMARK  Name = 
REMARK  3 active torsions:
REMARK  status: ('A' for Active; 'I' for Inactive)
REMARK    1  A    between atoms: C_7  and  N_8
REMARK    2  A    between atoms: N_11  and  C_12
REMARK    3  A    between atoms: C_12  and  C_13
REMARK                            x       y       z     vdW  Elec       q    Type
REMARK                         _______ _______ _______ _____ _____    ______ ____
ROOT
ATOM      1  N   UNL     1      -1.873  -1.121   0.000  0.00  0.00    -0.142 NA
ATOM      2  C   UNL     1      -1.159  -1.533   0.000  0.00  0.00    +0.345 C 
ATOM      3  N   UNL     1      -0.444  -1.121   0.000  0.00  0.00    -0.184 NA
ATOM      4  O   UNL     1      -1.159  -2.358   0.000  0.00  0.00    -0.249 OA
ENDROOT
BRANCH   1   7
ATOM      5  C   UNL     1      -1.873  -2.771   0.000  0.00  0.00    +0.034 C 
ATOM      6  C   UNL     1      -2.587  -2.358   0.000  0.00  0.00    +0.012 A 
ATOM      7  C   UNL     1      -2.587  -1.533   0.000  0.00  0.00    +0.152 A 
ATOM      8  N   UNL     1      -3.302  -1.121   0.000  0.00  0.00    -0.228 NA
ATOM      9  C   UNL     1      -4.016  -1.533   0.000  0.00  0.00    +0.100 A 
ATOM     10  C   UNL     1      -4.016  -2.358   0.000  0.00  0.00    +0.020 A 
ATOM     11  C   UNL     1      -3.302  -2.771   0.000  0.00  0.00    +0.000 A 
ENDBRANCH   1   7
BRANCH   3  12
ATOM     12  C   UNL     1       0.270  -1.533   0.000  0.00  0.00    +0.147 C 
BRANCH  12  13
ATOM     13  C   UNL     1       0.985  -1.121   0.000  0.00  0.00    +0.147 C 
ATOM     14  C   UNL     1       1.797  -0.978   0.000  0.00  0.00    +0.032 C 
ATOM     15  C   UNL     1       2.079  -0.202   0.000  0.00  0.00    +0.003 C 
ATOM     16  C   UNL     1       1.549   0.430   0.000  0.00  0.00    +0.000 C 
ATOM     17  C   UNL     1       0.737   0.286   0.000  0.00  0.00    +0.003 C 
ATOM     18  C   UNL     1       0.455  -0.489   0.000  0.00  0.00    +0.032 C 
ATOM     19  O   UNL     1       1.267  -1.896   0.000  0.00  0.00    -0.224 OA
ENDBRANCH  12  13
ENDBRANCH   3  12
TORSDOF 3
