REMARK  Name = 
REMARK  3 active torsions:
REMARK  status: ('A' for Active; 'I' for Inactive)
REMARK    1  A    between atoms: N_8  and  C_9
REMARK    2  A    between atoms: C_9  and  C_10
REMARK    3  A    between atoms: C_10  and  N_11
REMARK                            x       y       z     vdW  Elec       q    Type
REMARK                         _______ _______ _______ _____ _____    ______ ____
ROOT
ATOM      1  C   UNL     1      -1.537  -4.653   0.000  0.00  0.00    +0.075 C 
ATOM      2  C   UNL     1      -0.716  -4.740   0.000  0.00  0.00    +0.156 A 
ATOM      3  O   UNL     1      -0.304  -5.454   0.000  0.00  0.00    -0.356 OA
ATOM      4  N   UNL     1       0.503  -5.283   0.000  0.00  0.00    -0.060 NA
ATOM      5  C   UNL     1       0.589  -4.462   0.000  0.00  0.00    +0.197 A 
ATOM      6  N   UNL     1       1.304  -4.050   0.000  0.00  0.00    -0.139 NA
ATOM      7  C   UNL     1       2.018  -4.462   0.000  0.00  0.00    +0.345 C 
ATOM      8  N   UNL     1       2.733  -4.050   0.000  0.00  0.00    -0.185 NA
ATOM      9  O   UNL     1       2.018  -5.287   0.000  0.00  0.00    -0.249 OA
ATOM     10  C   UNL     1      -0.164  -4.127   0.000  0.00  0.00    +0.075 A 
ENDROOT
BRANCH   8  11
ATOM     11  C   UNL     1       3.447  -4.462   0.000  0.00  0.00    +0.138 C 
BRANCH  11  12
ATOM     12  C   UNL     1       4.162  -4.050   0.000  0.00  0.00    +0.117 C 
BRANCH  12  13
ATOM     13  N   UNL     1       4.876  -4.462   0.000  0.00  0.00    -0.278 N 
ATOM     14  C   UNL     1       4.814  -5.285   0.000  0.00  0.00    +0.226 C 
ATOM     15  O   UNL     1       4.046  -5.586   0.000  0.00  0.00    -0.275 OA
ATOM     16  C   UNL     1       5.419  -5.846   0.000  0.00  0.00    +0.085 C 
ATOM     17  C   UNL     1       6.235  -5.723   0.000  0.00  0.00    +0.010 C 
ATOM     18  C   UNL     1       6.648  -5.008   0.000  0.00  0.00    +0.002 C 
ATOM     19  C   UNL     1       6.346  -4.240   0.000  0.00  0.00    +0.022 C 
ATOM     20  C   UNL     1       5.558  -3.997   0.000  0.00  0.00    +0.093 C 
ENDBRANCH  12  13
ENDBRANCH  11  12
ENDBRANCH   8  11
TORSDOF 3
