REMARK  Name = 
REMARK  4 active torsions:
REMARK  status: ('A' for Active; 'I' for Inactive)
REMARK    1  A    between atoms: C_2  and  C_3
REMARK    2  A    between atoms: C_2  and  C_19
REMARK    3  A    between atoms: C_3  and  N_4
REMARK    4  A    between atoms: N_7  and  C_8
REMARK                            x       y       z     vdW  Elec       q    Type
REMARK                         _______ _______ _______ _____ _____    ______ ____
ROOT
ATOM      1  N   UNL     1       0.715  -3.712   0.000  0.00  0.00    -0.187 NA
ATOM      2  C   UNL     1       1.429  -3.300   0.000  0.00  0.00    +0.339 C 
ATOM      3  N   UNL     1       2.143  -3.712   0.000  0.00  0.00    -0.189 NA
ATOM      4  O   UNL     1       1.429  -2.475   0.000  0.00  0.00    -0.249 OA
ENDROOT
BRANCH   3   5
ATOM      5  C   UNL     1       2.858  -3.300   0.000  0.00  0.00    +0.102 C 
ATOM      6  C   UNL     1       3.572  -3.712   0.000  0.00  0.00    +0.049 C 
ATOM      7  C   UNL     1       4.287  -3.300   0.000  0.00  0.00    +0.094 C 
ATOM      8  C   UNL     1       4.287  -4.125   0.000  0.00  0.00    +0.027 C 
ATOM      9  C   UNL     1       5.001  -4.537   0.000  0.00  0.00    +0.002 C 
ATOM     10  C   UNL     1       5.716  -4.125   0.000  0.00  0.00    +0.000 C 
ATOM     11  C   UNL     1       5.716  -3.300   0.000  0.00  0.00    +0.002 C 
ATOM     12  C   UNL     1       5.001  -2.888   0.000  0.00  0.00    +0.027 C 
ATOM     13  O   UNL     1       4.287  -2.475   0.000  0.00  0.00    -0.358 OA
ATOM     14  C   UNL     1       3.572  -2.062   0.000  0.00  0.00    +0.144 C 
ATOM     15  C   UNL     1       2.858  -2.475   0.000  0.00  0.00    +0.054 C 
ENDBRANCH   3   5
BRANCH   1  16
ATOM     16  C   UNL     1       0.000  -3.300   0.000  0.00  0.00    +0.121 C 
BRANCH  16  18
ATOM     17  C   UNL     1      -0.715  -4.537   0.000  0.00  0.00    +0.007 C 
ATOM     18  C   UNL     1      -0.715  -3.712   0.000  0.00  0.00    +0.044 C 
BRANCH  18  19
ATOM     19  C   UNL     1      -1.429  -3.300   0.000  0.00  0.00    -0.018 A 
ATOM     20  C   UNL     1      -1.429  -2.475   0.000  0.00  0.00    +0.016 A 
ATOM     21  C   UNL     1      -2.143  -2.062   0.000  0.00  0.00    +0.099 A 
ATOM     22  N   UNL     1      -2.858  -2.475   0.000  0.00  0.00    -0.242 NA
ATOM     23  C   UNL     1      -2.858  -3.300   0.000  0.00  0.00    +0.099 A 
ATOM     24  C   UNL     1      -2.143  -3.712   0.000  0.00  0.00    +0.016 A 
ENDBRANCH  18  19
ENDBRANCH  16  18
ENDBRANCH   1  16
TORSDOF 4
