REMARK  Name = 
REMARK  2 active torsions:
REMARK  status: ('A' for Active; 'I' for Inactive)
REMARK    1  A    between atoms: N_10  and  C_11
REMARK    2  A    between atoms: C_11  and  C_12
REMARK                            x       y       z     vdW  Elec       q    Type
REMARK                         _______ _______ _______ _____ _____    ______ ____
ROOT
ATOM      1  C   UNL     1       4.067   2.348   0.000  0.00  0.00    +0.138 C 
ATOM      2  N   UNL     1       3.352   1.935   0.000  0.00  0.00    -0.245 N 
ATOM      3  C   UNL     1       2.638   2.348   0.000  0.00  0.00    +0.283 A 
ATOM      4  O   UNL     1       2.638   3.173   0.000  0.00  0.00    -0.265 OA
ATOM      5  C   UNL     1       1.923   1.935   0.000  0.00  0.00    +0.153 A 
ATOM      6  C   UNL     1       1.923   1.110   0.000  0.00  0.00    +0.170 A 
ATOM      7  N   UNL     1       1.139   0.856   0.000  0.00  0.00    -0.206 NA
ATOM      8  C   UNL     1       0.654   1.523   0.000  0.00  0.00    +0.180 A 
ATOM      9  N   UNL     1       2.638   0.698   0.000  0.00  0.00    -0.263 N 
ATOM     10  C   UNL     1       2.638  -0.127   0.000  0.00  0.00    +0.137 C 
ATOM     11  N   UNL     1       1.139   2.190   0.000  0.00  0.00    -0.302 N 
ATOM     12  C   UNL     1       3.352   1.110   0.000  0.00  0.00    +0.335 A 
ATOM     13  O   UNL     1       4.067   0.698   0.000  0.00  0.00    -0.246 OA
ENDROOT
BRANCH  11  14
ATOM     14  C   UNL     1       0.884   2.975   0.000  0.00  0.00    +0.138 C 
BRANCH  14  15
ATOM     15  C   UNL     1       0.077   3.147   0.000  0.00  0.00    +0.147 C 
ATOM     16  C   UNL     1      -0.623   3.584   0.000  0.00  0.00    +0.032 C 
ATOM     17  C   UNL     1      -1.351   3.196   0.000  0.00  0.00    +0.003 C 
ATOM     18  C   UNL     1      -1.380   2.372   0.000  0.00  0.00    +0.000 C 
ATOM     19  C   UNL     1      -0.680   1.935   0.000  0.00  0.00    +0.003 C 
ATOM     20  C   UNL     1       0.048   2.322   0.000  0.00  0.00    +0.032 C 
ATOM     21  O   UNL     1       0.386   3.912   0.000  0.00  0.00    -0.224 OA
ENDBRANCH  14  15
ENDBRANCH  11  14
TORSDOF 2
