REMARK  Name = 
REMARK  7 active torsions:
REMARK  status: ('A' for Active; 'I' for Inactive)
REMARK    1  A    between atoms: N_5  and  C_6
REMARK    2  A    between atoms: C_6  and  C_7
REMARK    3  A    between atoms: N_9  and  C_10
REMARK    4  A    between atoms: C_10  and  C_11
REMARK    5  A    between atoms: C_11  and  C_12
REMARK    6  A    between atoms: C_12  and  O_13
REMARK    7  A    between atoms: O_13  and  C_14
REMARK                            x       y       z     vdW  Elec       q    Type
REMARK                         _______ _______ _______ _____ _____    ______ ____
ROOT
ATOM      1  C   UNL     1       3.572  -5.362   0.000  0.00  0.00    +0.265 C 
ATOM      2  N   UNL     1       4.287  -4.950   0.000  0.00  0.00    -0.204 NA
ATOM      3  O   UNL     1       3.572  -6.188   0.000  0.00  0.00    -0.271 OA
ENDROOT
BRANCH   2   4
ATOM      4  C   UNL     1       5.001  -5.362   0.000  0.00  0.00    +0.118 C 
BRANCH   4   5
ATOM      5  C   UNL     1       5.716  -4.950   0.000  0.00  0.00    +0.055 C 
BRANCH   5   6
ATOM      6  C   UNL     1       6.430  -5.362   0.000  0.00  0.00    +0.144 C 
BRANCH   6   7
ATOM      7  O   UNL     1       7.145  -4.950   0.000  0.00  0.00    -0.356 OA
BRANCH   7   8
ATOM      8  C   UNL     1       7.859  -5.362   0.000  0.00  0.00    +0.115 C 
ATOM      9  C   UNL     1       7.859  -6.188   0.000  0.00  0.00    +0.030 C 
ATOM     10  C   UNL     1       8.574  -6.600   0.000  0.00  0.00    +0.002 C 
ATOM     11  C   UNL     1       9.288  -6.188   0.000  0.00  0.00    +0.000 C 
ATOM     12  C   UNL     1       9.288  -5.362   0.000  0.00  0.00    +0.002 C 
ATOM     13  C   UNL     1       8.574  -4.950   0.000  0.00  0.00    +0.030 C 
ENDBRANCH   7   8
ENDBRANCH   6   7
ENDBRANCH   5   6
ENDBRANCH   4   5
ENDBRANCH   2   4
BRANCH   1  14
ATOM     14  C   UNL     1       2.858  -4.950   0.000  0.00  0.00    +0.196 C 
BRANCH  14  20
ATOM     15  C   UNL     1       0.000  -6.600   0.000  0.00  0.00    +0.031 C 
ATOM     16  C   UNL     1       0.715  -6.188   0.000  0.00  0.00    -0.016 A 
ATOM     17  C   UNL     1       1.429  -6.600   0.000  0.00  0.00    +0.057 A 
ATOM     18  C   UNL     1       2.143  -6.188   0.000  0.00  0.00    +0.261 A 
ATOM     19  O   UNL     1       2.858  -6.600   0.000  0.00  0.00    -0.267 OA
ATOM     20  N   UNL     1       2.143  -5.362   0.000  0.00  0.00    -0.285 N 
ATOM     21  C   UNL     1       1.429  -4.950   0.000  0.00  0.00    +0.078 A 
ATOM     22  C   UNL     1       0.715  -5.362   0.000  0.00  0.00    +0.015 A 
ENDBRANCH  14  20
ENDBRANCH   1  14
TORSDOF 7
