REMARK  Name = 
REMARK  5 active torsions:
REMARK  status: ('A' for Active; 'I' for Inactive)
REMARK    1  A    between atoms: C_2  and  C_3
REMARK    2  A    between atoms: C_2  and  N_15
REMARK    3  A    between atoms: N_5  and  C_6
REMARK    4  A    between atoms: C_6  and  C_7
REMARK    5  A    between atoms: C_7  and  C_8
REMARK                            x       y       z     vdW  Elec       q    Type
REMARK                         _______ _______ _______ _____ _____    ______ ____
ROOT
ATOM      1  C   UNL     1      -0.064  -2.452   0.000  0.00  0.00    +0.262 C 
ATOM      2  N   UNL     1       0.650  -2.864   0.000  0.00  0.00    -0.204 NA
ATOM      3  O   UNL     1      -0.064  -1.627   0.000  0.00  0.00    -0.271 OA
ENDROOT
BRANCH   1   5
ATOM      4  C   UNL     1      -0.778  -3.689   0.000  0.00  0.00    +0.035 C 
ATOM      5  C   UNL     1      -0.778  -2.864   0.000  0.00  0.00    +0.165 C 
BRANCH   5   6
ATOM      6  N   UNL     1      -1.493  -2.452   0.000  0.00  0.00    -0.301 N 
ATOM      7  C   UNL     1      -1.579  -1.631   0.000  0.00  0.00    +0.179 A 
ATOM      8  N   UNL     1      -2.386  -1.460   0.000  0.00  0.00    -0.222 NA
ATOM      9  C   UNL     1      -2.799  -2.174   0.000  0.00  0.00    +0.119 A 
ATOM     10  C   UNL     1      -2.247  -2.787   0.000  0.00  0.00    +0.098 A 
ENDBRANCH   5   6
ENDBRANCH   1   5
BRANCH   2  11
ATOM     11  C   UNL     1       1.365  -2.452   0.000  0.00  0.00    +0.118 C 
BRANCH  11  12
ATOM     12  C   UNL     1       2.079  -2.864   0.000  0.00  0.00    +0.051 C 
ATOM     13  C   UNL     1       2.610  -3.496   0.000  0.00  0.00    +0.004 C 
ATOM     14  C   UNL     1       3.422  -3.353   0.000  0.00  0.00    +0.000 C 
ATOM     15  C   UNL     1       3.704  -2.578   0.000  0.00  0.00    +0.000 C 
ATOM     16  C   UNL     1       3.174  -1.946   0.000  0.00  0.00    +0.000 C 
ATOM     17  C   UNL     1       2.362  -2.089   0.000  0.00  0.00    +0.004 C 
BRANCH  12  18
ATOM     18  C   UNL     1       1.549  -3.496   0.000  0.00  0.00    +0.184 C 
ATOM     19  O   UNL     1       1.831  -4.271   0.000  0.00  0.00    -0.220 OA
ENDBRANCH  12  18
ENDBRANCH  11  12
ENDBRANCH   2  11
TORSDOF 5
