REMARK  Name = 
REMARK  3 active torsions:
REMARK  status: ('A' for Active; 'I' for Inactive)
REMARK    1  A    between atoms: C_2  and  C_4
REMARK    2  A    between atoms: C_8  and  N_9
REMARK    3  A    between atoms: N_12  and  C_13
REMARK                            x       y       z     vdW  Elec       q    Type
REMARK                         _______ _______ _______ _____ _____    ______ ____
ROOT
ATOM      1  N   UNL     1       4.203  -2.767   0.000  0.00  0.00    -0.188 NA
ATOM      2  C   UNL     1       4.816  -3.319   0.000  0.00  0.00    +0.343 C 
ATOM      3  N   UNL     1       5.601  -3.064   0.000  0.00  0.00    -0.161 NA
ATOM      4  O   UNL     1       4.645  -4.126   0.000  0.00  0.00    -0.249 OA
ENDROOT
BRANCH   3   5
ATOM      5  C   UNL     1       6.214  -3.616   0.000  0.00  0.00    +0.078 A 
ATOM      6  C   UNL     1       6.043  -4.423   0.000  0.00  0.00    +0.037 A 
ATOM      7  C   UNL     1       6.656  -4.975   0.000  0.00  0.00    +0.100 A 
ATOM      8  N   UNL     1       7.440  -4.720   0.000  0.00  0.00    -0.242 NA
ATOM      9  C   UNL     1       7.612  -3.913   0.000  0.00  0.00    +0.100 A 
ATOM     10  C   UNL     1       6.999  -3.361   0.000  0.00  0.00    +0.037 A 
ENDBRANCH   3   5
BRANCH   1  12
ATOM     11  C   UNL     1       2.751  -2.537   0.000  0.00  0.00    +0.100 C 
ATOM     12  C   UNL     1       3.419  -3.022   0.000  0.00  0.00    +0.106 C 
ATOM     13  C   UNL     1       3.164  -3.806   0.000  0.00  0.00    +0.022 C 
ATOM     14  C   UNL     1       2.339  -3.806   0.000  0.00  0.00    +0.002 C 
ATOM     15  C   UNL     1       2.084  -3.022   0.000  0.00  0.00    +0.011 C 
BRANCH  11  17
ATOM     16  N   UNL     1       2.037  -1.299   0.000  0.00  0.00    -0.088 NA
ATOM     17  C   UNL     1       2.751  -1.712   0.000  0.00  0.00    +0.262 C 
ATOM     18  O   UNL     1       3.466  -1.299   0.000  0.00  0.00    -0.272 OA
ENDBRANCH  11  17
ENDBRANCH   1  12
TORSDOF 3
