REMARK  Name = 
REMARK  5 active torsions:
REMARK  status: ('A' for Active; 'I' for Inactive)
REMARK    1  A    between atoms: C_2  and  O_3
REMARK    2  A    between atoms: O_3  and  C_4
REMARK    3  A    between atoms: C_6  and  N_7
REMARK    4  A    between atoms: N_10  and  C_11
REMARK    5  A    between atoms: C_17  and  O_18
REMARK                            x       y       z     vdW  Elec       q    Type
REMARK                         _______ _______ _______ _____ _____    ______ ____
ROOT
ATOM      1  N   UNL     1      -1.934  -3.350   0.000  0.00  0.00    -0.186 NA
ATOM      2  C   UNL     1      -2.649  -3.763   0.000  0.00  0.00    +0.344 C 
ATOM      3  N   UNL     1      -2.649  -4.588   0.000  0.00  0.00    -0.161 NA
ATOM      4  O   UNL     1      -3.363  -3.350   0.000  0.00  0.00    -0.249 OA
ENDROOT
BRANCH   3   5
ATOM      5  C   UNL     1      -1.934  -5.000   0.000  0.00  0.00    +0.078 A 
ATOM      6  C   UNL     1      -1.934  -5.825   0.000  0.00  0.00    +0.037 A 
ATOM      7  C   UNL     1      -1.220  -6.237   0.000  0.00  0.00    +0.100 A 
ATOM      8  N   UNL     1      -0.505  -5.825   0.000  0.00  0.00    -0.242 NA
ATOM      9  C   UNL     1      -0.505  -5.000   0.000  0.00  0.00    +0.100 A 
ATOM     10  C   UNL     1      -1.220  -4.588   0.000  0.00  0.00    +0.037 A 
ENDBRANCH   3   5
BRANCH   1  13
ATOM     11  C   UNL     1      -1.934  -1.358   0.000  0.00  0.00    +0.146 C 
ATOM     12  C   UNL     1      -2.518  -1.942   0.000  0.00  0.00    +0.162 C 
ATOM     13  C   UNL     1      -1.934  -2.525   0.000  0.00  0.00    +0.129 C 
ATOM     14  C   UNL     1      -1.351  -1.942   0.000  0.00  0.00    +0.056 C 
BRANCH  12  15
ATOM     15  O   UNL     1      -3.342  -1.942   0.000  0.00  0.00    -0.349 OA
ATOM     16  C   UNL     1      -3.755  -1.227   0.000  0.00  0.00    +0.174 C 
ENDBRANCH  12  15
BRANCH  11  17
ATOM     17  O   UNL     1      -1.934  -0.533   0.000  0.00  0.00    -0.354 OA
BRANCH  17  19
ATOM     18  C   UNL     1      -2.649   0.704   0.000  0.00  0.00    +0.035 C 
ATOM     19  C   UNL     1      -2.649  -0.121   0.000  0.00  0.00    +0.142 C 
ENDBRANCH  17  19
ENDBRANCH  11  17
ENDBRANCH   1  13
TORSDOF 5
