REMARK  Name = 
REMARK  5 active torsions:
REMARK  status: ('A' for Active; 'I' for Inactive)
REMARK    1  A    between atoms: C_5  and  N_8
REMARK    2  A    between atoms: C_9  and  C_11
REMARK    3  A    between atoms: C_11  and  N_12
REMARK    4  A    between atoms: C_13  and  C_15
REMARK    5  A    between atoms: C_15  and  N_16
REMARK                            x       y       z     vdW  Elec       q    Type
REMARK                         _______ _______ _______ _____ _____    ______ ____
ROOT
ATOM      1  N   UNL     1      -0.715   2.062   0.000  0.00  0.00    -0.206 NA
ATOM      2  C   UNL     1       0.000   2.475   0.000  0.00  0.00    +0.263 C 
ATOM      3  O   UNL     1       0.000   3.300   0.000  0.00  0.00    -0.271 OA
ENDROOT
BRANCH   1   8
ATOM      4  C   UNL     1      -3.572   3.712   0.000  0.00  0.00    +0.000 C 
ATOM      5  C   UNL     1      -2.858   3.300   0.000  0.00  0.00    +0.000 C 
ATOM      6  C   UNL     1      -2.858   2.475   0.000  0.00  0.00    +0.002 C 
ATOM      7  C   UNL     1      -2.143   2.062   0.000  0.00  0.00    +0.022 C 
ATOM      8  C   UNL     1      -1.429   2.475   0.000  0.00  0.00    +0.095 C 
ATOM      9  C   UNL     1      -1.429   3.300   0.000  0.00  0.00    +0.022 C 
ATOM     10  C   UNL     1      -2.143   3.712   0.000  0.00  0.00    +0.002 C 
ENDBRANCH   1   8
BRANCH   2  11
ATOM     11  C   UNL     1       0.715   2.062   0.000  0.00  0.00    +0.201 C 
BRANCH  11  12
ATOM     12  N   UNL     1       1.429   2.475   0.000  0.00  0.00    -0.194 NA
ATOM     13  C   UNL     1       2.143   2.062   0.000  0.00  0.00    +0.267 C 
ATOM     14  O   UNL     1       2.143   1.238   0.000  0.00  0.00    -0.271 OA
BRANCH  13  15
ATOM     15  C   UNL     1       2.858   2.475   0.000  0.00  0.00    +0.215 C 
BRANCH  15  16
ATOM     16  N   UNL     1       3.572   2.062   0.000  0.00  0.00    -0.221 N 
ATOM     17  N   UNL     1       3.659   1.242   0.000  0.00  0.00    -0.145 NA
ATOM     18  C   UNL     1       4.466   1.071   0.000  0.00  0.00    +0.221 A 
ATOM     19  N   UNL     1       4.878   1.785   0.000  0.00  0.00    -0.201 NA
ATOM     20  C   UNL     1       4.326   2.398   0.000  0.00  0.00    +0.198 A 
ENDBRANCH  15  16
ENDBRANCH  13  15
ENDBRANCH  11  12
ENDBRANCH   2  11
TORSDOF 5
