REMARK  Name = 
REMARK  4 active torsions:
REMARK  status: ('A' for Active; 'I' for Inactive)
REMARK    1  A    between atoms: C_2  and  C_4
REMARK    2  A    between atoms: C_9  and  N_12
REMARK    3  A    between atoms: N_15  and  C_16
REMARK    4  A    between atoms: C_19  and  C_22
REMARK                            x       y       z     vdW  Elec       q    Type
REMARK                         _______ _______ _______ _____ _____    ______ ____
ROOT
ATOM      1  N   UNL     1      -2.143  -3.712   0.000  0.00  0.00    -0.189 NA
ATOM      2  C   UNL     1      -2.858  -4.125   0.000  0.00  0.00    +0.344 C 
ATOM      3  N   UNL     1      -2.858  -4.950   0.000  0.00  0.00    -0.158 NA
ATOM      4  O   UNL     1      -3.572  -3.712   0.000  0.00  0.00    -0.249 OA
ENDROOT
BRANCH   1   9
ATOM      5  C   UNL     1      -2.143  -0.412   0.000  0.00  0.00    +0.225 C 
ATOM      6  N   UNL     1      -2.143  -1.238   0.000  0.00  0.00    -0.279 N 
ATOM      7  C   UNL     1      -2.858  -1.650   0.000  0.00  0.00    +0.095 C 
ATOM      8  C   UNL     1      -2.858  -2.475   0.000  0.00  0.00    +0.043 C 
ATOM      9  C   UNL     1      -2.143  -2.888   0.000  0.00  0.00    +0.100 C 
ATOM     10  C   UNL     1      -1.429  -2.475   0.000  0.00  0.00    +0.043 C 
ATOM     11  C   UNL     1      -1.429  -1.650   0.000  0.00  0.00    +0.095 C 
ATOM     12  O   UNL     1      -1.429   0.000   0.000  0.00  0.00    -0.275 OA
BRANCH   5  14
ATOM     13  C   UNL     1      -2.858   0.825   0.000  0.00  0.00    +0.010 C 
ATOM     14  C   UNL     1      -2.858   0.000   0.000  0.00  0.00    +0.077 C 
ATOM     15  C   UNL     1      -3.572  -0.412   0.000  0.00  0.00    +0.010 C 
ENDBRANCH   5  14
ENDBRANCH   1   9
BRANCH   3  16
ATOM     16  C   UNL     1      -2.143  -5.362   0.000  0.00  0.00    +0.113 A 
ATOM     17  C   UNL     1      -2.143  -6.188   0.000  0.00  0.00    +0.118 A 
ATOM     18  N   UNL     1      -1.429  -6.600   0.000  0.00  0.00    -0.228 NA
ATOM     19  C   UNL     1      -0.715  -6.188   0.000  0.00  0.00    +0.138 A 
ATOM     20  N   UNL     1      -0.715  -5.362   0.000  0.00  0.00    -0.228 NA
ATOM     21  C   UNL     1      -1.429  -4.950   0.000  0.00  0.00    +0.118 A 
BRANCH  19  22
ATOM     22  C   UNL     1       0.000  -6.600   0.000  0.00  0.00    +0.052 C 
ATOM     23  C   UNL     1       0.412  -5.886   0.000  0.00  0.00    +0.008 C 
ATOM     24  C   UNL     1      -0.412  -7.314   0.000  0.00  0.00    +0.008 C 
ATOM     25  C   UNL     1       0.715  -7.013   0.000  0.00  0.00    +0.008 C 
ENDBRANCH  19  22
ENDBRANCH   3  16
TORSDOF 4
