REMARK  Name = 
REMARK  8 active torsions:
REMARK  status: ('A' for Active; 'I' for Inactive)
REMARK    1  A    between atoms: C_2  and  C_3
REMARK    2  A    between atoms: C_2  and  N_9
REMARK    3  A    between atoms: C_3  and  N_4
REMARK    4  A    between atoms: N_9  and  C_10
REMARK    5  A    between atoms: C_10  and  C_11
REMARK    6  A    between atoms: N_13  and  C_14
REMARK    7  A    between atoms: C_14  and  C_16
REMARK    8  A    between atoms: C_14  and  C_18
REMARK                            x       y       z     vdW  Elec       q    Type
REMARK                         _______ _______ _______ _____ _____    ______ ____
ROOT
ATOM      1  C   UNL     1       1.917  -1.653   0.000  0.00  0.00    +0.175 C 
ENDROOT
BRANCH   1   2
ATOM      2  C   UNL     1       2.631  -1.240   0.000  0.00  0.00    +0.260 C 
ATOM      3  N   UNL     1       3.345  -1.653   0.000  0.00  0.00    -0.193 NA
ATOM      4  O   UNL     1       2.631  -0.415   0.000  0.00  0.00    -0.272 OA
BRANCH   3   5
ATOM      5  C   UNL     1       4.060  -1.240   0.000  0.00  0.00    +0.157 C 
ATOM      6  C   UNL     1       4.472  -1.955   0.000  0.00  0.00    +0.037 C 
BRANCH   5   7
ATOM      7  C   UNL     1       3.647  -0.526   0.000  0.00  0.00    +0.032 C 
ATOM      8  C   UNL     1       3.647   0.299   0.000  0.00  0.00    +0.003 C 
ATOM      9  C   UNL     1       2.933  -0.113   0.000  0.00  0.00    +0.003 C 
ENDBRANCH   5   7
BRANCH   5  10
ATOM     10  C   UNL     1       4.774  -0.828   0.000  0.00  0.00    +0.091 C 
ATOM     11  N   UNL     1       5.489  -0.415   0.000  0.00  0.00    -0.194 NA
ENDBRANCH   5  10
ENDBRANCH   3   5
ENDBRANCH   1   2
BRANCH   1  12
ATOM     12  N   UNL     1       1.202  -1.240   0.000  0.00  0.00    -0.208 NA
BRANCH  12  14
ATOM     13  C   UNL     1       0.487  -2.478   0.000  0.00  0.00    +0.021 C 
ATOM     14  C   UNL     1       0.487  -1.653   0.000  0.00  0.00    +0.098 C 
BRANCH  14  15
ATOM     15  C   UNL     1      -0.227  -1.240   0.000  0.00  0.00    +0.145 C 
BRANCH  15  16
ATOM     16  N   UNL     1      -0.941  -1.653   0.000  0.00  0.00    -0.248 N 
ATOM     17  N   UNL     1      -1.695  -1.317   0.000  0.00  0.00    -0.168 NA
ATOM     18  C   UNL     1      -2.247  -1.930   0.000  0.00  0.00    +0.122 A 
ATOM     19  C   UNL     1      -1.835  -2.645   0.000  0.00  0.00    +0.043 A 
ATOM     20  C   UNL     1      -1.028  -2.473   0.000  0.00  0.00    +0.097 A 
ENDBRANCH  15  16
ENDBRANCH  14  15
ENDBRANCH  12  14
ENDBRANCH   1  12
TORSDOF 8
