REMARK  Name = 
REMARK  3 active torsions:
REMARK  status: ('A' for Active; 'I' for Inactive)
REMARK    1  A    between atoms: C_4  and  N_5
REMARK    2  A    between atoms: N_8  and  C_9
REMARK    3  A    between atoms: C_9  and  C_10
REMARK                            x       y       z     vdW  Elec       q    Type
REMARK                         _______ _______ _______ _____ _____    ______ ____
ROOT
ATOM      1  N   UNL     1      -2.136   0.562   0.000  0.00  0.00    -0.142 NA
ATOM      2  C   UNL     1      -1.421   0.974   0.000  0.00  0.00    +0.345 C 
ATOM      3  N   UNL     1      -0.707   0.562   0.000  0.00  0.00    -0.187 NA
ATOM      4  O   UNL     1      -1.421   1.799   0.000  0.00  0.00    -0.249 OA
ENDROOT
BRANCH   1  10
ATOM      5  C   UNL     1      -4.079   2.720   0.000  0.00  0.00    +0.054 C 
ATOM      6  C   UNL     1      -3.743   1.966   0.000  0.00  0.00    +0.082 A 
ATOM      7  N   UNL     1      -4.156   1.252   0.000  0.00  0.00    -0.172 NA
ATOM      8  N   UNL     1      -3.604   0.639   0.000  0.00  0.00    -0.234 N 
ATOM      9  C   UNL     1      -3.775  -0.168   0.000  0.00  0.00    +0.155 C 
ATOM     10  C   UNL     1      -2.850   0.974   0.000  0.00  0.00    +0.154 A 
ATOM     11  C   UNL     1      -2.936   1.795   0.000  0.00  0.00    +0.052 A 
ENDBRANCH   1  10
BRANCH   3  12
ATOM     12  C   UNL     1       0.008   0.974   0.000  0.00  0.00    +0.117 C 
BRANCH  12  13
ATOM     13  C   UNL     1       0.722   0.562   0.000  0.00  0.00    +0.022 C 
ATOM     14  C   UNL     1       1.135  -0.153   0.000  0.00  0.00    +0.002 C 
ATOM     15  C   UNL     1       1.547   0.562   0.000  0.00  0.00    +0.002 C 
ENDBRANCH  12  13
ENDBRANCH   3  12
TORSDOF 3
