REMARK  Name = 
REMARK  7 active torsions:
REMARK  status: ('A' for Active; 'I' for Inactive)
REMARK    1  A    between atoms: C_2  and  C_3
REMARK    2  A    between atoms: C_5  and  C_6
REMARK    3  A    between atoms: C_6  and  C_7
REMARK    4  A    between atoms: N_9  and  C_10
REMARK    5  A    between atoms: C_10  and  C_12
REMARK    6  A    between atoms: C_10  and  C_14
REMARK    7  A    between atoms: C_14  and  C_15
REMARK                            x       y       z     vdW  Elec       q    Type
REMARK                         _______ _______ _______ _____ _____    ______ ____
ROOT
ATOM      1  C   UNL     1       2.286  -0.737   0.000  0.00  0.00    +0.247 C 
ATOM      2  N   UNL     1       2.771  -1.404   0.000  0.00  0.00    -0.208 NA
ATOM      3  O   UNL     1       2.621   0.017   0.000  0.00  0.00    -0.273 OA
ENDROOT
BRANCH   2   4
ATOM      4  C   UNL     1       3.591  -1.318   0.000  0.00  0.00    +0.089 C 
ATOM      5  C   UNL     1       3.677  -2.138   0.000  0.00  0.00    +0.022 C 
BRANCH   4   6
ATOM      6  C   UNL     1       3.505  -0.497   0.000  0.00  0.00    +0.021 C 
ATOM      7  C   UNL     1       4.172  -0.012   0.000  0.00  0.00    +0.002 C 
ENDBRANCH   4   6
BRANCH   4   8
ATOM      8  C   UNL     1       4.412  -1.231   0.000  0.00  0.00    +0.134 C 
BRANCH   8   9
ATOM      9  C   UNL     1       4.896  -1.899   0.000  0.00  0.00    +0.367 C 
ATOM     10  O   UNL     1       4.561  -2.652   0.000  0.00  0.00    -0.246 OA
ATOM     11  O   UNL     1       5.717  -1.813   0.000  0.00  0.00    -0.246 OA
ENDBRANCH   8   9
ENDBRANCH   4   8
ENDBRANCH   2   4
BRANCH   1  12
ATOM     12  C   UNL     1       1.465  -0.823   0.000  0.00  0.00    +0.133 C 
BRANCH  12  16
ATOM     13  C   UNL     1       0.568   1.114   0.000  0.00  0.00    +0.088 A 
ATOM     14  S   UNL     1      -0.100   0.629   0.000  0.00  0.00    -0.071 S 
ATOM     15  C   UNL     1       0.155  -0.155   0.000  0.00  0.00    +0.052 A 
ATOM     16  C   UNL     1       0.980  -0.155   0.000  0.00  0.00    +0.075 A 
ATOM     17  N   UNL     1       1.235   0.629   0.000  0.00  0.00    -0.247 NA
BRANCH  13  19
ATOM     18  C   UNL     1      -0.147   2.352   0.000  0.00  0.00    +0.007 C 
ATOM     19  C   UNL     1       0.568   1.939   0.000  0.00  0.00    +0.053 C 
ENDBRANCH  13  19
ENDBRANCH  12  16
ENDBRANCH   1  12
TORSDOF 7
