REMARK  Name = 
REMARK  3 active torsions:
REMARK  status: ('A' for Active; 'I' for Inactive)
REMARK    1  A    between atoms: O_2  and  C_3
REMARK    2  A    between atoms: C_8  and  N_9
REMARK    3  A    between atoms: N_12  and  C_13
REMARK                            x       y       z     vdW  Elec       q    Type
REMARK                         _______ _______ _______ _____ _____    ______ ____
ROOT
ATOM      1  N   UNL     1       0.663  -2.981   0.000  0.00  0.00    -0.156 NA
ATOM      2  C   UNL     1       0.663  -2.156   0.000  0.00  0.00    +0.344 C 
ATOM      3  N   UNL     1      -0.051  -1.744   0.000  0.00  0.00    -0.179 NA
ATOM      4  O   UNL     1       1.378  -1.744   0.000  0.00  0.00    -0.249 OA
ENDROOT
BRANCH   3   5
ATOM      5  C   UNL     1      -0.051  -0.919   0.000  0.00  0.00    +0.174 C 
ATOM      6  C   UNL     1       0.692  -0.561   0.000  0.00  0.00    +0.261 C 
ATOM      7  O   UNL     1       1.337  -1.075   0.000  0.00  0.00    -0.271 OA
ATOM      8  N   UNL     1       0.876   0.243   0.000  0.00  0.00    -0.204 NA
ATOM      9  C   UNL     1       0.361   0.888   0.000  0.00  0.00    +0.115 C 
ATOM     10  C   UNL     1      -0.464   0.888   0.000  0.00  0.00    +0.024 C 
ATOM     11  C   UNL     1      -0.978   0.243   0.000  0.00  0.00    +0.004 C 
ATOM     12  C   UNL     1      -0.795  -0.561   0.000  0.00  0.00    +0.031 C 
ENDBRANCH   3   5
BRANCH   1  14
ATOM     13  C   UNL     1       2.092  -2.981   0.000  0.00  0.00    +0.241 A 
ATOM     14  C   UNL     1       1.378  -3.394   0.000  0.00  0.00    +0.128 A 
ATOM     15  C   UNL     1       1.378  -4.219   0.000  0.00  0.00    +0.023 A 
ATOM     16  C   UNL     1       2.092  -4.631   0.000  0.00  0.00    +0.022 A 
ATOM     17  C   UNL     1       2.807  -4.219   0.000  0.00  0.00    +0.102 A 
ATOM     18  N   UNL     1       2.807  -3.394   0.000  0.00  0.00    -0.209 NA
BRANCH  13  20
ATOM     19  C   UNL     1       2.807  -1.744   0.000  0.00  0.00    +0.254 C 
ATOM     20  O   UNL     1       2.092  -2.156   0.000  0.00  0.00    -0.455 OA
ENDBRANCH  13  20
ENDBRANCH   1  14
TORSDOF 3
