REMARK  Name = 
REMARK  5 active torsions:
REMARK  status: ('A' for Active; 'I' for Inactive)
REMARK    1  A    between atoms: C_3  and  C_5
REMARK    2  A    between atoms: C_5  and  C_6
REMARK    3  A    between atoms: C_9  and  C_10
REMARK    4  A    between atoms: C_10  and  O_11
REMARK    5  A    between atoms: O_11  and  C_12
REMARK                            x       y       z     vdW  Elec       q    Type
REMARK                         _______ _______ _______ _____ _____    ______ ____
ROOT
ATOM      1  C   UNL     1       1.429  -2.475   0.000  0.00  0.00    +0.190 A 
ATOM      2  N   UNL     1       0.761  -2.960   0.000  0.00  0.00    -0.192 NA
ATOM      3  C   UNL     1       1.016  -3.744   0.000  0.00  0.00    +0.267 A 
ATOM      4  O   UNL     1       1.841  -3.744   0.000  0.00  0.00    -0.335 OA
ATOM      5  N   UNL     1       2.096  -2.960   0.000  0.00  0.00    -0.060 NA
ENDROOT
BRANCH   1   6
ATOM      6  C   UNL     1       1.429  -1.650   0.000  0.00  0.00    +0.156 C 
BRANCH   6   9
ATOM      7  C   UNL     1       2.858   0.000   0.000  0.00  0.00    +0.139 C 
ATOM      8  N   UNL     1       2.143  -0.412   0.000  0.00  0.00    -0.203 NA
ATOM      9  C   UNL     1       2.143  -1.238   0.000  0.00  0.00    +0.249 C 
ATOM     10  O   UNL     1       2.858  -1.650   0.000  0.00  0.00    -0.273 OA
ENDBRANCH   6   9
ENDBRANCH   1   6
BRANCH   3  11
ATOM     11  C   UNL     1       0.531  -4.412   0.000  0.00  0.00    +0.230 C 
BRANCH  11  12
ATOM     12  O   UNL     1       0.867  -5.166   0.000  0.00  0.00    -0.347 OA
BRANCH  12  13
ATOM     13  C   UNL     1       0.382  -5.833   0.000  0.00  0.00    +0.116 C 
ATOM     14  C   UNL     1      -0.438  -5.747   0.000  0.00  0.00    +0.030 C 
ATOM     15  C   UNL     1      -0.923  -6.414   0.000  0.00  0.00    +0.002 C 
ATOM     16  C   UNL     1      -0.588  -7.168   0.000  0.00  0.00    +0.000 C 
ATOM     17  C   UNL     1       0.233  -7.254   0.000  0.00  0.00    +0.002 C 
ATOM     18  C   UNL     1       0.718  -6.587   0.000  0.00  0.00    +0.030 C 
ENDBRANCH  12  13
ENDBRANCH  11  12
ENDBRANCH   3  11
TORSDOF 5
