REMARK  Name = 
REMARK  3 active torsions:
REMARK  status: ('A' for Active; 'I' for Inactive)
REMARK    1  A    between atoms: N_3  and  C_4
REMARK    2  A    between atoms: C_4  and  C_5
REMARK    3  A    between atoms: N_7  and  C_11
REMARK                            x       y       z     vdW  Elec       q    Type
REMARK                         _______ _______ _______ _____ _____    ______ ____
ROOT
ATOM      1  C   UNL     1       0.715  -2.062   0.000  0.00  0.00    +0.148 C 
ENDROOT
BRANCH   1  10
ATOM      2  O   UNL     1       2.143  -2.888   0.000  0.00  0.00    -0.249 OA
ATOM      3  C   UNL     1       2.143  -2.062   0.000  0.00  0.00    +0.345 C 
ATOM      4  N   UNL     1       2.858  -1.650   0.000  0.00  0.00    -0.136 NA
ATOM      5  C   UNL     1       3.572  -2.062   0.000  0.00  0.00    +0.187 A 
ATOM      6  S   UNL     1       3.659  -2.883   0.000  0.00  0.00    -0.049 S 
ATOM      7  C   UNL     1       4.466  -3.054   0.000  0.00  0.00    +0.059 A 
ATOM      8  C   UNL     1       4.878  -2.340   0.000  0.00  0.00    +0.108 A 
ATOM      9  N   UNL     1       4.326  -1.727   0.000  0.00  0.00    -0.221 NA
ATOM     10  N   UNL     1       1.429  -1.650   0.000  0.00  0.00    -0.184 NA
ENDBRANCH   1  10
BRANCH   1  11
ATOM     11  C   UNL     1       0.000  -1.650   0.000  0.00  0.00    +0.153 C 
ATOM     12  O   UNL     1       0.000  -0.825   0.000  0.00  0.00    -0.352 OA
ATOM     13  C   UNL     1      -0.715  -0.412   0.000  0.00  0.00    +0.159 C 
ATOM     14  C   UNL     1      -1.429  -0.825   0.000  0.00  0.00    +0.105 C 
ATOM     15  N   UNL     1      -1.429  -1.650   0.000  0.00  0.00    -0.270 NA
ATOM     16  C   UNL     1      -0.715  -2.062   0.000  0.00  0.00    +0.104 C 
BRANCH  15  17
ATOM     17  C   UNL     1      -2.143  -2.062   0.000  0.00  0.00    +0.058 C 
ATOM     18  C   UNL     1      -2.968  -2.062   0.000  0.00  0.00    +0.017 C 
ATOM     19  C   UNL     1      -2.556  -2.777   0.000  0.00  0.00    +0.017 C 
ENDBRANCH  15  17
ENDBRANCH   1  11
TORSDOF 3
