REMARK  Name = 
REMARK  4 active torsions:
REMARK  status: ('A' for Active; 'I' for Inactive)
REMARK    1  A    between atoms: C_4  and  N_5
REMARK    2  A    between atoms: N_8  and  C_9
REMARK    3  A    between atoms: C_9  and  C_10
REMARK    4  A    between atoms: C_10  and  C_13
REMARK                            x       y       z     vdW  Elec       q    Type
REMARK                         _______ _______ _______ _____ _____    ______ ____
ROOT
ATOM      1  N   UNL     1      -2.037   8.478   0.000  0.00  0.00    -0.159 NA
ATOM      2  C   UNL     1      -2.751   8.065   0.000  0.00  0.00    +0.344 C 
ATOM      3  N   UNL     1      -2.751   7.240   0.000  0.00  0.00    -0.187 NA
ATOM      4  O   UNL     1      -3.466   8.478   0.000  0.00  0.00    -0.249 OA
ENDROOT
BRANCH   1  11
ATOM      5  C   UNL     1      -0.608  10.953   0.000  0.00  0.00    +0.134 C 
ATOM      6  N   UNL     1      -1.322  10.540   0.000  0.00  0.00    -0.291 N 
ATOM      7  C   UNL     1      -2.037  10.953   0.000  0.00  0.00    +0.261 A 
ATOM      8  O   UNL     1      -2.037  11.778   0.000  0.00  0.00    -0.267 OA
ATOM      9  C   UNL     1      -2.751  10.540   0.000  0.00  0.00    +0.062 A 
ATOM     10  C   UNL     1      -2.751   9.715   0.000  0.00  0.00    +0.023 A 
ATOM     11  C   UNL     1      -2.037   9.303   0.000  0.00  0.00    +0.092 A 
ATOM     12  C   UNL     1      -1.322   9.715   0.000  0.00  0.00    +0.095 A 
ENDBRANCH   1  11
BRANCH   3  13
ATOM     13  C   UNL     1      -3.466   6.828   0.000  0.00  0.00    +0.117 C 
BRANCH  13  14
ATOM     14  C   UNL     1      -3.466   6.003   0.000  0.00  0.00    +0.020 C 
ATOM     15  C   UNL     1      -4.291   6.003   0.000  0.00  0.00    +0.002 C 
ATOM     16  C   UNL     1      -2.641   6.003   0.000  0.00  0.00    +0.002 C 
BRANCH  14  17
ATOM     17  C   UNL     1      -3.466   5.178   0.000  0.00  0.00    +0.002 C 
ATOM     18  C   UNL     1      -4.133   4.693   0.000  0.00  0.00    +0.000 C 
ATOM     19  C   UNL     1      -3.878   3.908   0.000  0.00  0.00    +0.000 C 
ATOM     20  C   UNL     1      -3.053   3.908   0.000  0.00  0.00    +0.000 C 
ATOM     21  C   UNL     1      -2.798   4.693   0.000  0.00  0.00    +0.000 C 
ENDBRANCH  14  17
ENDBRANCH  13  14
ENDBRANCH   3  13
TORSDOF 4
