REMARK  Name = 
REMARK  2 active torsions:
REMARK  status: ('A' for Active; 'I' for Inactive)
REMARK    1  A    between atoms: C_7  and  C_8
REMARK    2  A    between atoms: C_8  and  C_9
REMARK                            x       y       z     vdW  Elec       q    Type
REMARK                         _______ _______ _______ _____ _____    ______ ____
ROOT
ATOM      1 CL   UNL     1       0.000   0.000   0.000  0.00  0.00    +0.000 Cl
ENDROOT
TORSDOF 0
REMARK  Name = 
REMARK  2 active torsions:
REMARK  status: ('A' for Active; 'I' for Inactive)
REMARK    1  A    between atoms: C_7  and  C_8
REMARK    2  A    between atoms: C_8  and  C_9
REMARK                            x       y       z     vdW  Elec       q    Type
REMARK                         _______ _______ _______ _____ _____    ______ ____
ROOT
ATOM      1  C   UNL     1       4.734   0.541   0.000  0.00  0.00    +0.157 C 
ATOM      2  N   UNL     1       4.734  -0.284   0.000  0.00  0.00    -0.215 N 
ATOM      3  C   UNL     1       4.067  -0.768   0.000  0.00  0.00    +0.162 A 
ATOM      4  N   UNL     1       4.322  -1.553   0.000  0.00  0.00    -0.113 NA
ATOM      5  N   UNL     1       5.147  -1.553   0.000  0.00  0.00    -0.023 NA
ATOM      6  N   UNL     1       5.402  -0.768   0.000  0.00  0.00    -0.043 NA
ENDROOT
BRANCH   3   7
ATOM      7  C   UNL     1       3.282  -0.514   0.000  0.00  0.00    +0.085 C 
BRANCH   7   8
ATOM      8  C   UNL     1       3.111   0.293   0.000  0.00  0.00    +0.080 C 
ATOM      9  N   UNL     1       3.663   0.906   0.000  0.00  0.00    -0.219 NA
ATOM     10  C   UNL     1       3.250   1.621   0.000  0.00  0.00    +0.089 C 
ATOM     11  C   UNL     1       2.443   1.449   0.000  0.00  0.00    +0.020 C 
ATOM     12  C   UNL     1       2.357   0.629   0.000  0.00  0.00    +0.019 C 
ENDBRANCH   7   8
ENDBRANCH   3   7
TORSDOF 2
