REMARK  Name = 
REMARK  5 active torsions:
REMARK  status: ('A' for Active; 'I' for Inactive)
REMARK    1  A    between atoms: N_7  and  C_8
REMARK    2  A    between atoms: C_8  and  C_9
REMARK    3  A    between atoms: N_11  and  C_12
REMARK    4  A    between atoms: C_12  and  C_13
REMARK    5  A    between atoms: C_13  and  C_14
REMARK                            x       y       z     vdW  Elec       q    Type
REMARK                         _______ _______ _______ _____ _____    ______ ____
ROOT
ATOM      1  C   UNL     1      -0.577  -4.134   0.000  0.00  0.00    +0.266 C 
ATOM      2  N   UNL     1       0.137  -3.721   0.000  0.00  0.00    -0.204 NA
ATOM      3  O   UNL     1      -1.292  -3.721   0.000  0.00  0.00    -0.271 OA
ENDROOT
BRANCH   1   4
ATOM      4  C   UNL     1      -0.577  -4.959   0.000  0.00  0.00    +0.217 C 
BRANCH   4   8
ATOM      5  C   UNL     1      -2.006  -7.434   0.000  0.00  0.00    +0.054 C 
ATOM      6  C   UNL     1      -2.006  -6.609   0.000  0.00  0.00    +0.079 A 
ATOM      7  N   UNL     1      -1.292  -6.196   0.000  0.00  0.00    -0.171 NA
ATOM      8  N   UNL     1      -1.292  -5.371   0.000  0.00  0.00    -0.207 N 
ATOM      9  C   UNL     1      -2.006  -4.959   0.000  0.00  0.00    +0.277 A 
ATOM     10  O   UNL     1      -2.006  -4.134   0.000  0.00  0.00    -0.265 OA
ATOM     11  C   UNL     1      -2.720  -5.371   0.000  0.00  0.00    +0.063 A 
ATOM     12  C   UNL     1      -2.720  -6.196   0.000  0.00  0.00    +0.021 A 
ENDBRANCH   4   8
ENDBRANCH   1   4
BRANCH   2  13
ATOM     13  C   UNL     1       0.137  -2.896   0.000  0.00  0.00    +0.115 C 
BRANCH  13  14
ATOM     14  C   UNL     1       0.852  -2.483   0.000  0.00  0.00    +0.023 C 
BRANCH  14  15
ATOM     15  C   UNL     1       0.852  -1.659   0.000  0.00  0.00    +0.002 C 
ATOM     16  C   UNL     1       0.852  -0.911   0.000  0.00  0.00    +0.000 C 
ATOM     17  C   UNL     1       1.301  -0.121   0.000  0.00  0.00    +0.000 C 
ATOM     18  C   UNL     1       2.037  -0.494   0.000  0.00  0.00    +0.000 C 
ATOM     19  C   UNL     1       2.037  -1.242   0.000  0.00  0.00    +0.000 C 
ATOM     20  C   UNL     1       1.301  -1.616   0.000  0.00  0.00    +0.000 C 
ATOM     21  C   UNL     1       0.566  -1.242   0.000  0.00  0.00    +0.000 C 
ATOM     22  C   UNL     1       0.566  -0.494   0.000  0.00  0.00    +0.000 C 
ATOM     23  C   UNL     1       1.587  -2.032   0.000  0.00  0.00    +0.000 C 
ATOM     24  C   UNL     1       0.116  -2.032   0.000  0.00  0.00    +0.000 C 
ENDBRANCH  14  15
ENDBRANCH  13  14
ENDBRANCH   2  13
TORSDOF 5
