REMARK  Name = 
REMARK  5 active torsions:
REMARK  status: ('A' for Active; 'I' for Inactive)
REMARK    1  A    between atoms: C_2  and  C_4
REMARK    2  A    between atoms: C_4  and  N_5
REMARK    3  A    between atoms: C_6  and  C_8
REMARK    4  A    between atoms: C_8  and  N_9
REMARK    5  A    between atoms: C_11  and  C_17
REMARK                            x       y       z     vdW  Elec       q    Type
REMARK                         _______ _______ _______ _____ _____    ______ ____
ROOT
ATOM      1  N   UNL     1       5.716  -4.125   0.000  0.00  0.00    -0.285 N 
ATOM      2  C   UNL     1       5.716  -4.950   0.000  0.00  0.00    +0.272 A 
ATOM      3  O   UNL     1       5.001  -5.362   0.000  0.00  0.00    -0.266 OA
ATOM      4  C   UNL     1       6.430  -5.362   0.000  0.00  0.00    +0.114 A 
ATOM      5 CL   UNL     1       6.430  -6.188   0.000  0.00  0.00    -0.077 Cl
ATOM      6  C   UNL     1       7.145  -4.950   0.000  0.00  0.00    +0.022 A 
ATOM      7  C   UNL     1       7.145  -4.125   0.000  0.00  0.00    +0.090 A 
ATOM      8  C   UNL     1       6.430  -3.712   0.000  0.00  0.00    +0.083 A 
ENDROOT
BRANCH   7   9
ATOM      9  C   UNL     1       7.859  -3.712   0.000  0.00  0.00    +0.420 C 
ATOM     10  F   UNL     1       7.447  -2.998   0.000  0.00  0.00    -0.166 F 
ATOM     11  F   UNL     1       8.272  -4.427   0.000  0.00  0.00    -0.166 F 
ATOM     12  F   UNL     1       8.574  -3.300   0.000  0.00  0.00    -0.166 F 
ENDBRANCH   7   9
BRANCH   1  13
ATOM     13  C   UNL     1       5.001  -3.712   0.000  0.00  0.00    +0.196 C 
BRANCH  13  15
ATOM     14  N   UNL     1       3.572  -3.712   0.000  0.00  0.00    -0.192 NA
ATOM     15  C   UNL     1       4.287  -4.125   0.000  0.00  0.00    +0.265 C 
ATOM     16  O   UNL     1       4.287  -4.950   0.000  0.00  0.00    -0.271 OA
BRANCH  14  17
ATOM     17  C   UNL     1       2.858  -4.125   0.000  0.00  0.00    +0.228 C 
BRANCH  17  19
ATOM     18  O   UNL     1       1.429  -4.125   0.000  0.00  0.00    -0.244 OA
ATOM     19  C   UNL     1       2.143  -3.712   0.000  0.00  0.00    +0.387 C 
ATOM     20  O   UNL     1       2.143  -2.888   0.000  0.00  0.00    -0.244 OA
ENDBRANCH  17  19
ENDBRANCH  14  17
ENDBRANCH  13  15
ENDBRANCH   1  13
TORSDOF 5
