REMARK  Name = 
REMARK  5 active torsions:
REMARK  status: ('A' for Active; 'I' for Inactive)
REMARK    1  A    between atoms: C_7  and  C_8
REMARK    2  A    between atoms: C_8  and  C_9
REMARK    3  A    between atoms: N_11  and  C_12
REMARK    4  A    between atoms: C_12  and  C_14
REMARK    5  A    between atoms: C_12  and  C_16
REMARK                            x       y       z     vdW  Elec       q    Type
REMARK                         _______ _______ _______ _____ _____    ______ ____
ROOT
ATOM      1  C   UNL     1       1.128  -2.785   0.000  0.00  0.00    +0.246 C 
ATOM      2  N   UNL     1       0.343  -2.530   0.000  0.00  0.00    -0.206 NA
ATOM      3  O   UNL     1       1.741  -2.233   0.000  0.00  0.00    -0.273 OA
ENDROOT
BRANCH   2   4
ATOM      4  C   UNL     1       0.171  -1.723   0.000  0.00  0.00    +0.109 C 
ATOM      5  C   UNL     1       0.978  -1.551   0.000  0.00  0.00    +0.024 C 
BRANCH   4   6
ATOM      6  C   UNL     1      -0.000  -0.916   0.000  0.00  0.00    +0.021 C 
ATOM      7  C   UNL     1       0.613  -0.364   0.000  0.00  0.00    +0.002 C 
ATOM      8  C   UNL     1       0.442   0.443   0.000  0.00  0.00    +0.000 C 
ATOM      9  C   UNL     1      -0.343   0.698   0.000  0.00  0.00    +0.000 C 
ATOM     10  C   UNL     1      -0.956   0.146   0.000  0.00  0.00    +0.000 C 
ATOM     11  C   UNL     1      -0.785  -0.661   0.000  0.00  0.00    +0.002 C 
ENDBRANCH   4   6
BRANCH   4  12
ATOM     12  C   UNL     1      -0.635  -1.894   0.000  0.00  0.00    +0.202 C 
ATOM     13  O   UNL     1      -1.188  -1.281   0.000  0.00  0.00    -0.219 OA
ENDBRANCH   4  12
ENDBRANCH   2   4
BRANCH   1  14
ATOM     14  C   UNL     1       1.299  -3.592   0.000  0.00  0.00    +0.117 C 
BRANCH  14  17
ATOM     15  C   UNL     1       2.751  -2.537   0.000  0.00  0.00    +0.055 C 
ATOM     16  C   UNL     1       2.751  -3.362   0.000  0.00  0.00    +0.097 A 
ATOM     17  C   UNL     1       2.084  -3.846   0.000  0.00  0.00    +0.037 A 
ATOM     18  C   UNL     1       2.339  -4.631   0.000  0.00  0.00    +0.151 A 
ATOM     19  C   UNL     1       1.854  -5.299   0.000  0.00  0.00    +0.075 C 
ATOM     20  O   UNL     1       3.164  -4.631   0.000  0.00  0.00    -0.358 OA
ATOM     21  N   UNL     1       3.419  -3.846   0.000  0.00  0.00    -0.082 NA
ENDBRANCH  14  17
ENDBRANCH   1  14
TORSDOF 5
