REMARK  Name = 
REMARK  4 active torsions:
REMARK  status: ('A' for Active; 'I' for Inactive)
REMARK    1  A    between atoms: O_2  and  C_3
REMARK    2  A    between atoms: C_3  and  C_4
REMARK    3  A    between atoms: C_4  and  N_6
REMARK    4  A    between atoms: N_9  and  C_10
REMARK                            x       y       z     vdW  Elec       q    Type
REMARK                         _______ _______ _______ _____ _____    ______ ____
ROOT
ATOM      1  C   UNL     1       5.716  -4.125   0.000  0.00  0.00    +0.094 A 
ATOM      2  C   UNL     1       5.716  -4.950   0.000  0.00  0.00    +0.117 A 
ATOM      3  N   UNL     1       6.430  -5.362   0.000  0.00  0.00    -0.228 NA
ATOM      4  C   UNL     1       7.145  -4.950   0.000  0.00  0.00    +0.132 A 
ATOM      5  N   UNL     1       7.859  -5.362   0.000  0.00  0.00    -0.293 N 
ATOM      6  C   UNL     1       7.945  -6.183   0.000  0.00  0.00    +0.092 C 
ATOM      7  C   UNL     1       8.752  -6.354   0.000  0.00  0.00    +0.023 C 
ATOM      8  C   UNL     1       9.165  -5.640   0.000  0.00  0.00    +0.023 C 
ATOM      9  C   UNL     1       8.613  -5.027   0.000  0.00  0.00    +0.092 C 
ATOM     10  C   UNL     1       7.145  -4.125   0.000  0.00  0.00    +0.036 A 
ATOM     11  C   UNL     1       6.430  -3.712   0.000  0.00  0.00    +0.021 A 
ENDROOT
BRANCH   1  14
ATOM     12  N   UNL     1       3.572  -3.712   0.000  0.00  0.00    -0.186 NA
ATOM     13  C   UNL     1       4.287  -4.125   0.000  0.00  0.00    +0.344 C 
ATOM     14  N   UNL     1       5.001  -3.712   0.000  0.00  0.00    -0.159 NA
ATOM     15  O   UNL     1       4.287  -4.950   0.000  0.00  0.00    -0.249 OA
BRANCH  12  16
ATOM     16  C   UNL     1       2.858  -4.125   0.000  0.00  0.00    +0.126 C 
ATOM     17  C   UNL     1       2.858  -4.950   0.000  0.00  0.00    +0.026 C 
BRANCH  16  18
ATOM     18  C   UNL     1       2.143  -3.712   0.000  0.00  0.00    +0.164 C 
BRANCH  18  20
ATOM     19  C   UNL     1       0.715  -3.712   0.000  0.00  0.00    +0.174 C 
ATOM     20  O   UNL     1       1.429  -4.125   0.000  0.00  0.00    -0.349 OA
ENDBRANCH  18  20
ENDBRANCH  16  18
ENDBRANCH  12  16
ENDBRANCH   1  14
TORSDOF 4
