REMARK  Name = 
REMARK  3 active torsions:
REMARK  status: ('A' for Active; 'I' for Inactive)
REMARK    1  A    between atoms: C_7  and  N_8
REMARK    2  A    between atoms: N_11  and  C_12
REMARK    3  A    between atoms: C_18  and  C_20
REMARK                            x       y       z     vdW  Elec       q    Type
REMARK                         _______ _______ _______ _____ _____    ______ ____
ROOT
ATOM      1  N   UNL     1      -2.445   5.665   0.000  0.00  0.00    -0.159 NA
ATOM      2  C   UNL     1      -1.731   5.252   0.000  0.00  0.00    +0.343 C 
ATOM      3  N   UNL     1      -1.016   5.665   0.000  0.00  0.00    -0.189 NA
ATOM      4  O   UNL     1      -1.731   4.427   0.000  0.00  0.00    -0.249 OA
ENDROOT
BRANCH   1  10
ATOM      5  C   UNL     1      -5.303   3.189   0.000  0.00  0.00    +0.114 C 
ATOM      6  N   UNL     1      -5.303   4.014   0.000  0.00  0.00    -0.290 N 
ATOM      7  C   UNL     1      -4.589   4.427   0.000  0.00  0.00    +0.132 A 
ATOM      8  N   UNL     1      -3.874   4.014   0.000  0.00  0.00    -0.228 NA
ATOM      9  C   UNL     1      -3.160   4.427   0.000  0.00  0.00    +0.117 A 
ATOM     10  C   UNL     1      -3.160   5.252   0.000  0.00  0.00    +0.094 A 
ATOM     11  C   UNL     1      -3.874   5.665   0.000  0.00  0.00    +0.021 A 
ATOM     12  C   UNL     1      -4.589   5.252   0.000  0.00  0.00    +0.036 A 
ATOM     13  C   UNL     1      -6.018   4.427   0.000  0.00  0.00    +0.114 C 
ENDBRANCH   1  10
BRANCH   3  14
ATOM     14  C   UNL     1      -0.302   5.252   0.000  0.00  0.00    +0.100 C 
ATOM     15  C   UNL     1      -0.302   4.427   0.000  0.00  0.00    +0.043 C 
ATOM     16  C   UNL     1       0.412   4.014   0.000  0.00  0.00    +0.095 C 
ATOM     17  N   UNL     1       1.127   4.427   0.000  0.00  0.00    -0.279 N 
ATOM     18  C   UNL     1       1.841   4.014   0.000  0.00  0.00    +0.225 C 
ATOM     19  O   UNL     1       2.556   4.427   0.000  0.00  0.00    -0.275 OA
ATOM     20  C   UNL     1       1.127   5.252   0.000  0.00  0.00    +0.095 C 
ATOM     21  C   UNL     1       0.412   5.665   0.000  0.00  0.00    +0.043 C 
BRANCH  18  22
ATOM     22  C   UNL     1       1.841   3.189   0.000  0.00  0.00    +0.077 C 
ATOM     23  C   UNL     1       1.429   2.475   0.000  0.00  0.00    +0.010 C 
ATOM     24  C   UNL     1       2.254   2.475   0.000  0.00  0.00    +0.010 C 
ENDBRANCH  18  22
ENDBRANCH   3  14
TORSDOF 3
