REMARK  Name = 
REMARK  4 active torsions:
REMARK  status: ('A' for Active; 'I' for Inactive)
REMARK    1  A    between atoms: C_2  and  N_3
REMARK    2  A    between atoms: C_8  and  N_9
REMARK    3  A    between atoms: N_12  and  C_13
REMARK    4  A    between atoms: C_13  and  C_14
REMARK                            x       y       z     vdW  Elec       q    Type
REMARK                         _______ _______ _______ _____ _____    ______ ____
ROOT
ATOM      1  N   UNL     1      -0.715   2.062   0.000  0.00  0.00    -0.324 N 
ATOM      2  C   UNL     1       0.000   1.650   0.000  0.00  0.00    +0.096 A 
ATOM      3  C   UNL     1       0.715   2.062   0.000  0.00  0.00    +0.131 A 
ATOM      4  C   UNL     1       0.715   2.888   0.000  0.00  0.00    +0.214 A 
ATOM      5  O   UNL     1       1.429   3.300   0.000  0.00  0.00    -0.285 OA
ATOM      6  C   UNL     1       0.000   3.300   0.000  0.00  0.00    +0.062 A 
ATOM      7  C   UNL     1      -0.715   2.888   0.000  0.00  0.00    +0.079 A 
ENDROOT
BRANCH   3   8
ATOM      8  N   UNL     1       1.429   1.650   0.000  0.00  0.00    -0.156 NA
ATOM      9  C   UNL     1       2.143   2.062   0.000  0.00  0.00    +0.344 C 
ATOM     10  N   UNL     1       2.858   1.650   0.000  0.00  0.00    -0.187 NA
ATOM     11  O   UNL     1       2.143   2.888   0.000  0.00  0.00    -0.249 OA
BRANCH  10  12
ATOM     12  C   UNL     1       3.572   2.062   0.000  0.00  0.00    +0.117 C 
BRANCH  12  13
ATOM     13  C   UNL     1       4.287   1.650   0.000  0.00  0.00    +0.022 C 
ATOM     14  C   UNL     1       4.699   0.935   0.000  0.00  0.00    +0.002 C 
ATOM     15  C   UNL     1       5.112   1.650   0.000  0.00  0.00    +0.002 C 
ENDBRANCH  12  13
ENDBRANCH  10  12
ENDBRANCH   3   8
BRANCH   1  17
ATOM     16  C   UNL     1      -2.143   2.062   0.000  0.00  0.00    +0.026 C 
ATOM     17  C   UNL     1      -1.429   1.650   0.000  0.00  0.00    +0.106 C 
ENDBRANCH   1  17
TORSDOF 4
