REMARK  Name = 
REMARK  4 active torsions:
REMARK  status: ('A' for Active; 'I' for Inactive)
REMARK    1  A    between atoms: C_2  and  N_3
REMARK    2  A    between atoms: C_2  and  C_18
REMARK    3  A    between atoms: C_4  and  C_6
REMARK    4  A    between atoms: C_11  and  N_12
REMARK                            x       y       z     vdW  Elec       q    Type
REMARK                         _______ _______ _______ _____ _____    ______ ____
ROOT
ATOM      1  C   UNL     1       1.429  -0.825   0.000  0.00  0.00    +0.087 A 
ATOM      2  C   UNL     1       1.429   0.000   0.000  0.00  0.00    +0.136 A 
ATOM      3  N   UNL     1       0.715   0.412   0.000  0.00  0.00    -0.229 NA
ATOM      4  C   UNL     1       0.000   0.000   0.000  0.00  0.00    +0.100 A 
ATOM      5  C   UNL     1       0.000  -0.825   0.000  0.00  0.00    +0.021 A 
ATOM      6  C   UNL     1       0.715  -1.238   0.000  0.00  0.00    +0.009 A 
ENDROOT
BRANCH   2   7
ATOM      7  N   UNL     1       2.143   0.412   0.000  0.00  0.00    -0.288 N 
ATOM      8  C   UNL     1       2.858   0.000   0.000  0.00  0.00    +0.124 C 
ATOM      9  C   UNL     1       3.572   0.412   0.000  0.00  0.00    +0.164 C 
ATOM     10  O   UNL     1       3.572   1.238   0.000  0.00  0.00    -0.350 OA
ATOM     11  C   UNL     1       2.858   1.650   0.000  0.00  0.00    +0.164 C 
ATOM     12  C   UNL     1       2.143   1.238   0.000  0.00  0.00    +0.124 C 
ENDBRANCH   2   7
BRANCH   1  14
ATOM     13  N   UNL     1       2.858  -0.825   0.000  0.00  0.00    -0.194 NA
ATOM     14  C   UNL     1       2.143  -1.238   0.000  0.00  0.00    +0.268 C 
ATOM     15  O   UNL     1       2.143  -2.062   0.000  0.00  0.00    -0.268 OA
BRANCH  13  17
ATOM     16  C   UNL     1       3.572  -2.062   0.000  0.00  0.00    +0.033 C 
ATOM     17  C   UNL     1       3.572  -1.238   0.000  0.00  0.00    +0.172 C 
BRANCH  17  18
ATOM     18  C   UNL     1       4.287  -0.825   0.000  0.00  0.00    +0.246 C 
ATOM     19  N   UNL     1       5.001  -1.238   0.000  0.00  0.00    -0.275 N 
ATOM     20  C   UNL     1       5.001  -2.062   0.000  0.00  0.00    +0.115 C 
ATOM     21  C   UNL     1       5.716  -0.825   0.000  0.00  0.00    +0.115 C 
ATOM     22  O   UNL     1       4.287   0.000   0.000  0.00  0.00    -0.273 OA
ENDBRANCH  17  18
ENDBRANCH  13  17
ENDBRANCH   1  14
TORSDOF 4
