REMARK  Name = 
REMARK  4 active torsions:
REMARK  status: ('A' for Active; 'I' for Inactive)
REMARK    1  A    between atoms: C_2  and  C_4
REMARK    2  A    between atoms: C_4  and  C_5
REMARK    3  A    between atoms: C_5  and  N_6
REMARK    4  A    between atoms: N_9  and  C_10
REMARK                            x       y       z     vdW  Elec       q    Type
REMARK                         _______ _______ _______ _____ _____    ______ ____
ROOT
ATOM      1  N   UNL     1       0.000  -2.475   0.000  0.00  0.00    -0.186 NA
ATOM      2  C   UNL     1       0.715  -2.062   0.000  0.00  0.00    +0.344 C 
ATOM      3  N   UNL     1       1.429  -2.475   0.000  0.00  0.00    -0.159 NA
ATOM      4  O   UNL     1       0.715  -1.238   0.000  0.00  0.00    -0.249 OA
ENDROOT
BRANCH   3   5
ATOM      5  C   UNL     1       2.143  -2.062   0.000  0.00  0.00    +0.094 A 
ATOM      6  C   UNL     1       2.858  -2.475   0.000  0.00  0.00    +0.117 A 
ATOM      7  N   UNL     1       3.572  -2.062   0.000  0.00  0.00    -0.228 NA
ATOM      8  C   UNL     1       3.572  -1.238   0.000  0.00  0.00    +0.132 A 
ATOM      9  N   UNL     1       4.287  -0.825   0.000  0.00  0.00    -0.293 N 
ATOM     10  C   UNL     1       5.040  -1.161   0.000  0.00  0.00    +0.092 C 
ATOM     11  C   UNL     1       5.593  -0.547   0.000  0.00  0.00    +0.023 C 
ATOM     12  C   UNL     1       5.180   0.167   0.000  0.00  0.00    +0.023 C 
ATOM     13  C   UNL     1       4.373  -0.004   0.000  0.00  0.00    +0.092 C 
ATOM     14  C   UNL     1       2.858  -0.825   0.000  0.00  0.00    +0.036 A 
ATOM     15  C   UNL     1       2.143  -1.238   0.000  0.00  0.00    +0.021 A 
ENDBRANCH   3   5
BRANCH   1  16
ATOM     16  C   UNL     1      -0.715  -2.062   0.000  0.00  0.00    +0.126 C 
BRANCH  16  17
ATOM     17  C   UNL     1      -1.429  -2.475   0.000  0.00  0.00    +0.097 C 
ATOM     18  C   UNL     1      -1.711  -1.700   0.000  0.00  0.00    +0.043 C 
ATOM     19  C   UNL     1      -2.524  -1.556   0.000  0.00  0.00    +0.143 C 
ATOM     20  O   UNL     1      -3.054  -2.188   0.000  0.00  0.00    -0.354 OA
ATOM     21  C   UNL     1      -2.772  -2.964   0.000  0.00  0.00    +0.143 C 
ATOM     22  C   UNL     1      -1.959  -3.107   0.000  0.00  0.00    +0.043 C 
BRANCH  17  24
ATOM     23  N   UNL     1      -1.181  -3.882   0.000  0.00  0.00    -0.088 NA
ATOM     24  C   UNL     1      -0.899  -3.107   0.000  0.00  0.00    +0.262 C 
ATOM     25  O   UNL     1      -0.086  -2.964   0.000  0.00  0.00    -0.272 OA
ENDBRANCH  17  24
ENDBRANCH  16  17
ENDBRANCH   1  16
TORSDOF 4
