REMARK  Name = 
REMARK  7 active torsions:
REMARK  status: ('A' for Active; 'I' for Inactive)
REMARK    1  A    between atoms: O_2  and  C_3
REMARK    2  A    between atoms: C_3  and  C_4
REMARK    3  A    between atoms: C_4  and  O_5
REMARK    4  A    between atoms: O_5  and  C_6
REMARK    5  A    between atoms: C_9  and  C_10
REMARK    6  A    between atoms: C_10  and  N_11
REMARK    7  A    between atoms: C_12  and  C_14
REMARK                            x       y       z     vdW  Elec       q    Type
REMARK                         _______ _______ _______ _____ _____    ______ ____
ROOT
ATOM      1  C   UNL     1      -2.143  -4.537   0.000  0.00  0.00    +0.225 A 
ATOM      2  N   UNL     1      -2.143  -5.362   0.000  0.00  0.00    -0.210 NA
ATOM      3  C   UNL     1      -1.429  -5.775   0.000  0.00  0.00    +0.099 A 
ATOM      4  C   UNL     1      -0.715  -5.362   0.000  0.00  0.00    +0.019 A 
ATOM      5  C   UNL     1      -0.715  -4.537   0.000  0.00  0.00    +0.004 A 
ATOM      6  C   UNL     1      -1.429  -4.125   0.000  0.00  0.00    +0.057 A 
ENDROOT
BRANCH   1   7
ATOM      7  O   UNL     1      -2.858  -4.125   0.000  0.00  0.00    -0.457 OA
BRANCH   7   8
ATOM      8  C   UNL     1      -3.572  -4.537   0.000  0.00  0.00    +0.239 C 
BRANCH   8   9
ATOM      9  C   UNL     1      -4.287  -4.125   0.000  0.00  0.00    +0.189 C 
BRANCH   9  11
ATOM     10  C   UNL     1      -5.716  -4.125   0.000  0.00  0.00    +0.174 C 
ATOM     11  O   UNL     1      -5.001  -4.537   0.000  0.00  0.00    -0.347 OA
ENDBRANCH   9  11
ENDBRANCH   8   9
ENDBRANCH   7   8
ENDBRANCH   1   7
BRANCH   4  12
ATOM     12  C   UNL     1       0.000  -5.775   0.000  0.00  0.00    +0.143 C 
BRANCH  12  13
ATOM     13  N   UNL     1       0.000  -6.600   0.000  0.00  0.00    -0.200 NA
ATOM     14  C   UNL     1       0.715  -7.013   0.000  0.00  0.00    +0.243 C 
ATOM     15  O   UNL     1       0.715  -7.838   0.000  0.00  0.00    -0.273 OA
BRANCH  14  16
ATOM     16  C   UNL     1       1.429  -6.600   0.000  0.00  0.00    +0.100 C 
ATOM     17  C   UNL     1       2.143  -7.013   0.000  0.00  0.00    +0.124 C 
ATOM     18  N   UNL     1       2.858  -6.600   0.000  0.00  0.00    -0.205 NA
ATOM     19  C   UNL     1       2.858  -5.775   0.000  0.00  0.00    +0.241 C 
ATOM     20  O   UNL     1       3.572  -5.362   0.000  0.00  0.00    -0.273 OA
ATOM     21  C   UNL     1       2.143  -5.362   0.000  0.00  0.00    +0.087 C 
ATOM     22  C   UNL     1       1.429  -5.775   0.000  0.00  0.00    +0.021 C 
ENDBRANCH  14  16
ENDBRANCH  12  13
ENDBRANCH   4  12
TORSDOF 7
