REMARK  Name = 
REMARK  7 active torsions:
REMARK  status: ('A' for Active; 'I' for Inactive)
REMARK    1  A    between atoms: N_2  and  C_9
REMARK    2  A    between atoms: C_5  and  N_8
REMARK    3  A    between atoms: C_7  and  C_9
REMARK    4  A    between atoms: N_8  and  C_18
REMARK    5  A    between atoms: N_8  and  C_22
REMARK    6  A    between atoms: N_19  and  C_23
REMARK    7  A    between atoms: C_22  and  C_23
REMARK                            x       y       z     vdW  Elec       q    Type
REMARK                         _______ _______ _______ _____ _____    ______ ____
ROOT
ATOM      1  C   UNL     1      -0.717  -1.238   0.000  0.00  0.00    +0.149 A 
ATOM      2  C   UNL     1       0.000  -1.651   0.000  0.00  0.00    +0.154 A 
ATOM      3  N   UNL     1       0.000  -2.477   0.000  0.00  0.00    -0.207 NA
ATOM      4  C   UNL     1      -0.717  -2.889   0.000  0.00  0.00    +0.201 A 
ATOM      5  N   UNL     1      -1.430  -2.477   0.000  0.00  0.00    -0.205 NA
ATOM      6  N   UNL     1      -0.888  -0.429   0.000  0.00  0.00    -0.219 NA
ATOM      7  C   UNL     1      -1.709  -0.342   0.000  0.00  0.00    +0.180 A 
ATOM      8  N   UNL     1      -2.047  -1.096   0.000  0.00  0.00    -0.292 N 
ATOM      9  C   UNL     1      -1.430  -1.651   0.000  0.00  0.00    +0.167 A 
ENDROOT
BRANCH   2  10
ATOM     10  N   UNL     1       0.713  -1.238   0.000  0.00  0.00    -0.292 N 
BRANCH  10  11
ATOM     11  C   UNL     1       0.713  -0.413   0.000  0.00  0.00    +0.074 C 
ATOM     12  C   UNL     1       1.426   0.000   0.000  0.00  0.00    +0.021 C 
ATOM     13  C   UNL     1       0.000   0.000   0.000  0.00  0.00    +0.021 C 
ENDBRANCH  10  11
BRANCH  10  14
ATOM     14  C   UNL     1       1.426  -1.651   0.000  0.00  0.00    +0.116 C 
BRANCH  14  15
ATOM     15  C   UNL     1       2.143  -1.238   0.000  0.00  0.00    +0.137 C 
BRANCH  15  16
ATOM     16  N   UNL     1       2.856  -1.651   0.000  0.00  0.00    -0.204 NA
ATOM     17  C   UNL     1       3.573  -1.238   0.000  0.00  0.00    +0.242 C 
ATOM     18  C   UNL     1       3.573  -0.413   0.000  0.00  0.00    +0.096 C 
ATOM     19  O   UNL     1       4.286  -1.651   0.000  0.00  0.00    -0.273 OA
ENDBRANCH  15  16
ENDBRANCH  14  15
ENDBRANCH  10  14
ENDBRANCH   2  10
BRANCH   8  20
ATOM     20  C   UNL     1      -2.852  -1.267   0.000  0.00  0.00    +0.142 C 
BRANCH  20  21
ATOM     21  C   UNL     1      -3.406  -0.655   0.000  0.00  0.00    +0.174 C 
ATOM     22  O   UNL     1      -2.739  -0.171   0.000  0.00  0.00    -0.221 OA
ATOM     23  C   UNL     1      -3.957  -1.267   0.000  0.00  0.00    +0.067 C 
ATOM     24  C   UNL     1      -4.711  -0.934   0.000  0.00  0.00    +0.145 C 
ATOM     25  O   UNL     1      -4.623  -0.113   0.000  0.00  0.00    -0.354 OA
ATOM     26  C   UNL     1      -3.819   0.058   0.000  0.00  0.00    +0.145 C 
ATOM     27  C   UNL     1      -3.481   0.813   0.000  0.00  0.00    +0.035 C 
ENDBRANCH  20  21
ENDBRANCH   8  20
TORSDOF 7
