REMARK  Name = 
REMARK  3 active torsions:
REMARK  status: ('A' for Active; 'I' for Inactive)
REMARK    1  A    between atoms: N_3  and  C_4
REMARK    2  A    between atoms: N_12  and  C_13
REMARK    3  A    between atoms: N_19  and  C_20
REMARK                            x       y       z     vdW  Elec       q    Type
REMARK                         _______ _______ _______ _____ _____    ______ ____
ROOT
ATOM      1  C   UNL     1       2.858  -2.475   0.000  0.00  0.00    +0.100 C 
ATOM      2  C   UNL     1       2.143  -2.888   0.000  0.00  0.00    +0.043 C 
ATOM      3  C   UNL     1       2.143  -3.712   0.000  0.00  0.00    +0.097 C 
ATOM      4  N   UNL     1       2.858  -4.125   0.000  0.00  0.00    -0.263 N 
ATOM      5  C   UNL     1       2.858  -4.950   0.000  0.00  0.00    +0.323 C 
ATOM      6  N   UNL     1       2.143  -5.362   0.000  0.00  0.00    -0.190 NA
ATOM      7  O   UNL     1       3.572  -5.362   0.000  0.00  0.00    -0.251 OA
ATOM      8  C   UNL     1       3.572  -3.712   0.000  0.00  0.00    +0.097 C 
ATOM      9  C   UNL     1       3.572  -2.888   0.000  0.00  0.00    +0.043 C 
ENDROOT
BRANCH   6  10
ATOM     10  C   UNL     1       2.143  -6.188   0.000  0.00  0.00    +0.097 C 
ATOM     11  C   UNL     1       1.429  -6.600   0.000  0.00  0.00    +0.022 C 
ATOM     12  C   UNL     1       1.429  -7.425   0.000  0.00  0.00    +0.002 C 
ATOM     13  C   UNL     1       2.143  -7.838   0.000  0.00  0.00    +0.000 C 
ATOM     14  C   UNL     1       2.858  -7.425   0.000  0.00  0.00    +0.002 C 
ATOM     15  C   UNL     1       2.858  -6.600   0.000  0.00  0.00    +0.022 C 
ENDBRANCH   6  10
BRANCH   1  19
ATOM     16  O   UNL     1       4.287  -1.650   0.000  0.00  0.00    -0.249 OA
ATOM     17  C   UNL     1       3.572  -1.238   0.000  0.00  0.00    +0.343 C 
ATOM     18  N   UNL     1       3.572  -0.412   0.000  0.00  0.00    -0.161 NA
ATOM     19  N   UNL     1       2.858  -1.650   0.000  0.00  0.00    -0.189 NA
BRANCH  18  20
ATOM     20  C   UNL     1       4.287   0.000   0.000  0.00  0.00    +0.078 A 
ATOM     21  C   UNL     1       5.001  -0.412   0.000  0.00  0.00    +0.037 A 
ATOM     22  C   UNL     1       5.716   0.000   0.000  0.00  0.00    +0.100 A 
ATOM     23  N   UNL     1       5.716   0.825   0.000  0.00  0.00    -0.242 NA
ATOM     24  C   UNL     1       5.001   1.238   0.000  0.00  0.00    +0.100 A 
ATOM     25  C   UNL     1       4.287   0.825   0.000  0.00  0.00    +0.037 A 
ENDBRANCH  18  20
ENDBRANCH   1  19
TORSDOF 3
