REMARK  Name = 
REMARK  4 active torsions:
REMARK  status: ('A' for Active; 'I' for Inactive)
REMARK    1  A    between atoms: C_7  and  C_8
REMARK    2  A    between atoms: C_8  and  C_9
REMARK    3  A    between atoms: C_9  and  N_10
REMARK    4  A    between atoms: N_13  and  C_14
REMARK                            x       y       z     vdW  Elec       q    Type
REMARK                         _______ _______ _______ _____ _____    ______ ____
ROOT
ATOM      1  N   UNL     1       3.572  -0.412   0.000  0.00  0.00    -0.187 NA
ATOM      2  C   UNL     1       4.287  -0.825   0.000  0.00  0.00    +0.339 C 
ATOM      3  N   UNL     1       5.001  -0.412   0.000  0.00  0.00    -0.186 NA
ATOM      4  O   UNL     1       4.287  -1.650   0.000  0.00  0.00    -0.249 OA
ENDROOT
BRANCH   3   5
ATOM      5  C   UNL     1       5.716  -0.825   0.000  0.00  0.00    +0.124 C 
ATOM      6  C   UNL     1       5.802  -1.645   0.000  0.00  0.00    +0.111 C 
ATOM      7  C   UNL     1       4.997  -1.825   0.000  0.00  0.00    +0.031 C 
ATOM      8  C   UNL     1       5.539  -2.427   0.000  0.00  0.00    +0.031 C 
ATOM      9  O   UNL     1       6.609  -1.817   0.000  0.00  0.00    -0.362 OA
ATOM     10  C   UNL     1       7.021  -1.103   0.000  0.00  0.00    +0.095 C 
ATOM     11  C   UNL     1       7.689  -1.587   0.000  0.00  0.00    +0.030 C 
ATOM     12  C   UNL     1       7.574  -0.489   0.000  0.00  0.00    +0.030 C 
ATOM     13  C   UNL     1       6.469  -0.489   0.000  0.00  0.00    +0.051 C 
ENDBRANCH   3   5
BRANCH   1  14
ATOM     14  C   UNL     1       2.858  -0.825   0.000  0.00  0.00    +0.121 C 
BRANCH  14  15
ATOM     15  C   UNL     1       2.143  -0.412   0.000  0.00  0.00    +0.050 C 
BRANCH  15  18
ATOM     16  C   UNL     1       2.143  -2.062   0.000  0.00  0.00    +0.032 C 
ATOM     17  C   UNL     1       1.429  -1.650   0.000  0.00  0.00    -0.007 A 
ATOM     18  C   UNL     1       1.429  -0.825   0.000  0.00  0.00    -0.021 A 
ATOM     19  C   UNL     1       0.715  -0.412   0.000  0.00  0.00    +0.016 A 
ATOM     20  C   UNL     1       0.000  -0.825   0.000  0.00  0.00    +0.099 A 
ATOM     21  N   UNL     1       0.000  -1.650   0.000  0.00  0.00    -0.243 NA
ATOM     22  C   UNL     1       0.715  -2.062   0.000  0.00  0.00    +0.094 A 
ENDBRANCH  15  18
ENDBRANCH  14  15
ENDBRANCH   1  14
TORSDOF 4
