REMARK  Name = 
REMARK  4 active torsions:
REMARK  status: ('A' for Active; 'I' for Inactive)
REMARK    1  A    between atoms: C_5  and  N_8
REMARK    2  A    between atoms: N_11  and  C_12
REMARK    3  A    between atoms: N_15  and  C_16
REMARK    4  A    between atoms: C_16  and  C_17
REMARK                            x       y       z     vdW  Elec       q    Type
REMARK                         _______ _______ _______ _____ _____    ______ ____
ROOT
ATOM      1  N   UNL     1      -0.608   6.828   0.000  0.00  0.00    -0.189 NA
ATOM      2  C   UNL     1      -0.608   6.003   0.000  0.00  0.00    +0.344 C 
ATOM      3  N   UNL     1      -1.322   5.590   0.000  0.00  0.00    -0.158 NA
ATOM      4  O   UNL     1       0.107   5.590   0.000  0.00  0.00    -0.249 OA
ENDROOT
BRANCH   1   9
ATOM      5  C   UNL     1       2.250   8.478   0.000  0.00  0.00    +0.000 C 
ATOM      6  C   UNL     1       1.536   8.065   0.000  0.00  0.00    +0.000 C 
ATOM      7  C   UNL     1       0.821   8.478   0.000  0.00  0.00    +0.002 C 
ATOM      8  C   UNL     1       0.107   8.065   0.000  0.00  0.00    +0.022 C 
ATOM      9  C   UNL     1       0.107   7.240   0.000  0.00  0.00    +0.097 C 
ATOM     10  C   UNL     1       0.821   6.828   0.000  0.00  0.00    +0.022 C 
ATOM     11  C   UNL     1       1.536   7.240   0.000  0.00  0.00    +0.002 C 
ENDBRANCH   1   9
BRANCH   3  12
ATOM     12  C   UNL     1      -1.322   4.765   0.000  0.00  0.00    +0.115 A 
ATOM     13  C   UNL     1      -1.990   4.280   0.000  0.00  0.00    +0.114 A 
ATOM     14  N   UNL     1      -1.735   3.496   0.000  0.00  0.00    -0.239 N 
ATOM     15  N   UNL     1      -0.910   3.496   0.000  0.00  0.00    -0.166 NA
ATOM     16  C   UNL     1      -0.655   4.280   0.000  0.00  0.00    +0.138 A 
BRANCH  14  17
ATOM     17  C   UNL     1      -2.220   2.828   0.000  0.00  0.00    +0.215 C 
BRANCH  17  18
ATOM     18  C   UNL     1      -3.040   2.914   0.000  0.00  0.00    +0.286 C 
ATOM     19  N   UNL     1      -3.376   3.668   0.000  0.00  0.00    -0.086 NA
ATOM     20  O   UNL     1      -3.525   2.247   0.000  0.00  0.00    -0.269 OA
ENDBRANCH  17  18
ENDBRANCH  14  17
ENDBRANCH   3  12
TORSDOF 4
