REMARK  Name = 
REMARK  7 active torsions:
REMARK  status: ('A' for Active; 'I' for Inactive)
REMARK    1  A    between atoms: C_2  and  C_3
REMARK    2  A    between atoms: C_3  and  O_4
REMARK    3  A    between atoms: C_3  and  C_10
REMARK    4  A    between atoms: O_4  and  C_5
REMARK    5  A    between atoms: N_12  and  C_13
REMARK    6  A    between atoms: C_13  and  C_15
REMARK    7  A    between atoms: C_15  and  N_17
REMARK                            x       y       z     vdW  Elec       q    Type
REMARK                         _______ _______ _______ _____ _____    ______ ____
ROOT
ATOM      1  C   UNL     1       3.878  -3.364   0.000  0.00  0.00    +0.269 C 
ATOM      2  N   UNL     1       4.592  -2.952   0.000  0.00  0.00    -0.203 NA
ATOM      3  O   UNL     1       3.878  -4.189   0.000  0.00  0.00    -0.271 OA
ENDROOT
BRANCH   2   4
ATOM      4  C   UNL     1       5.307  -3.364   0.000  0.00  0.00    +0.118 C 
ATOM      5  C   UNL     1       5.307  -4.189   0.000  0.00  0.00    +0.025 C 
BRANCH   4   6
ATOM      6  C   UNL     1       6.021  -2.952   0.000  0.00  0.00    +0.127 C 
ATOM      7  C   UNL     1       6.021  -2.127   0.000  0.00  0.00    +0.028 C 
BRANCH   6   8
ATOM      8  N   UNL     1       6.736  -3.364   0.000  0.00  0.00    -0.230 N 
ATOM      9  N   UNL     1       6.822  -4.185   0.000  0.00  0.00    -0.145 NA
ATOM     10  C   UNL     1       7.629  -4.356   0.000  0.00  0.00    +0.221 A 
ATOM     11  N   UNL     1       8.041  -3.642   0.000  0.00  0.00    -0.201 NA
ATOM     12  C   UNL     1       7.489  -3.029   0.000  0.00  0.00    +0.197 A 
ENDBRANCH   6   8
ENDBRANCH   4   6
ENDBRANCH   2   4
BRANCH   1  13
ATOM     13  C   UNL     1       3.163  -2.952   0.000  0.00  0.00    +0.192 C 
BRANCH  13  15
ATOM     14  C   UNL     1       3.878  -1.714   0.000  0.00  0.00    +0.003 C 
ATOM     15  C   UNL     1       3.163  -2.127   0.000  0.00  0.00    +0.039 C 
ENDBRANCH  13  15
BRANCH  13  16
ATOM     16  O   UNL     1       2.449  -3.364   0.000  0.00  0.00    -0.349 OA
BRANCH  16  17
ATOM     17  C   UNL     1       1.734  -2.952   0.000  0.00  0.00    +0.116 C 
ATOM     18  C   UNL     1       1.648  -2.131   0.000  0.00  0.00    +0.030 C 
ATOM     19  C   UNL     1       0.841  -1.960   0.000  0.00  0.00    +0.003 C 
ATOM     20  C   UNL     1       0.429  -2.674   0.000  0.00  0.00    +0.003 C 
ATOM     21  C   UNL     1       0.981  -3.287   0.000  0.00  0.00    +0.030 C 
ENDBRANCH  16  17
ENDBRANCH  13  16
ENDBRANCH   1  13
TORSDOF 7
