REMARK  Name = 
REMARK  5 active torsions:
REMARK  status: ('A' for Active; 'I' for Inactive)
REMARK    1  A    between atoms: S_2  and  N_5
REMARK    2  A    between atoms: C_9  and  C_10
REMARK    3  A    between atoms: N_12  and  C_13
REMARK    4  A    between atoms: C_13  and  C_14
REMARK    5  A    between atoms: C_14  and  N_15
REMARK                            x       y       z     vdW  Elec       q    Type
REMARK                         _______ _______ _______ _____ _____    ______ ____
ROOT
ATOM      1  C   UNL     1       1.387  -2.408   0.000  0.00  0.00    +0.258 C 
ATOM      2  N   UNL     1       2.102  -1.996   0.000  0.00  0.00    -0.202 NA
ATOM      3  O   UNL     1       1.387  -3.233   0.000  0.00  0.00    -0.272 OA
ENDROOT
BRANCH   1   5
ATOM      4  N   UNL     1      -0.081  -2.331   0.000  0.00  0.00    -0.152 NA
ATOM      5  C   UNL     1       0.672  -1.996   0.000  0.00  0.00    +0.157 C 
ATOM      6  C   UNL     1       0.586  -1.175   0.000  0.00  0.00    +0.029 C 
ATOM      7  C   UNL     1      -0.221  -1.004   0.000  0.00  0.00    +0.021 C 
ATOM      8  C   UNL     1      -0.633  -1.718   0.000  0.00  0.00    +0.096 C 
BRANCH   4  10
ATOM      9  C   UNL     1      -0.424  -3.945   0.000  0.00  0.00    +0.196 C 
ATOM     10  S   UNL     1      -0.253  -3.138   0.000  0.00  0.00    +0.046 S 
ATOM     11  O   UNL     1      -1.060  -2.967   0.000  0.00  0.00    -0.157 OA
ATOM     12  O   UNL     1       0.554  -3.310   0.000  0.00  0.00    -0.157 OA
ENDBRANCH   4  10
ENDBRANCH   1   5
BRANCH   2  13
ATOM     13  C   UNL     1       2.816  -2.408   0.000  0.00  0.00    +0.140 C 
BRANCH  13  14
ATOM     14  C   UNL     1       3.530  -1.996   0.000  0.00  0.00    +0.131 C 
BRANCH  14  15
ATOM     15  N   UNL     1       4.245  -2.408   0.000  0.00  0.00    -0.306 N 
ATOM     16  C   UNL     1       4.331  -3.229   0.000  0.00  0.00    +0.179 A 
ATOM     17  N   UNL     1       5.138  -3.400   0.000  0.00  0.00    -0.222 NA
ATOM     18  C   UNL     1       5.551  -2.686   0.000  0.00  0.00    +0.119 A 
ATOM     19  C   UNL     1       4.999  -2.073   0.000  0.00  0.00    +0.098 A 
ENDBRANCH  14  15
ENDBRANCH  13  14
ENDBRANCH   2  13
TORSDOF 5
