REMARK  Name = 
REMARK  5 active torsions:
REMARK  status: ('A' for Active; 'I' for Inactive)
REMARK    1  A    between atoms: N_2  and  C_9
REMARK    2  A    between atoms: C_4  and  N_5
REMARK    3  A    between atoms: C_12  and  C_24
REMARK    4  A    between atoms: C_12  and  C_25
REMARK    5  A    between atoms: N_13  and  C_26
REMARK                            x       y       z     vdW  Elec       q    Type
REMARK                         _______ _______ _______ _____ _____    ______ ____
ROOT
ATOM      1  C   UNL     1       4.074   0.956   0.000  0.00  0.00    +0.149 A 
ATOM      2  N   UNL     1       3.285   1.210   0.000  0.00  0.00    -0.219 NA
ATOM      3  C   UNL     1       2.800   0.543   0.000  0.00  0.00    +0.180 A 
ATOM      4  N   UNL     1       3.285  -0.125   0.000  0.00  0.00    -0.296 N 
ATOM      5  C   UNL     1       4.787   1.369   0.000  0.00  0.00    +0.154 A 
ATOM      6  N   UNL     1       5.501   0.956   0.000  0.00  0.00    -0.207 NA
ATOM      7  C   UNL     1       5.501   0.129   0.000  0.00  0.00    +0.201 A 
ATOM      8  N   UNL     1       4.787  -0.284   0.000  0.00  0.00    -0.205 NA
ATOM      9  C   UNL     1       4.074   0.129   0.000  0.00  0.00    +0.167 A 
ENDROOT
BRANCH   5  10
ATOM     10  N   UNL     1       4.787   2.195   0.000  0.00  0.00    -0.287 N 
ATOM     11  C   UNL     1       5.501   2.609   0.000  0.00  0.00    +0.124 C 
ATOM     12  C   UNL     1       5.501   3.435   0.000  0.00  0.00    +0.163 C 
ATOM     13  O   UNL     1       4.787   3.848   0.000  0.00  0.00    -0.353 OA
ATOM     14  C   UNL     1       4.074   3.435   0.000  0.00  0.00    +0.136 C 
ATOM     15  C   UNL     1       3.356   3.848   0.000  0.00  0.00    +0.049 C 
ATOM     16  C   UNL     1       2.642   3.435   0.000  0.00  0.00    +0.075 C 
ATOM     17  N   UNL     1       2.642   2.609   0.000  0.00  0.00    -0.271 NA
ATOM     18  C   UNL     1       3.356   2.195   0.000  0.00  0.00    +0.095 C 
ATOM     19  C   UNL     1       4.074   2.609   0.000  0.00  0.00    +0.117 C 
BRANCH  17  20
ATOM     20  C   UNL     1       1.924   2.195   0.000  0.00  0.00    +0.072 C 
ATOM     21  C   UNL     1       1.210   2.609   0.000  0.00  0.00    +0.019 C 
ENDBRANCH  17  20
ENDBRANCH   5  10
BRANCH   4  22
ATOM     22  C   UNL     1       3.030  -0.914   0.000  0.00  0.00    +0.089 C 
ATOM     23  C   UNL     1       2.296  -1.285   0.000  0.00  0.00    +0.028 C 
ATOM     24  C   UNL     1       2.671  -2.024   0.000  0.00  0.00    +0.065 C 
ATOM     25  C   UNL     1       3.406  -1.649   0.000  0.00  0.00    +0.028 C 
BRANCH  24  26
ATOM     26  C   UNL     1       3.043  -2.759   0.000  0.00  0.00    +0.185 C 
ATOM     27  O   UNL     1       3.869  -2.805   0.000  0.00  0.00    -0.220 OA
ENDBRANCH  24  26
BRANCH  24  28
ATOM     28  C   UNL     1       1.932  -2.400   0.000  0.00  0.00    +0.185 C 
ATOM     29  O   UNL     1       1.240  -1.949   0.000  0.00  0.00    -0.220 OA
ENDBRANCH  24  28
ENDBRANCH   4  22
TORSDOF 5
