REMARK  Name = 
REMARK  5 active torsions:
REMARK  status: ('A' for Active; 'I' for Inactive)
REMARK    1  A    between atoms: C_2  and  N_4
REMARK    2  A    between atoms: N_4  and  S_6
REMARK    3  A    between atoms: S_6  and  N_9
REMARK    4  A    between atoms: N_9  and  C_10
REMARK    5  A    between atoms: C_10  and  C_11
REMARK                            x       y       z     vdW  Elec       q    Type
REMARK                         _______ _______ _______ _____ _____    ______ ____
ROOT
ATOM      1  C   UNL     1       0.715  -1.238   0.000  0.00  0.00    +0.016 A 
ATOM      2  C   UNL     1       0.000  -1.650   0.000  0.00  0.00    +0.097 A 
ATOM      3  N   UNL     1       0.000  -2.475   0.000  0.00  0.00    -0.229 NA
ATOM      4  C   UNL     1       0.715  -2.888   0.000  0.00  0.00    +0.132 A 
ATOM      5  N   UNL     1       0.715  -3.712   0.000  0.00  0.00    -0.288 N 
ATOM      6  C   UNL     1       0.000  -4.125   0.000  0.00  0.00    +0.124 C 
ATOM      7  C   UNL     1       0.000  -4.950   0.000  0.00  0.00    +0.164 C 
ATOM      8  O   UNL     1       0.715  -5.362   0.000  0.00  0.00    -0.350 OA
ATOM      9  C   UNL     1       1.429  -4.950   0.000  0.00  0.00    +0.164 C 
ATOM     10  C   UNL     1       1.429  -4.125   0.000  0.00  0.00    +0.124 C 
ATOM     11  C   UNL     1       1.429  -2.475   0.000  0.00  0.00    +0.034 A 
ATOM     12  C   UNL     1       1.429  -1.650   0.000  0.00  0.00    +0.002 A 
ENDROOT
BRANCH   1  13
ATOM     13  C   UNL     1       0.715  -0.412   0.000  0.00  0.00    +0.144 C 
BRANCH  13  14
ATOM     14  N   UNL     1       0.000   0.000   0.000  0.00  0.00    -0.062 NA
BRANCH  14  15
ATOM     15  S   UNL     1       0.000   0.825   0.000  0.00  0.00    +0.116 S 
ATOM     16  O   UNL     1       0.825   0.825   0.000  0.00  0.00    -0.140 OA
ATOM     17  O   UNL     1      -0.825   0.825   0.000  0.00  0.00    -0.140 OA
BRANCH  15  18
ATOM     18  N   UNL     1       0.000   1.650   0.000  0.00  0.00    -0.144 NA
ATOM     19  C   UNL     1       0.715   2.062   0.000  0.00  0.00    +0.116 C 
BRANCH  18  21
ATOM     20  C   UNL     1      -0.715   2.888   0.000  0.00  0.00    +0.019 C 
ATOM     21  C   UNL     1      -0.715   2.062   0.000  0.00  0.00    +0.081 C 
ATOM     22  C   UNL     1      -1.429   1.650   0.000  0.00  0.00    +0.019 C 
ENDBRANCH  18  21
ENDBRANCH  15  18
ENDBRANCH  14  15
ENDBRANCH  13  14
ENDBRANCH   1  13
TORSDOF 5
