REMARK  Name = 
REMARK  3 active torsions:
REMARK  status: ('A' for Active; 'I' for Inactive)
REMARK    1  A    between atoms: N_1  and  C_8
REMARK    2  A    between atoms: C_13  and  C_21
REMARK    3  A    between atoms: C_13  and  C_22
REMARK                            x       y       z     vdW  Elec       q    Type
REMARK                         _______ _______ _______ _____ _____    ______ ____
ROOT
ATOM      1  N   UNL     1      -2.046  -1.096   0.000  0.00  0.00    -0.296 N 
ATOM      2  C   UNL     1      -1.708  -0.342   0.000  0.00  0.00    +0.180 A 
ATOM      3  N   UNL     1      -0.887  -0.429   0.000  0.00  0.00    -0.219 NA
ATOM      4  C   UNL     1      -0.717  -1.237   0.000  0.00  0.00    +0.149 A 
ATOM      5  C   UNL     1       0.000  -1.650   0.000  0.00  0.00    +0.154 A 
ATOM      6  N   UNL     1       0.000  -2.475   0.000  0.00  0.00    -0.207 NA
ATOM      7  C   UNL     1      -0.717  -2.887   0.000  0.00  0.00    +0.201 A 
ATOM      8  N   UNL     1      -1.429  -2.475   0.000  0.00  0.00    -0.205 NA
ATOM      9  N   UNL     1       0.712  -1.237   0.000  0.00  0.00    -0.292 N 
ATOM     10  C   UNL     1       0.712  -0.412   0.000  0.00  0.00    +0.095 C 
ATOM     11  C   UNL     1       1.425   0.000   0.000  0.00  0.00    +0.052 C 
ATOM     12  C   UNL     1       2.141  -0.412   0.000  0.00  0.00    +0.130 C 
ATOM     13  C   UNL     1       2.854   0.000   0.000  0.00  0.00    +0.031 C 
ATOM     14  C   UNL     1       3.570  -0.412   0.000  0.00  0.00    +0.003 C 
ATOM     15  C   UNL     1       3.570  -1.237   0.000  0.00  0.00    +0.000 C 
ATOM     16  C   UNL     1       2.854  -1.650   0.000  0.00  0.00    +0.004 C 
ATOM     17  O   UNL     1       2.141   0.412   0.000  0.00  0.00    -0.226 OA
ATOM     18  C   UNL     1       2.141  -1.237   0.000  0.00  0.00    +0.048 C 
ATOM     19  C   UNL     1       1.425  -1.650   0.000  0.00  0.00    +0.095 C 
ATOM     20  C   UNL     1      -1.429  -1.650   0.000  0.00  0.00    +0.167 A 
ENDROOT
BRANCH   1  21
ATOM     21  C   UNL     1      -2.850  -1.266   0.000  0.00  0.00    +0.089 C 
ATOM     22  C   UNL     1      -3.300  -1.958   0.000  0.00  0.00    +0.028 C 
ATOM     23  C   UNL     1      -3.991  -1.508   0.000  0.00  0.00    +0.065 C 
ATOM     24  C   UNL     1      -3.541  -0.817   0.000  0.00  0.00    +0.028 C 
BRANCH  23  25
ATOM     25  C   UNL     1      -4.683  -1.062   0.000  0.00  0.00    +0.185 C 
ATOM     26  O   UNL     1      -4.641  -0.237   0.000  0.00  0.00    -0.220 OA
ENDBRANCH  23  25
BRANCH  23  27
ATOM     27  C   UNL     1      -4.441  -2.200   0.000  0.00  0.00    +0.185 C 
ATOM     28  O   UNL     1      -4.066  -2.937   0.000  0.00  0.00    -0.220 OA
ENDBRANCH  23  27
ENDBRANCH   1  21
TORSDOF 3
