REMARK  Name = 
REMARK  6 active torsions:
REMARK  status: ('A' for Active; 'I' for Inactive)
REMARK    1  A    between atoms: C_2  and  C_3
REMARK    2  A    between atoms: C_3  and  C_4
REMARK    3  A    between atoms: C_3  and  N_6
REMARK    4  A    between atoms: C_7  and  C_9
REMARK    5  A    between atoms: C_9  and  N_10
REMARK    6  A    between atoms: C_14  and  C_15
REMARK                            x       y       z     vdW  Elec       q    Type
REMARK                         _______ _______ _______ _____ _____    ______ ____
ROOT
ATOM      1  N   UNL     1       6.893  -2.409   0.000  0.00  0.00    -0.208 N 
ATOM      2  C   UNL     1       7.714  -2.323   0.000  0.00  0.00    +0.161 A 
ATOM      3  N   UNL     1       7.885  -1.516   0.000  0.00  0.00    -0.113 NA
ATOM      4  N   UNL     1       7.171  -1.103   0.000  0.00  0.00    -0.023 NA
ATOM      5  N   UNL     1       6.558  -1.655   0.000  0.00  0.00    -0.043 NA
ENDROOT
BRANCH   2   6
ATOM      6  C   UNL     1       8.266  -2.936   0.000  0.00  0.00    +0.060 C 
ATOM      7  C   UNL     1       8.011  -3.721   0.000  0.00  0.00    +0.008 C 
ATOM      8  C   UNL     1       8.563  -4.334   0.000  0.00  0.00    +0.000 C 
ATOM      9  C   UNL     1       9.370  -4.162   0.000  0.00  0.00    +0.000 C 
ATOM     10  C   UNL     1       9.625  -3.377   0.000  0.00  0.00    +0.000 C 
ATOM     11  C   UNL     1       9.073  -2.764   0.000  0.00  0.00    +0.008 C 
ENDBRANCH   2   6
BRANCH   1  12
ATOM     12  C   UNL     1       6.481  -3.124   0.000  0.00  0.00    +0.217 C 
BRANCH  12  14
ATOM     13  N   UNL     1       5.243  -3.838   0.000  0.00  0.00    -0.206 NA
ATOM     14  C   UNL     1       5.656  -3.124   0.000  0.00  0.00    +0.266 C 
ATOM     15  O   UNL     1       5.243  -2.409   0.000  0.00  0.00    -0.271 OA
BRANCH  13  16
ATOM     16  C   UNL     1       4.418  -3.838   0.000  0.00  0.00    +0.095 C 
BRANCH  16  17
ATOM     17  C   UNL     1       4.006  -3.124   0.000  0.00  0.00    +0.022 C 
ATOM     18  C   UNL     1       4.418  -2.409   0.000  0.00  0.00    +0.002 C 
ENDBRANCH  16  17
BRANCH  16  20
ATOM     19  C   UNL     1       3.181  -4.553   0.000  0.00  0.00    +0.002 C 
ATOM     20  C   UNL     1       4.006  -4.553   0.000  0.00  0.00    +0.022 C 
ENDBRANCH  16  20
ENDBRANCH  13  16
ENDBRANCH  12  14
ENDBRANCH   1  12
TORSDOF 6
