REMARK  Name = 
REMARK  5 active torsions:
REMARK  status: ('A' for Active; 'I' for Inactive)
REMARK    1  A    between atoms: C_3  and  C_5
REMARK    2  A    between atoms: C_5  and  N_6
REMARK    3  A    between atoms: C_9  and  N_12
REMARK    4  A    between atoms: N_15  and  C_16
REMARK    5  A    between atoms: C_21  and  O_22
REMARK                            x       y       z     vdW  Elec       q    Type
REMARK                         _______ _______ _______ _____ _____    ______ ____
ROOT
ATOM      1  N   UNL     1      -2.143  -3.712   0.000  0.00  0.00    -0.189 NA
ATOM      2  C   UNL     1      -2.858  -4.125   0.000  0.00  0.00    +0.344 C 
ATOM      3  N   UNL     1      -2.858  -4.950   0.000  0.00  0.00    -0.156 NA
ATOM      4  O   UNL     1      -3.572  -3.712   0.000  0.00  0.00    -0.249 OA
ENDROOT
BRANCH   1   8
ATOM      5  N   UNL     1      -2.143  -1.238   0.000  0.00  0.00    -0.265 NA
ATOM      6  C   UNL     1      -2.858  -1.650   0.000  0.00  0.00    +0.074 C 
ATOM      7  C   UNL     1      -2.858  -2.475   0.000  0.00  0.00    +0.039 C 
ATOM      8  C   UNL     1      -2.143  -2.888   0.000  0.00  0.00    +0.100 C 
ATOM      9  C   UNL     1      -1.429  -2.475   0.000  0.00  0.00    +0.039 C 
ATOM     10  C   UNL     1      -1.429  -1.650   0.000  0.00  0.00    +0.074 C 
BRANCH   5  11
ATOM     11  C   UNL     1      -2.143  -0.412   0.000  0.00  0.00    +0.160 C 
BRANCH  11  14
ATOM     12  C   UNL     1      -3.572   1.238   0.000  0.00  0.00    +0.139 C 
ATOM     13  N   UNL     1      -2.858   0.825   0.000  0.00  0.00    -0.202 NA
ATOM     14  C   UNL     1      -2.858   0.000   0.000  0.00  0.00    +0.258 C 
ATOM     15  O   UNL     1      -3.572  -0.412   0.000  0.00  0.00    -0.272 OA
ENDBRANCH  11  14
ENDBRANCH   5  11
ENDBRANCH   1   8
BRANCH   3  16
ATOM     16  C   UNL     1      -2.143  -5.362   0.000  0.00  0.00    +0.128 A 
ATOM     17  C   UNL     1      -2.143  -6.188   0.000  0.00  0.00    +0.241 A 
ATOM     18  N   UNL     1      -1.429  -6.600   0.000  0.00  0.00    -0.209 NA
ATOM     19  C   UNL     1      -0.715  -6.188   0.000  0.00  0.00    +0.102 A 
ATOM     20  C   UNL     1      -0.715  -5.362   0.000  0.00  0.00    +0.022 A 
ATOM     21  C   UNL     1      -1.429  -4.950   0.000  0.00  0.00    +0.023 A 
BRANCH  17  22
ATOM     22  O   UNL     1      -2.858  -6.600   0.000  0.00  0.00    -0.455 OA
ATOM     23  C   UNL     1      -3.572  -6.188   0.000  0.00  0.00    +0.254 C 
ENDBRANCH  17  22
ENDBRANCH   3  16
TORSDOF 5
