REMARK  Name = 
REMARK  2 active torsions:
REMARK  status: ('A' for Active; 'I' for Inactive)
REMARK    1  A    between atoms: C_2  and  C_4
REMARK    2  A    between atoms: C_4  and  C_5
REMARK                            x       y       z     vdW  Elec       q    Type
REMARK                         _______ _______ _______ _____ _____    ______ ____
ROOT
ATOM      1  C   UNL     1       0.568   1.114   0.000  0.00  0.00    +0.083 A 
ATOM      2  N   UNL     1      -0.100   0.629   0.000  0.00  0.00    -0.153 NA
ATOM      3  N   UNL     1       0.155  -0.155   0.000  0.00  0.00    -0.153 NA
ATOM      4  C   UNL     1       0.980  -0.155   0.000  0.00  0.00    +0.082 A 
ATOM      5  C   UNL     1       1.465  -0.823   0.000  0.00  0.00    +0.054 C 
ATOM      6  C   UNL     1       1.235   0.629   0.000  0.00  0.00    +0.033 A 
ENDROOT
BRANCH   1   7
ATOM      7  C   UNL     1       0.568   1.939   0.000  0.00  0.00    +0.067 C 
BRANCH   7   9
ATOM      8  C   UNL     1      -0.147   3.177   0.000  0.00  0.00    +0.021 C 
ATOM      9  C   UNL     1      -0.147   2.352   0.000  0.00  0.00    +0.098 C 
ATOM     10  N   UNL     1      -0.861   1.939   0.000  0.00  0.00    -0.133 NA
ENDBRANCH   7   9
ENDBRANCH   1   7
TORSDOF 2
