REMARK  Name = 
REMARK  4 active torsions:
REMARK  status: ('A' for Active; 'I' for Inactive)
REMARK    1  A    between atoms: C_2  and  N_3
REMARK    2  A    between atoms: N_6  and  C_9
REMARK    3  A    between atoms: C_9  and  C_11
REMARK    4  A    between atoms: C_11  and  N_12
REMARK                            x       y       z     vdW  Elec       q    Type
REMARK                         _______ _______ _______ _____ _____    ______ ____
ROOT
ATOM      1  C   UNL     1       0.715   2.062   0.000  0.00  0.00    +0.079 C 
ATOM      2  C   UNL     1       0.715   2.888   0.000  0.00  0.00    +0.019 C 
ENDROOT
BRANCH   1   6
ATOM      3  N   UNL     1      -1.429   0.825   0.000  0.00  0.00    -0.270 NA
ATOM      4  C   UNL     1      -0.715   0.412   0.000  0.00  0.00    +0.090 C 
ATOM      5  C   UNL     1       0.000   0.825   0.000  0.00  0.00    +0.090 C 
ATOM      6  N   UNL     1       0.000   1.650   0.000  0.00  0.00    -0.270 NA
ATOM      7  C   UNL     1      -0.715   2.062   0.000  0.00  0.00    +0.090 C 
ATOM      8  C   UNL     1      -1.429   1.650   0.000  0.00  0.00    +0.090 C 
BRANCH   3  10
ATOM      9  C   UNL     1      -2.143  -0.412   0.000  0.00  0.00    +0.019 C 
ATOM     10  C   UNL     1      -2.143   0.412   0.000  0.00  0.00    +0.072 C 
ENDBRANCH   3  10
ENDBRANCH   1   6
BRANCH   1  11
ATOM     11  C   UNL     1       1.429   1.650   0.000  0.00  0.00    +0.133 C 
BRANCH  11  12
ATOM     12  N   UNL     1       2.143   2.062   0.000  0.00  0.00    -0.185 NA
ATOM     13  C   UNL     1       2.858   1.650   0.000  0.00  0.00    +0.345 C 
ATOM     14  N   UNL     1       3.572   2.062   0.000  0.00  0.00    -0.136 NA
ATOM     15  C   UNL     1       4.287   1.650   0.000  0.00  0.00    +0.187 A 
ATOM     16  S   UNL     1       4.373   0.830   0.000  0.00  0.00    -0.049 S 
ATOM     17  C   UNL     1       5.180   0.658   0.000  0.00  0.00    +0.059 A 
ATOM     18  C   UNL     1       5.593   1.373   0.000  0.00  0.00    +0.108 A 
ATOM     19  N   UNL     1       5.040   1.986   0.000  0.00  0.00    -0.221 NA
ATOM     20  O   UNL     1       2.858   0.825   0.000  0.00  0.00    -0.249 OA
ENDBRANCH  11  12
ENDBRANCH   1  11
TORSDOF 4
