REMARK  Name = 
REMARK  5 active torsions:
REMARK  status: ('A' for Active; 'I' for Inactive)
REMARK    1  A    between atoms: N_7  and  C_8
REMARK    2  A    between atoms: C_8  and  C_9
REMARK    3  A    between atoms: N_11  and  C_12
REMARK    4  A    between atoms: C_12  and  C_13
REMARK    5  A    between atoms: C_13  and  N_16
REMARK                            x       y       z     vdW  Elec       q    Type
REMARK                         _______ _______ _______ _____ _____    ______ ____
ROOT
ATOM      1  C   UNL     1       0.715  -7.013   0.000  0.00  0.00    +0.265 C 
ATOM      2  N   UNL     1       0.000  -7.425   0.000  0.00  0.00    -0.202 NA
ATOM      3  O   UNL     1       1.429  -7.425   0.000  0.00  0.00    -0.271 OA
ENDROOT
BRANCH   1   4
ATOM      4  C   UNL     1       0.715  -6.188   0.000  0.00  0.00    +0.197 C 
BRANCH   4   9
ATOM      5  C   UNL     1       2.143  -3.712   0.000  0.00  0.00    +0.138 C 
ATOM      6  N   UNL     1       2.143  -4.537   0.000  0.00  0.00    -0.247 N 
ATOM      7  C   UNL     1       1.429  -4.950   0.000  0.00  0.00    +0.334 A 
ATOM      8  O   UNL     1       0.715  -4.537   0.000  0.00  0.00    -0.246 OA
ATOM      9  N   UNL     1       1.429  -5.775   0.000  0.00  0.00    -0.271 N 
ATOM     10  C   UNL     1       2.143  -6.188   0.000  0.00  0.00    +0.085 A 
ATOM     11  C   UNL     1       2.858  -5.775   0.000  0.00  0.00    +0.080 A 
ATOM     12  C   UNL     1       2.858  -4.950   0.000  0.00  0.00    +0.266 A 
ATOM     13  O   UNL     1       3.572  -4.537   0.000  0.00  0.00    -0.267 OA
ENDBRANCH   4   9
ENDBRANCH   1   4
BRANCH   2  14
ATOM     14  C   UNL     1       0.000  -8.250   0.000  0.00  0.00    +0.130 C 
BRANCH  14  15
ATOM     15  C   UNL     1      -0.715  -8.662   0.000  0.00  0.00    +0.066 C 
ATOM     16  C   UNL     1      -0.302  -9.377   0.000  0.00  0.00    +0.018 C 
ATOM     17  C   UNL     1      -1.127  -7.948   0.000  0.00  0.00    +0.018 C 
BRANCH  15  18
ATOM     18  N   UNL     1      -1.429  -9.075   0.000  0.00  0.00    -0.269 NA
ATOM     19  C   UNL     1      -2.143  -8.662   0.000  0.00  0.00    +0.105 C 
ATOM     20  C   UNL     1      -2.858  -9.075   0.000  0.00  0.00    +0.159 C 
ATOM     21  O   UNL     1      -2.858  -9.900   0.000  0.00  0.00    -0.351 OA
ATOM     22  C   UNL     1      -2.143 -10.312   0.000  0.00  0.00    +0.159 C 
ATOM     23  C   UNL     1      -1.429  -9.900   0.000  0.00  0.00    +0.105 C 
ENDBRANCH  15  18
ENDBRANCH  14  15
ENDBRANCH   2  14
TORSDOF 5
