REMARK  Name = 
REMARK  4 active torsions:
REMARK  status: ('A' for Active; 'I' for Inactive)
REMARK    1  A    between atoms: C_7  and  C_8
REMARK    2  A    between atoms: C_8  and  C_9
REMARK    3  A    between atoms: C_9  and  N_10
REMARK    4  A    between atoms: C_16  and  C_20
REMARK                            x       y       z     vdW  Elec       q    Type
REMARK                         _______ _______ _______ _____ _____    ______ ____
ROOT
ATOM      1  N   UNL     1       2.143  -2.888   0.000  0.00  0.00    -0.188 NA
ATOM      2  C   UNL     1       2.858  -2.475   0.000  0.00  0.00    +0.323 C 
ATOM      3  N   UNL     1       3.572  -2.888   0.000  0.00  0.00    -0.263 N 
ATOM      4  C   UNL     1       3.572  -3.712   0.000  0.00  0.00    +0.098 C 
ATOM      5  C   UNL     1       4.287  -4.125   0.000  0.00  0.00    +0.061 C 
ATOM      6  C   UNL     1       5.001  -3.712   0.000  0.00  0.00    +0.216 C 
ATOM      7  O   UNL     1       5.814  -3.569   0.000  0.00  0.00    -0.217 OA
ATOM      8  C   UNL     1       5.001  -2.888   0.000  0.00  0.00    +0.061 C 
ATOM      9  C   UNL     1       4.287  -2.475   0.000  0.00  0.00    +0.098 C 
ATOM     10  O   UNL     1       2.858  -1.650   0.000  0.00  0.00    -0.251 OA
ENDROOT
BRANCH   6  11
ATOM     11  C   UNL     1       5.284  -4.488   0.000  0.00  0.00    +0.423 C 
ATOM     12  F   UNL     1       6.059  -4.206   0.000  0.00  0.00    -0.167 F 
ATOM     13  F   UNL     1       4.508  -4.770   0.000  0.00  0.00    -0.167 F 
ATOM     14  F   UNL     1       5.566  -5.263   0.000  0.00  0.00    -0.167 F 
ENDBRANCH   6  11
BRANCH   1  15
ATOM     15  C   UNL     1       1.429  -2.475   0.000  0.00  0.00    +0.121 C 
BRANCH  15  16
ATOM     16  C   UNL     1       0.715  -2.888   0.000  0.00  0.00    +0.050 C 
BRANCH  16  19
ATOM     17  C   UNL     1      -0.715  -3.712   0.000  0.00  0.00    +0.032 C 
ATOM     18  C   UNL     1      -0.715  -2.888   0.000  0.00  0.00    -0.007 A 
ATOM     19  C   UNL     1       0.000  -2.475   0.000  0.00  0.00    -0.021 A 
ATOM     20  C   UNL     1       0.000  -1.650   0.000  0.00  0.00    +0.016 A 
ATOM     21  C   UNL     1      -0.715  -1.238   0.000  0.00  0.00    +0.099 A 
ATOM     22  N   UNL     1      -1.429  -1.650   0.000  0.00  0.00    -0.243 NA
ATOM     23  C   UNL     1      -1.429  -2.475   0.000  0.00  0.00    +0.094 A 
ENDBRANCH  16  19
ENDBRANCH  15  16
ENDBRANCH   1  15
TORSDOF 4
