REMARK  Name = 
REMARK  3 active torsions:
REMARK  status: ('A' for Active; 'I' for Inactive)
REMARK    1  A    between atoms: S_2  and  C_3
REMARK    2  A    between atoms: C_3  and  C_5
REMARK    3  A    between atoms: C_11  and  N_14
REMARK                            x       y       z     vdW  Elec       q    Type
REMARK                         _______ _______ _______ _____ _____    ______ ____
ROOT
ATOM      1  C   UNL     1       2.143  -5.362   0.000  0.00  0.00    +0.257 C 
ATOM      2  N   UNL     1       2.858  -4.950   0.000  0.00  0.00    -0.160 NA
ATOM      3  C   UNL     1       3.572  -5.362   0.000  0.00  0.00    +0.155 A 
ATOM      4  N   UNL     1       3.572  -6.188   0.000  0.00  0.00    -0.226 NA
ATOM      5  C   UNL     1       4.287  -6.600   0.000  0.00  0.00    +0.115 A 
ATOM      6  C   UNL     1       5.001  -6.188   0.000  0.00  0.00    +0.068 A 
ATOM      7  C   UNL     1       5.001  -5.362   0.000  0.00  0.00    +0.019 A 
ATOM      8  C   UNL     1       4.287  -4.950   0.000  0.00  0.00    +0.037 A 
ATOM      9  O   UNL     1       2.143  -6.188   0.000  0.00  0.00    -0.272 OA
ENDROOT
BRANCH   6  10
ATOM     10  N   UNL     1       5.716  -6.600   0.000  0.00  0.00    -0.302 N 
ATOM     11  C   UNL     1       5.716  -7.425   0.000  0.00  0.00    +0.123 C 
ATOM     12  C   UNL     1       6.430  -7.838   0.000  0.00  0.00    +0.164 C 
ATOM     13  O   UNL     1       7.145  -7.425   0.000  0.00  0.00    -0.350 OA
ATOM     14  C   UNL     1       7.145  -6.600   0.000  0.00  0.00    +0.164 C 
ATOM     15  C   UNL     1       6.430  -6.188   0.000  0.00  0.00    +0.123 C 
ENDBRANCH   6  10
BRANCH   1  16
ATOM     16  C   UNL     1       1.429  -4.950   0.000  0.00  0.00    +0.126 C 
ATOM     17  C   UNL     1       1.429  -4.125   0.000  0.00  0.00    +0.021 C 
BRANCH  16  19
ATOM     18  C   UNL     1       0.000  -4.950   0.000  0.00  0.00    +0.070 C 
ATOM     19  S   UNL     1       0.715  -5.362   0.000  0.00  0.00    -0.131 S 
ENDBRANCH  16  19
ENDBRANCH   1  16
TORSDOF 3
