REMARK  Name = 
REMARK  4 active torsions:
REMARK  status: ('A' for Active; 'I' for Inactive)
REMARK    1  A    between atoms: C_2  and  C_3
REMARK    2  A    between atoms: C_3  and  N_4
REMARK    3  A    between atoms: C_5  and  C_6
REMARK    4  A    between atoms: C_6  and  C_7
REMARK                            x       y       z     vdW  Elec       q    Type
REMARK                         _______ _______ _______ _____ _____    ______ ____
ROOT
ATOM      1  N   UNL     1       1.139  -1.365   0.000  0.00  0.00    -0.312 N 
ATOM      2  C   UNL     1       1.923  -1.110   0.000  0.00  0.00    +0.079 A 
ATOM      3  C   UNL     1       1.923  -0.285   0.000  0.00  0.00    +0.098 A 
ATOM      4  C   UNL     1       2.638   0.127   0.000  0.00  0.00    +0.021 A 
ATOM      5  C   UNL     1       3.352  -0.285   0.000  0.00  0.00    +0.002 A 
ATOM      6  C   UNL     1       3.352  -1.110   0.000  0.00  0.00    +0.002 A 
ATOM      7  N   UNL     1       1.139  -0.030   0.000  0.00  0.00    -0.231 NA
ATOM      8  C   UNL     1       2.638  -1.523   0.000  0.00  0.00    +0.019 A 
ATOM      9  C   UNL     1       0.654  -0.698   0.000  0.00  0.00    +0.125 A 
ENDROOT
BRANCH   1  10
ATOM     10  C   UNL     1       0.884  -2.150   0.000  0.00  0.00    +0.143 C 
BRANCH  10  12
ATOM     11  O   UNL     1       1.181  -3.548   0.000  0.00  0.00    -0.218 OA
ATOM     12  C   UNL     1       1.436  -2.763   0.000  0.00  0.00    +0.206 C 
ENDBRANCH  10  12
ENDBRANCH   1  10
BRANCH   9  13
ATOM     13  C   UNL     1      -0.171  -0.698   0.000  0.00  0.00    +0.090 C 
BRANCH  13  14
ATOM     14  C   UNL     1      -0.584   0.017   0.000  0.00  0.00    -0.015 A 
ATOM     15  C   UNL     1      -0.171   0.731   0.000  0.00  0.00    -0.004 A 
ATOM     16  C   UNL     1      -0.584   1.446   0.000  0.00  0.00    -0.000 A 
ATOM     17  C   UNL     1      -1.409   1.446   0.000  0.00  0.00    -0.000 A 
ATOM     18  C   UNL     1      -1.821   0.731   0.000  0.00  0.00    -0.000 A 
ATOM     19  C   UNL     1      -1.409   0.017   0.000  0.00  0.00    -0.004 A 
ENDBRANCH  13  14
ENDBRANCH   9  13
TORSDOF 4
