REMARK  Name = 
REMARK  5 active torsions:
REMARK  status: ('A' for Active; 'I' for Inactive)
REMARK    1  A    between atoms: C_2  and  C_12
REMARK    2  A    between atoms: N_3  and  C_4
REMARK    3  A    between atoms: C_4  and  C_5
REMARK    4  A    between atoms: C_5  and  C_6
REMARK    5  A    between atoms: N_14  and  C_15
REMARK                            x       y       z     vdW  Elec       q    Type
REMARK                         _______ _______ _______ _____ _____    ______ ____
ROOT
ATOM      1  O   UNL     1       0.715  -3.712   0.000  0.00  0.00    -0.273 OA
ATOM      2  C   UNL     1       0.715  -2.888   0.000  0.00  0.00    +0.243 C 
ATOM      3  N   UNL     1       1.429  -2.475   0.000  0.00  0.00    -0.205 NA
ENDROOT
BRANCH   2   4
ATOM      4  C   UNL     1       0.000  -2.475   0.000  0.00  0.00    +0.107 C 
ATOM      5  C   UNL     1      -0.086  -1.655   0.000  0.00  0.00    +0.096 C 
ATOM      6  C   UNL     1      -0.893  -1.483   0.000  0.00  0.00    +0.226 C 
ATOM      7  O   UNL     1      -1.229  -0.729   0.000  0.00  0.00    -0.275 OA
ATOM      8  N   UNL     1      -1.306  -2.197   0.000  0.00  0.00    -0.281 N 
ATOM      9  C   UNL     1      -0.754  -2.811   0.000  0.00  0.00    +0.103 C 
BRANCH   8  10
ATOM     10  C   UNL     1      -2.126  -2.284   0.000  0.00  0.00    +0.075 C 
ATOM     11  C   UNL     1      -2.678  -1.671   0.000  0.00  0.00    +0.020 C 
ATOM     12  C   UNL     1      -3.432  -2.006   0.000  0.00  0.00    +0.002 C 
ATOM     13  C   UNL     1      -3.346  -2.827   0.000  0.00  0.00    +0.002 C 
ATOM     14  C   UNL     1      -2.539  -2.998   0.000  0.00  0.00    +0.020 C 
ENDBRANCH   8  10
ENDBRANCH   2   4
BRANCH   3  15
ATOM     15  C   UNL     1       2.143  -2.888   0.000  0.00  0.00    +0.121 C 
BRANCH  15  16
ATOM     16  C   UNL     1       2.858  -2.475   0.000  0.00  0.00    +0.069 C 
BRANCH  16  17
ATOM     17  C   UNL     1       3.572  -2.888   0.000  0.00  0.00    +0.061 A 
ATOM     18  N   UNL     1       3.572  -3.712   0.000  0.00  0.00    -0.248 NA
ATOM     19  C   UNL     1       4.287  -4.125   0.000  0.00  0.00    +0.098 A 
ATOM     20  C   UNL     1       5.001  -3.712   0.000  0.00  0.00    +0.021 A 
ATOM     21  C   UNL     1       5.001  -2.888   0.000  0.00  0.00    +0.003 A 
ATOM     22  C   UNL     1       4.287  -2.475   0.000  0.00  0.00    +0.015 A 
ENDBRANCH  16  17
ENDBRANCH  15  16
ENDBRANCH   3  15
TORSDOF 5
