REMARK  Name = 
REMARK  5 active torsions:
REMARK  status: ('A' for Active; 'I' for Inactive)
REMARK    1  A    between atoms: O_2  and  C_3
REMARK    2  A    between atoms: C_3  and  C_4
REMARK    3  A    between atoms: C_4  and  N_5
REMARK    4  A    between atoms: C_8  and  S_9
REMARK    5  A    between atoms: S_9  and  C_10
REMARK                            x       y       z     vdW  Elec       q    Type
REMARK                         _______ _______ _______ _____ _____    ______ ____
ROOT
ATOM      1  N   UNL     1       2.143  -1.238   0.000  0.00  0.00    -0.262 N 
ATOM      2  C   UNL     1       1.429  -1.650   0.000  0.00  0.00    +0.354 A 
ATOM      3  O   UNL     1       0.715  -1.238   0.000  0.00  0.00    -0.244 OA
ATOM      4  N   UNL     1       1.429  -2.475   0.000  0.00  0.00    -0.153 NA
ATOM      5  C   UNL     1       2.143  -2.888   0.000  0.00  0.00    +0.292 A 
ATOM      6  O   UNL     1       2.143  -3.712   0.000  0.00  0.00    -0.264 OA
ATOM      7  C   UNL     1       2.858  -2.475   0.000  0.00  0.00    +0.121 A 
ATOM      8  C   UNL     1       2.858  -1.650   0.000  0.00  0.00    +0.165 A 
ATOM      9  N   UNL     1       3.572  -1.238   0.000  0.00  0.00    -0.108 NA
ENDROOT
BRANCH   1  10
ATOM     10  C   UNL     1       2.143  -0.412   0.000  0.00  0.00    +0.144 C 
BRANCH  10  11
ATOM     11  C   UNL     1       1.429   0.000   0.000  0.00  0.00    +0.167 C 
BRANCH  11  13
ATOM     12  C   UNL     1       0.715   1.238   0.000  0.00  0.00    +0.174 C 
ATOM     13  O   UNL     1       1.429   0.825   0.000  0.00  0.00    -0.349 OA
ENDBRANCH  11  13
ENDBRANCH  10  11
ENDBRANCH   1  10
BRANCH   7  14
ATOM     14  S   UNL     1       3.572  -2.888   0.000  0.00  0.00    -0.079 S 
BRANCH  14  15
ATOM     15  C   UNL     1       3.572  -3.712   0.000  0.00  0.00    +0.030 A 
ATOM     16  C   UNL     1       2.858  -4.125   0.000  0.00  0.00    +0.006 A 
ATOM     17  C   UNL     1       2.858  -4.950   0.000  0.00  0.00    -0.004 A 
ATOM     18  C   UNL     1       3.572  -5.362   0.000  0.00  0.00    -0.022 A 
ATOM     19  C   UNL     1       3.572  -6.188   0.000  0.00  0.00    +0.031 C 
ATOM     20  C   UNL     1       4.287  -4.950   0.000  0.00  0.00    -0.004 A 
ATOM     21  C   UNL     1       4.287  -4.125   0.000  0.00  0.00    +0.006 A 
ENDBRANCH  14  15
ENDBRANCH   7  14
TORSDOF 5
