REMARK  Name = 
REMARK  2 active torsions:
REMARK  status: ('A' for Active; 'I' for Inactive)
REMARK    1  A    between atoms: C_2  and  C_5
REMARK    2  A    between atoms: N_12  and  C_13
REMARK                            x       y       z     vdW  Elec       q    Type
REMARK                         _______ _______ _______ _____ _____    ______ ____
ROOT
ATOM      1  C   UNL     1       2.445   9.446   0.000  0.00  0.00    +0.080 A 
ATOM      2  N   UNL     1       1.893   8.833   0.000  0.00  0.00    -0.151 NA
ATOM      3  N   UNL     1       2.147   8.049   0.000  0.00  0.00    -0.131 NA
ATOM      4  C   UNL     1       2.954   7.877   0.000  0.00  0.00    +0.177 A 
ATOM      5  N   UNL     1       3.209   7.093   0.000  0.00  0.00    -0.140 NA
ATOM      6  C   UNL     1       2.657   6.479   0.000  0.00  0.00    +0.345 C 
ATOM      7  N   UNL     1       2.912   5.695   0.000  0.00  0.00    -0.189 NA
ATOM      8  O   UNL     1       1.850   6.651   0.000  0.00  0.00    -0.249 OA
ATOM      9  C   UNL     1       3.506   8.490   0.000  0.00  0.00    +0.039 A 
ATOM     10  C   UNL     1       3.252   9.275   0.000  0.00  0.00    +0.019 A 
ENDROOT
BRANCH   7  11
ATOM     11  C   UNL     1       2.360   5.082   0.000  0.00  0.00    +0.104 C 
ATOM     12  C   UNL     1       1.693   4.597   0.000  0.00  0.00    +0.171 C 
ATOM     13  S   UNL     1       1.948   3.812   0.000  0.00  0.00    -0.008 S 
ATOM     14  O   UNL     1       1.141   3.641   0.000  0.00  0.00    -0.173 OA
ATOM     15  O   UNL     1       2.034   2.992   0.000  0.00  0.00    -0.173 OA
ATOM     16  C   UNL     1       2.773   3.812   0.000  0.00  0.00    +0.153 C 
ATOM     17  C   UNL     1       3.028   4.597   0.000  0.00  0.00    +0.047 C 
ATOM     18  C   UNL     1       1.808   5.695   0.000  0.00  0.00    +0.024 C 
ENDBRANCH   7  11
BRANCH   1  20
ATOM     19  C   UNL     1       1.935  11.016   0.000  0.00  0.00    +0.006 C 
ATOM     20  C   UNL     1       2.190  10.231   0.000  0.00  0.00    +0.037 C 
ATOM     21  C   UNL     1       2.974  10.486   0.000  0.00  0.00    +0.006 C 
ATOM     22  C   UNL     1       1.405   9.976   0.000  0.00  0.00    +0.006 C 
ENDBRANCH   1  20
TORSDOF 2
