REMARK  Name = 
REMARK  4 active torsions:
REMARK  status: ('A' for Active; 'I' for Inactive)
REMARK    1  A    between atoms: C_4  and  C_10
REMARK    2  A    between atoms: N_12  and  C_13
REMARK    3  A    between atoms: C_13  and  C_14
REMARK    4  A    between atoms: C_14  and  C_15
REMARK                            x       y       z     vdW  Elec       q    Type
REMARK                         _______ _______ _______ _____ _____    ______ ____
ROOT
ATOM      1  C   UNL     1      -2.143   0.412   0.000  0.00  0.00    +0.241 C 
ATOM      2  N   UNL     1      -1.429   0.825   0.000  0.00  0.00    -0.205 NA
ATOM      3  O   UNL     1      -2.143  -0.412   0.000  0.00  0.00    -0.273 OA
ENDROOT
BRANCH   1  11
ATOM      4  C   UNL     1      -3.572   2.888   0.000  0.00  0.00    +0.000 C 
ATOM      5  C   UNL     1      -3.572   2.062   0.000  0.00  0.00    +0.000 C 
ATOM      6  C   UNL     1      -4.287   1.650   0.000  0.00  0.00    +0.000 C 
ATOM      7  C   UNL     1      -4.287   0.825   0.000  0.00  0.00    +0.000 C 
ATOM      8  C   UNL     1      -5.099   0.968   0.000  0.00  0.00    +0.000 C 
ATOM      9  C   UNL     1      -4.569   0.050   0.000  0.00  0.00    +0.000 C 
ATOM     10  C   UNL     1      -3.572   0.412   0.000  0.00  0.00    +0.009 C 
ATOM     11  C   UNL     1      -2.858   0.825   0.000  0.00  0.00    +0.078 C 
ATOM     12  C   UNL     1      -2.858   1.650   0.000  0.00  0.00    +0.009 C 
ENDBRANCH   1  11
BRANCH   2  13
ATOM     13  C   UNL     1      -0.715   0.412   0.000  0.00  0.00    +0.123 C 
BRANCH  13  14
ATOM     14  C   UNL     1       0.000   0.825   0.000  0.00  0.00    +0.087 C 
BRANCH  14  15
ATOM     15  C   UNL     1       0.715   0.412   0.000  0.00  0.00    +0.122 A 
ATOM     16  N   UNL     1       0.801  -0.408   0.000  0.00  0.00    -0.312 N 
ATOM     17  C   UNL     1       0.188  -0.960   0.000  0.00  0.00    +0.132 C 
ATOM     18  C   UNL     1       1.608  -0.580   0.000  0.00  0.00    +0.098 A 
ATOM     19  C   UNL     1       2.020   0.135   0.000  0.00  0.00    +0.119 A 
ATOM     20  N   UNL     1       1.468   0.748   0.000  0.00  0.00    -0.229 NA
ENDBRANCH  14  15
ENDBRANCH  13  14
ENDBRANCH   2  13
TORSDOF 4
