REMARK  Name = 
REMARK  5 active torsions:
REMARK  status: ('A' for Active; 'I' for Inactive)
REMARK    1  A    between atoms: C_2  and  C_3
REMARK    2  A    between atoms: C_7  and  N_9
REMARK    3  A    between atoms: N_9  and  C_10
REMARK    4  A    between atoms: C_10  and  C_11
REMARK    5  A    between atoms: C_11  and  C_12
REMARK                            x       y       z     vdW  Elec       q    Type
REMARK                         _______ _______ _______ _____ _____    ______ ____
ROOT
ATOM      1  N   UNL     1       1.429  -4.125   0.000  0.00  0.00    -0.219 NA
ENDROOT
BRANCH   1   4
ATOM      2  C   UNL     1       2.858  -2.475   0.000  0.00  0.00    +0.001 C 
ATOM      3  C   UNL     1       2.143  -2.888   0.000  0.00  0.00    +0.017 C 
ATOM      4  C   UNL     1       2.143  -3.712   0.000  0.00  0.00    +0.073 C 
ATOM      5  C   UNL     1       2.858  -4.125   0.000  0.00  0.00    +0.017 C 
ATOM      6  C   UNL     1       3.572  -3.712   0.000  0.00  0.00    +0.001 C 
ATOM      7  C   UNL     1       3.572  -2.888   0.000  0.00  0.00    +0.000 C 
BRANCH   2   9
ATOM      8  C   UNL     1       3.572  -1.238   0.000  0.00  0.00    +0.000 C 
ATOM      9  C   UNL     1       2.858  -1.650   0.000  0.00  0.00    +0.000 C 
ENDBRANCH   2   9
ENDBRANCH   1   4
BRANCH   1  10
ATOM     10  C   UNL     1       0.715  -3.712   0.000  0.00  0.00    +0.093 C 
BRANCH  10  11
ATOM     11  C   UNL     1       0.000  -4.125   0.000  0.00  0.00    +0.047 C 
BRANCH  11  12
ATOM     12  C   UNL     1      -0.715  -3.712   0.000  0.00  0.00    -0.002 A 
ATOM     13  C   UNL     1      -0.715  -2.888   0.000  0.00  0.00    +0.095 A 
ATOM     14  N   UNL     1      -1.429  -2.475   0.000  0.00  0.00    -0.243 NA
ATOM     15  C   UNL     1      -2.143  -2.888   0.000  0.00  0.00    +0.099 A 
ATOM     16  C   UNL     1      -2.143  -3.712   0.000  0.00  0.00    +0.020 A 
ATOM     17  C   UNL     1      -1.429  -4.125   0.000  0.00  0.00    -0.001 A 
ENDBRANCH  11  12
ENDBRANCH  10  11
ENDBRANCH   1  10
TORSDOF 5
