REMARK  Name = 
REMARK  5 active torsions:
REMARK  status: ('A' for Active; 'I' for Inactive)
REMARK    1  A    between atoms: O_2  and  C_3
REMARK    2  A    between atoms: C_3  and  C_4
REMARK    3  A    between atoms: C_4  and  N_5
REMARK    4  A    between atoms: N_8  and  C_9
REMARK    5  A    between atoms: C_12  and  C_15
REMARK                            x       y       z     vdW  Elec       q    Type
REMARK                         _______ _______ _______ _____ _____    ______ ____
ROOT
ATOM      1  N   UNL     1       1.429  -2.475   0.000  0.00  0.00    -0.184 NA
ATOM      2  C   UNL     1       2.143  -2.888   0.000  0.00  0.00    +0.344 C 
ATOM      3  N   UNL     1       2.858  -2.475   0.000  0.00  0.00    -0.158 NA
ATOM      4  O   UNL     1       2.143  -3.712   0.000  0.00  0.00    -0.249 OA
ENDROOT
BRANCH   3   5
ATOM      5  C   UNL     1       3.572  -2.888   0.000  0.00  0.00    +0.113 A 
ATOM      6  C   UNL     1       3.572  -3.712   0.000  0.00  0.00    +0.118 A 
ATOM      7  N   UNL     1       4.287  -4.125   0.000  0.00  0.00    -0.228 NA
ATOM      8  C   UNL     1       5.001  -3.712   0.000  0.00  0.00    +0.139 A 
ATOM      9  N   UNL     1       5.001  -2.888   0.000  0.00  0.00    -0.228 NA
ATOM     10  C   UNL     1       4.287  -2.475   0.000  0.00  0.00    +0.118 A 
BRANCH   8  11
ATOM     11  C   UNL     1       5.716  -4.125   0.000  0.00  0.00    +0.059 C 
ATOM     12  C   UNL     1       6.128  -4.840   0.000  0.00  0.00    +0.008 C 
ATOM     13  C   UNL     1       6.541  -4.125   0.000  0.00  0.00    +0.008 C 
ENDBRANCH   8  11
ENDBRANCH   3   5
BRANCH   1  14
ATOM     14  C   UNL     1       1.429  -1.650   0.000  0.00  0.00    +0.144 C 
BRANCH  14  15
ATOM     15  C   UNL     1       2.143  -1.238   0.000  0.00  0.00    +0.113 C 
ATOM     16  C   UNL     1       2.556  -1.952   0.000  0.00  0.00    +0.029 C 
ATOM     17  C   UNL     1       3.270  -1.540   0.000  0.00  0.00    +0.005 C 
ATOM     18  C   UNL     1       2.858  -0.825   0.000  0.00  0.00    +0.029 C 
BRANCH  15  20
ATOM     19  C   UNL     1       0.906  -0.523   0.000  0.00  0.00    +0.174 C 
ATOM     20  O   UNL     1       1.731  -0.523   0.000  0.00  0.00    -0.354 OA
ENDBRANCH  15  20
ENDBRANCH  14  15
ENDBRANCH   1  14
TORSDOF 5
