REMARK  Name = 
REMARK  8 active torsions:
REMARK  status: ('A' for Active; 'I' for Inactive)
REMARK    1  A    between atoms: C_2  and  N_3
REMARK    2  A    between atoms: C_2  and  C_15
REMARK    3  A    between atoms: N_3  and  C_4
REMARK    4  A    between atoms: C_4  and  C_5
REMARK    5  A    between atoms: N_7  and  C_8
REMARK    6  A    between atoms: C_8  and  C_10
REMARK    7  A    between atoms: C_8  and  C_12
REMARK    8  A    between atoms: C_15  and  N_17
REMARK                            x       y       z     vdW  Elec       q    Type
REMARK                         _______ _______ _______ _____ _____    ______ ____
ROOT
ATOM      1  C   UNL     1       1.387  -2.408   0.000  0.00  0.00    +0.175 C 
ENDROOT
BRANCH   1   2
ATOM      2  C   UNL     1       0.672  -1.996   0.000  0.00  0.00    +0.260 C 
ATOM      3  N   UNL     1      -0.042  -2.408   0.000  0.00  0.00    -0.193 NA
ATOM      4  O   UNL     1       0.672  -1.171   0.000  0.00  0.00    -0.272 OA
BRANCH   3   5
ATOM      5  C   UNL     1      -0.756  -1.996   0.000  0.00  0.00    +0.157 C 
ATOM      6  C   UNL     1      -0.344  -1.281   0.000  0.00  0.00    +0.037 C 
BRANCH   5   7
ATOM      7  C   UNL     1      -1.169  -2.710   0.000  0.00  0.00    +0.032 C 
ATOM      8  C   UNL     1      -1.883  -3.123   0.000  0.00  0.00    +0.003 C 
ATOM      9  C   UNL     1      -1.169  -3.535   0.000  0.00  0.00    +0.003 C 
ENDBRANCH   5   7
BRANCH   5  10
ATOM     10  C   UNL     1      -1.471  -1.583   0.000  0.00  0.00    +0.091 C 
ATOM     11  N   UNL     1      -2.185  -1.171   0.000  0.00  0.00    -0.194 NA
ENDBRANCH   5  10
ENDBRANCH   3   5
ENDBRANCH   1   2
BRANCH   1  12
ATOM     12  N   UNL     1       2.102  -1.996   0.000  0.00  0.00    -0.208 NA
BRANCH  12  14
ATOM     13  C   UNL     1       2.816  -3.233   0.000  0.00  0.00    +0.021 C 
ATOM     14  C   UNL     1       2.816  -2.408   0.000  0.00  0.00    +0.096 C 
BRANCH  14  15
ATOM     15  C   UNL     1       3.530  -1.996   0.000  0.00  0.00    +0.121 C 
ATOM     16  C   UNL     1       3.530  -1.171   0.000  0.00  0.00    +0.028 C 
BRANCH  15  17
ATOM     17  N   UNL     1       4.245  -2.408   0.000  0.00  0.00    -0.250 N 
ATOM     18  N   UNL     1       4.331  -3.229   0.000  0.00  0.00    -0.168 NA
ATOM     19  C   UNL     1       5.138  -3.400   0.000  0.00  0.00    +0.122 A 
ATOM     20  C   UNL     1       5.551  -2.686   0.000  0.00  0.00    +0.043 A 
ATOM     21  C   UNL     1       4.999  -2.073   0.000  0.00  0.00    +0.097 A 
ENDBRANCH  15  17
ENDBRANCH  14  15
ENDBRANCH  12  14
ENDBRANCH   1  12
TORSDOF 8
