REMARK  Name = 
REMARK  5 active torsions:
REMARK  status: ('A' for Active; 'I' for Inactive)
REMARK    1  A    between atoms: N_5  and  C_6
REMARK    2  A    between atoms: C_6  and  C_7
REMARK    3  A    between atoms: C_7  and  N_8
REMARK    4  A    between atoms: N_8  and  C_9
REMARK    5  A    between atoms: C_9  and  C_10
REMARK                            x       y       z     vdW  Elec       q    Type
REMARK                         _______ _______ _______ _____ _____    ______ ____
ROOT
ATOM      1  N   UNL     1       4.592  -2.952   0.000  0.00  0.00    -0.206 NA
ENDROOT
BRANCH   1   2
ATOM      2  C   UNL     1       3.878  -3.364   0.000  0.00  0.00    +0.116 C 
BRANCH   2   3
ATOM      3  C   UNL     1       3.163  -2.952   0.000  0.00  0.00    +0.146 C 
BRANCH   3   7
ATOM      4  C   UNL     1       1.220  -5.110   0.000  0.00  0.00    +0.034 C 
ATOM      5  C   UNL     1       1.556  -4.356   0.000  0.00  0.00    +0.018 A 
ATOM      6  C   UNL     1       2.363  -4.185   0.000  0.00  0.00    +0.092 A 
ATOM      7  N   UNL     1       2.449  -3.364   0.000  0.00  0.00    -0.248 N 
ATOM      8  N   UNL     1       1.695  -3.029   0.000  0.00  0.00    -0.168 NA
ATOM      9  C   UNL     1       1.143  -3.642   0.000  0.00  0.00    +0.117 A 
ENDBRANCH   3   7
ENDBRANCH   2   3
ENDBRANCH   1   2
BRANCH   1  10
ATOM     10  C   UNL     1       5.307  -3.364   0.000  0.00  0.00    +0.174 C 
BRANCH  10  11
ATOM     11  C   UNL     1       6.021  -2.952   0.000  0.00  0.00    +0.243 C 
ATOM     12  N   UNL     1       6.736  -3.364   0.000  0.00  0.00    -0.278 N 
ATOM     13  C   UNL     1       6.822  -4.185   0.000  0.00  0.00    +0.093 C 
ATOM     14  C   UNL     1       7.629  -4.356   0.000  0.00  0.00    +0.023 C 
ATOM     15  C   UNL     1       8.041  -3.642   0.000  0.00  0.00    +0.023 C 
ATOM     16  C   UNL     1       7.489  -3.029   0.000  0.00  0.00    +0.093 C 
ATOM     17  O   UNL     1       6.021  -2.127   0.000  0.00  0.00    -0.273 OA
ENDBRANCH  10  11
ENDBRANCH   1  10
TORSDOF 5
