REMARK  Name = 
REMARK  4 active torsions:
REMARK  status: ('A' for Active; 'I' for Inactive)
REMARK    1  A    between atoms: N_6  and  C_7
REMARK    2  A    between atoms: C_7  and  C_8
REMARK    3  A    between atoms: N_10  and  C_11
REMARK    4  A    between atoms: C_11  and  C_12
REMARK                            x       y       z     vdW  Elec       q    Type
REMARK                         _______ _______ _______ _____ _____    ______ ____
ROOT
ATOM      1  C   UNL     1       2.858  -4.125   0.000  0.00  0.00    +0.267 C 
ATOM      2  N   UNL     1       3.572  -3.712   0.000  0.00  0.00    -0.194 NA
ATOM      3  O   UNL     1       2.858  -4.950   0.000  0.00  0.00    -0.271 OA
ENDROOT
BRANCH   1   4
ATOM      4  C   UNL     1       2.143  -3.712   0.000  0.00  0.00    +0.213 C 
BRANCH   4   8
ATOM      5  C   UNL     1       0.200  -5.871   0.000  0.00  0.00    +0.054 C 
ATOM      6  C   UNL     1       0.536  -5.117   0.000  0.00  0.00    +0.080 A 
ATOM      7  N   UNL     1       1.343  -4.946   0.000  0.00  0.00    -0.174 NA
ATOM      8  N   UNL     1       1.429  -4.125   0.000  0.00  0.00    -0.246 N 
ATOM      9  C   UNL     1       0.675  -3.789   0.000  0.00  0.00    +0.058 A 
ATOM     10  C   UNL     1       0.504  -2.982   0.000  0.00  0.00    +0.052 C 
ATOM     11  C   UNL     1       0.123  -4.402   0.000  0.00  0.00    +0.031 A 
ENDBRANCH   4   8
ENDBRANCH   1   4
BRANCH   2  12
ATOM     12  C   UNL     1       4.287  -4.125   0.000  0.00  0.00    +0.200 C 
BRANCH  12  13
ATOM     13  C   UNL     1       5.001  -3.712   0.000  0.00  0.00    +0.248 C 
ATOM     14  N   UNL     1       5.716  -4.125   0.000  0.00  0.00    -0.278 N 
ATOM     15  C   UNL     1       5.716  -4.950   0.000  0.00  0.00    +0.093 C 
ATOM     16  C   UNL     1       6.430  -5.362   0.000  0.00  0.00    +0.022 C 
ATOM     17  C   UNL     1       7.145  -4.950   0.000  0.00  0.00    +0.004 C 
ATOM     18  C   UNL     1       7.145  -4.125   0.000  0.00  0.00    +0.022 C 
ATOM     19  C   UNL     1       6.430  -3.712   0.000  0.00  0.00    +0.093 C 
ATOM     20  O   UNL     1       5.001  -2.888   0.000  0.00  0.00    -0.273 OA
ENDBRANCH  12  13
ENDBRANCH   2  12
TORSDOF 4
