REMARK  Name = 
REMARK  4 active torsions:
REMARK  status: ('A' for Active; 'I' for Inactive)
REMARK    1  A    between atoms: S_2  and  C_5
REMARK    2  A    between atoms: C_8  and  N_9
REMARK    3  A    between atoms: N_12  and  C_13
REMARK    4  A    between atoms: C_13  and  C_14
REMARK                            x       y       z     vdW  Elec       q    Type
REMARK                         _______ _______ _______ _____ _____    ______ ____
ROOT
ATOM      1  N   UNL     1      -1.873  -1.121   0.000  0.00  0.00    -0.159 NA
ATOM      2  C   UNL     1      -1.159  -1.533   0.000  0.00  0.00    +0.344 C 
ATOM      3  N   UNL     1      -0.444  -1.121   0.000  0.00  0.00    -0.184 NA
ATOM      4  O   UNL     1      -1.159  -2.358   0.000  0.00  0.00    -0.249 OA
ENDROOT
BRANCH   1   8
ATOM      5  C   UNL     1      -4.016  -2.358   0.000  0.00  0.00    +0.186 A 
ATOM      6  N   UNL     1      -3.302  -2.771   0.000  0.00  0.00    -0.224 NA
ATOM      7  C   UNL     1      -2.587  -2.358   0.000  0.00  0.00    +0.117 A 
ATOM      8  C   UNL     1      -2.587  -1.533   0.000  0.00  0.00    +0.094 A 
ATOM      9  C   UNL     1      -3.302  -1.121   0.000  0.00  0.00    +0.021 A 
ATOM     10  C   UNL     1      -4.016  -1.533   0.000  0.00  0.00    +0.039 A 
BRANCH   5  12
ATOM     11  C   UNL     1      -5.445  -3.183   0.000  0.00  0.00    +0.183 C 
ATOM     12  S   UNL     1      -4.731  -2.771   0.000  0.00  0.00    +0.027 S 
ATOM     13  O   UNL     1      -5.143  -2.056   0.000  0.00  0.00    -0.167 OA
ATOM     14  O   UNL     1      -4.318  -3.485   0.000  0.00  0.00    -0.167 OA
ENDBRANCH   5  12
ENDBRANCH   1   8
BRANCH   3  15
ATOM     15  C   UNL     1       0.270  -1.533   0.000  0.00  0.00    +0.147 C 
BRANCH  15  16
ATOM     16  C   UNL     1       0.985  -1.121   0.000  0.00  0.00    +0.147 C 
ATOM     17  C   UNL     1       1.797  -0.978   0.000  0.00  0.00    +0.032 C 
ATOM     18  C   UNL     1       2.079  -0.202   0.000  0.00  0.00    +0.003 C 
ATOM     19  C   UNL     1       1.549   0.430   0.000  0.00  0.00    +0.000 C 
ATOM     20  C   UNL     1       0.737   0.286   0.000  0.00  0.00    +0.003 C 
ATOM     21  C   UNL     1       0.455  -0.489   0.000  0.00  0.00    +0.032 C 
ATOM     22  O   UNL     1       1.267  -1.896   0.000  0.00  0.00    -0.224 OA
ENDBRANCH  15  16
ENDBRANCH   3  15
TORSDOF 4
