REMARK  Name = 
REMARK  4 active torsions:
REMARK  status: ('A' for Active; 'I' for Inactive)
REMARK    1  A    between atoms: C_5  and  N_8
REMARK    2  A    between atoms: N_11  and  C_12
REMARK    3  A    between atoms: C_12  and  C_13
REMARK    4  A    between atoms: C_13  and  N_14
REMARK                            x       y       z     vdW  Elec       q    Type
REMARK                         _______ _______ _______ _____ _____    ______ ____
ROOT
ATOM      1  N   UNL     1       0.715   2.062   0.000  0.00  0.00    -0.189 NA
ATOM      2  C   UNL     1       1.429   1.650   0.000  0.00  0.00    +0.339 C 
ATOM      3  N   UNL     1       2.143   2.062   0.000  0.00  0.00    -0.185 NA
ATOM      4  O   UNL     1       1.429   0.825   0.000  0.00  0.00    -0.249 OA
ENDROOT
BRANCH   1   9
ATOM      5  O   UNL     1      -2.143   0.412   0.000  0.00  0.00    -0.223 OA
ATOM      6  C   UNL     1      -1.429   0.825   0.000  0.00  0.00    +0.152 C 
ATOM      7  C   UNL     1      -0.715   0.412   0.000  0.00  0.00    +0.035 C 
ATOM      8  C   UNL     1       0.000   0.825   0.000  0.00  0.00    +0.024 C 
ATOM      9  C   UNL     1       0.000   1.650   0.000  0.00  0.00    +0.097 C 
ATOM     10  C   UNL     1      -0.715   2.062   0.000  0.00  0.00    +0.024 C 
ATOM     11  C   UNL     1      -1.429   1.650   0.000  0.00  0.00    +0.035 C 
ENDBRANCH   1   9
BRANCH   3  12
ATOM     12  C   UNL     1       2.858   1.650   0.000  0.00  0.00    +0.141 C 
BRANCH  12  13
ATOM     13  C   UNL     1       3.572   2.062   0.000  0.00  0.00    +0.131 C 
BRANCH  13  14
ATOM     14  N   UNL     1       4.287   1.650   0.000  0.00  0.00    -0.306 N 
ATOM     15  C   UNL     1       4.373   0.830   0.000  0.00  0.00    +0.179 A 
ATOM     16  N   UNL     1       5.180   0.658   0.000  0.00  0.00    -0.222 NA
ATOM     17  C   UNL     1       5.593   1.373   0.000  0.00  0.00    +0.119 A 
ATOM     18  C   UNL     1       5.040   1.986   0.000  0.00  0.00    +0.098 A 
ENDBRANCH  13  14
ENDBRANCH  12  13
ENDBRANCH   3  12
TORSDOF 4
