REMARK  Name = 
REMARK  4 active torsions:
REMARK  status: ('A' for Active; 'I' for Inactive)
REMARK    1  A    between atoms: N_2  and  C_4
REMARK    2  A    between atoms: C_4  and  C_5
REMARK    3  A    between atoms: C_5  and  N_6
REMARK    4  A    between atoms: N_13  and  C_14
REMARK                            x       y       z     vdW  Elec       q    Type
REMARK                         _______ _______ _______ _____ _____    ______ ____
ROOT
ATOM      1  N   UNL     1      -1.678   4.286   0.000  0.00  0.00    -0.247 N 
ATOM      2  N   UNL     1      -1.933   3.502   0.000  0.00  0.00    -0.152 NA
ATOM      3  C   UNL     1      -1.265   3.017   0.000  0.00  0.00    +0.177 A 
ATOM      4  N   UNL     1      -1.265   2.192   0.000  0.00  0.00    -0.140 NA
ATOM      5  C   UNL     1      -0.551   1.779   0.000  0.00  0.00    +0.345 C 
ATOM      6  N   UNL     1      -0.551   0.954   0.000  0.00  0.00    -0.189 NA
ATOM      7  O   UNL     1       0.164   2.192   0.000  0.00  0.00    -0.249 OA
ATOM      8  C   UNL     1      -0.598   3.502   0.000  0.00  0.00    +0.058 A 
ATOM      9  C   UNL     1      -0.853   4.286   0.000  0.00  0.00    +0.098 A 
ENDROOT
BRANCH   6  10
ATOM     10  C   UNL     1       0.164   0.542   0.000  0.00  0.00    +0.097 C 
ATOM     11  C   UNL     1       0.878   0.954   0.000  0.00  0.00    +0.020 C 
ATOM     12  C   UNL     1       0.672   0.129   0.000  0.00  0.00    +0.002 C 
ATOM     13  C   UNL     1       0.878  -0.696   0.000  0.00  0.00    +0.002 C 
ATOM     14  C   UNL     1       1.593  -0.283   0.000  0.00  0.00    +0.000 C 
ATOM     15  C   UNL     1       1.593   0.542   0.000  0.00  0.00    +0.002 C 
ATOM     16  C   UNL     1       0.164  -0.283   0.000  0.00  0.00    +0.022 C 
ENDBRANCH   6  10
BRANCH   1  17
ATOM     17  C   UNL     1      -2.163   4.954   0.000  0.00  0.00    +0.145 C 
BRANCH  17  18
ATOM     18  C   UNL     1      -1.827   5.707   0.000  0.00  0.00    +0.099 C 
BRANCH  18  20
ATOM     19  C   UNL     1      -1.977   7.128   0.000  0.00  0.00    +0.090 C 
ATOM     20  N   UNL     1      -2.312   6.375   0.000  0.00  0.00    -0.269 NA
ATOM     21  C   UNL     1      -3.133   6.289   0.000  0.00  0.00    +0.090 C 
ENDBRANCH  18  20
ENDBRANCH  17  18
ENDBRANCH   1  17
TORSDOF 4
