REMARK  Name = 
REMARK  5 active torsions:
REMARK  status: ('A' for Active; 'I' for Inactive)
REMARK    1  A    between atoms: C_2  and  C_3
REMARK    2  A    between atoms: C_2  and  N_9
REMARK    3  A    between atoms: C_3  and  N_4
REMARK    4  A    between atoms: N_12  and  C_13
REMARK    5  A    between atoms: C_13  and  C_14
REMARK                            x       y       z     vdW  Elec       q    Type
REMARK                         _______ _______ _______ _____ _____    ______ ____
ROOT
ATOM      1  N   UNL     1       3.878  -3.364   0.000  0.00  0.00    -0.187 NA
ATOM      2  C   UNL     1       4.592  -2.952   0.000  0.00  0.00    +0.339 C 
ATOM      3  N   UNL     1       5.307  -3.364   0.000  0.00  0.00    -0.187 NA
ATOM      4  O   UNL     1       4.592  -2.127   0.000  0.00  0.00    -0.249 OA
ENDROOT
BRANCH   1   6
ATOM      5  C   UNL     1       3.163  -2.127   0.000  0.00  0.00    +0.026 C 
ATOM      6  C   UNL     1       3.163  -2.952   0.000  0.00  0.00    +0.121 C 
BRANCH   6   7
ATOM      7  C   UNL     1       2.449  -3.364   0.000  0.00  0.00    +0.149 C 
BRANCH   7   8
ATOM      8  N   UNL     1       1.734  -2.952   0.000  0.00  0.00    -0.248 N 
ATOM      9  N   UNL     1       1.648  -2.131   0.000  0.00  0.00    -0.168 NA
ATOM     10  C   UNL     1       0.841  -1.960   0.000  0.00  0.00    +0.122 A 
ATOM     11  C   UNL     1       0.429  -2.674   0.000  0.00  0.00    +0.043 A 
ATOM     12  C   UNL     1       0.981  -3.287   0.000  0.00  0.00    +0.097 A 
ENDBRANCH   7   8
ENDBRANCH   6   7
ENDBRANCH   1   6
BRANCH   3  13
ATOM     13  C   UNL     1       6.021  -2.952   0.000  0.00  0.00    +0.119 C 
BRANCH  13  14
ATOM     14  C   UNL     1       6.736  -3.364   0.000  0.00  0.00    +0.054 C 
ATOM     15  C   UNL     1       6.822  -4.185   0.000  0.00  0.00    +0.144 C 
ATOM     16  O   UNL     1       7.629  -4.356   0.000  0.00  0.00    -0.354 OA
ATOM     17  C   UNL     1       8.041  -3.642   0.000  0.00  0.00    +0.142 C 
ATOM     18  C   UNL     1       7.489  -3.029   0.000  0.00  0.00    +0.036 C 
ENDBRANCH  13  14
ENDBRANCH   3  13
TORSDOF 5
