REMARK  Name = 
REMARK  6 active torsions:
REMARK  status: ('A' for Active; 'I' for Inactive)
REMARK    1  A    between atoms: N_1  and  C_12
REMARK    2  A    between atoms: N_2  and  C_11
REMARK    3  A    between atoms: C_7  and  C_10
REMARK    4  A    between atoms: C_8  and  C_9
REMARK    5  A    between atoms: C_12  and  C_13
REMARK    6  A    between atoms: C_15  and  N_17
REMARK                            x       y       z     vdW  Elec       q    Type
REMARK                         _______ _______ _______ _____ _____    ______ ____
ROOT
ATOM      1  C   UNL     1      -5.612   0.642   0.000  0.00  0.00    +0.269 C 
ATOM      2  O   UNL     1      -5.612  -0.183   0.000  0.00  0.00    -0.271 OA
ATOM      3  N   UNL     1      -6.321   1.054   0.000  0.00  0.00    -0.178 NA
ENDROOT
BRANCH   3   4
ATOM      4  C   UNL     1      -7.037   0.642   0.000  0.00  0.00    +0.073 A 
ATOM      5  C   UNL     1      -7.750   1.054   0.000  0.00  0.00    +0.020 A 
ATOM      6  C   UNL     1      -8.467   0.642   0.000  0.00  0.00    +0.073 A 
ATOM      7  C   UNL     1      -8.467  -0.183   0.000  0.00  0.00    +0.008 A 
ATOM      8  C   UNL     1      -7.750  -0.596   0.000  0.00  0.00    +0.073 A 
ATOM      9  C   UNL     1      -7.037  -0.183   0.000  0.00  0.00    +0.020 A 
BRANCH   8  10
ATOM     10  C   UNL     1      -7.750  -1.421   0.000  0.00  0.00    +0.419 C 
ATOM     11  F   UNL     1      -6.925  -1.421   0.000  0.00  0.00    -0.166 F 
ATOM     12  F   UNL     1      -8.575  -1.421   0.000  0.00  0.00    -0.166 F 
ATOM     13  F   UNL     1      -7.750  -2.246   0.000  0.00  0.00    -0.166 F 
ENDBRANCH   8  10
BRANCH   6  14
ATOM     14  C   UNL     1      -9.179   1.054   0.000  0.00  0.00    +0.419 C 
ATOM     15  F   UNL     1      -9.592   0.342   0.000  0.00  0.00    -0.166 F 
ATOM     16  F   UNL     1      -8.767   1.771   0.000  0.00  0.00    -0.166 F 
ATOM     17  F   UNL     1      -9.896   1.467   0.000  0.00  0.00    -0.166 F 
ENDBRANCH   6  14
ENDBRANCH   3   4
BRANCH   1  18
ATOM     18  C   UNL     1      -4.896   1.054   0.000  0.00  0.00    +0.201 C 
BRANCH  18  19
ATOM     19  N   UNL     1      -4.183   0.642   0.000  0.00  0.00    -0.238 N 
ATOM     20  C   UNL     1      -3.467   1.054   0.000  0.00  0.00    +0.294 A 
ATOM     21  O   UNL     1      -3.467   1.879   0.000  0.00  0.00    -0.264 OA
ATOM     22  C   UNL     1      -2.754   0.642   0.000  0.00  0.00    +0.213 A 
ATOM     23  F   UNL     1      -2.038   1.054   0.000  0.00  0.00    -0.198 F 
ATOM     24  C   UNL     1      -2.754  -0.183   0.000  0.00  0.00    +0.116 A 
ATOM     25  N   UNL     1      -3.467  -0.596   0.000  0.00  0.00    -0.255 N 
ATOM     26  C   UNL     1      -4.183  -0.183   0.000  0.00  0.00    +0.336 A 
ATOM     27  O   UNL     1      -4.896  -0.596   0.000  0.00  0.00    -0.246 OA
BRANCH  25  28
ATOM     28  C   UNL     1      -3.467  -1.421   0.000  0.00  0.00    +0.208 C 
ATOM     29  C   UNL     1      -2.800  -1.904   0.000  0.00  0.00    +0.057 C 
ATOM     30  C   UNL     1      -3.054  -2.692   0.000  0.00  0.00    +0.037 C 
ATOM     31  C   UNL     1      -3.879  -2.692   0.000  0.00  0.00    +0.144 C 
ATOM     32  O   UNL     1      -4.133  -1.904   0.000  0.00  0.00    -0.335 OA
ENDBRANCH  25  28
ENDBRANCH  18  19
ENDBRANCH   1  18
TORSDOF 6
