REMARK  Name = 
REMARK  4 active torsions:
REMARK  status: ('A' for Active; 'I' for Inactive)
REMARK    1  A    between atoms: C_2  and  C_3
REMARK    2  A    between atoms: C_3  and  C_4
REMARK    3  A    between atoms: N_11  and  C_12
REMARK    4  A    between atoms: C_12  and  C_14
REMARK                            x       y       z     vdW  Elec       q    Type
REMARK                         _______ _______ _______ _____ _____    ______ ____
ROOT
ATOM      1  C   UNL     1      -0.633  -1.718   0.000  0.00  0.00    +0.112 A 
ATOM      2  S   UNL     1      -0.081  -2.331   0.000  0.00  0.00    -0.033 S 
ATOM      3  C   UNL     1       0.672  -1.996   0.000  0.00  0.00    +0.209 A 
ATOM      4  N   UNL     1       1.387  -2.408   0.000  0.00  0.00    -0.134 NA
ATOM      5  C   UNL     1       2.102  -1.996   0.000  0.00  0.00    +0.345 C 
ATOM      6  N   UNL     1       2.816  -2.408   0.000  0.00  0.00    -0.186 NA
ATOM      7  O   UNL     1       2.102  -1.171   0.000  0.00  0.00    -0.249 OA
ATOM      8  N   UNL     1       0.586  -1.175   0.000  0.00  0.00    -0.124 NA
ATOM      9  N   UNL     1      -0.221  -1.004   0.000  0.00  0.00    -0.144 NA
ENDROOT
BRANCH   6  10
ATOM     10  C   UNL     1       3.530  -1.996   0.000  0.00  0.00    +0.124 C 
ATOM     11  C   UNL     1       3.530  -1.171   0.000  0.00  0.00    +0.026 C 
BRANCH  10  12
ATOM     12  C   UNL     1       4.245  -2.408   0.000  0.00  0.00    +0.135 C 
ATOM     13  O   UNL     1       4.331  -3.229   0.000  0.00  0.00    -0.354 OA
ATOM     14  C   UNL     1       5.138  -3.400   0.000  0.00  0.00    +0.142 C 
ATOM     15  C   UNL     1       5.551  -2.686   0.000  0.00  0.00    +0.035 C 
ATOM     16  C   UNL     1       4.999  -2.073   0.000  0.00  0.00    +0.034 C 
ENDBRANCH  10  12
ENDBRANCH   6  10
BRANCH   1  17
ATOM     17  C   UNL     1      -1.454  -1.804   0.000  0.00  0.00    +0.055 C 
BRANCH  17  19
ATOM     18  C   UNL     1      -2.759  -1.223   0.000  0.00  0.00    +0.000 C 
ATOM     19  C   UNL     1      -1.939  -1.137   0.000  0.00  0.00    +0.007 C 
ENDBRANCH  17  19
ENDBRANCH   1  17
TORSDOF 4
