REMARK  Name = 
REMARK  2 active torsions:
REMARK  status: ('A' for Active; 'I' for Inactive)
REMARK    1  A    between atoms: C_7  and  N_8
REMARK    2  A    between atoms: N_11  and  C_12
REMARK                            x       y       z     vdW  Elec       q    Type
REMARK                         _______ _______ _______ _____ _____    ______ ____
ROOT
ATOM      1  N   UNL     1       2.858  -4.950   0.000  0.00  0.00    -0.159 NA
ATOM      2  C   UNL     1       2.143  -5.362   0.000  0.00  0.00    +0.343 C 
ATOM      3  N   UNL     1       2.143  -6.188   0.000  0.00  0.00    -0.189 NA
ATOM      4  O   UNL     1       1.429  -4.950   0.000  0.00  0.00    -0.249 OA
ENDROOT
BRANCH   1  10
ATOM      5  C   UNL     1       2.143  -1.238   0.000  0.00  0.00    +0.114 C 
ATOM      6  N   UNL     1       2.858  -1.650   0.000  0.00  0.00    -0.290 N 
ATOM      7  C   UNL     1       2.858  -2.475   0.000  0.00  0.00    +0.132 A 
ATOM      8  N   UNL     1       2.143  -2.888   0.000  0.00  0.00    -0.228 NA
ATOM      9  C   UNL     1       2.143  -3.712   0.000  0.00  0.00    +0.117 A 
ATOM     10  C   UNL     1       2.858  -4.125   0.000  0.00  0.00    +0.094 A 
ATOM     11  C   UNL     1       3.572  -3.712   0.000  0.00  0.00    +0.021 A 
ATOM     12  C   UNL     1       3.572  -2.888   0.000  0.00  0.00    +0.036 A 
ATOM     13  C   UNL     1       3.572  -1.238   0.000  0.00  0.00    +0.114 C 
ENDBRANCH   1  10
BRANCH   3  14
ATOM     14  C   UNL     1       1.429  -6.600   0.000  0.00  0.00    +0.097 C 
ATOM     15  C   UNL     1       0.715  -6.188   0.000  0.00  0.00    +0.024 C 
ATOM     16  C   UNL     1       0.000  -6.600   0.000  0.00  0.00    +0.035 C 
ATOM     17  C   UNL     1       0.000  -7.425   0.000  0.00  0.00    +0.152 C 
ATOM     18  O   UNL     1      -0.715  -7.838   0.000  0.00  0.00    -0.223 OA
ATOM     19  C   UNL     1       0.715  -7.838   0.000  0.00  0.00    +0.035 C 
ATOM     20  C   UNL     1       1.429  -7.425   0.000  0.00  0.00    +0.024 C 
ENDBRANCH   3  14
TORSDOF 2
