REMARK  Name = 
REMARK  3 active torsions:
REMARK  status: ('A' for Active; 'I' for Inactive)
REMARK    1  A    between atoms: N_3  and  C_4
REMARK    2  A    between atoms: C_4  and  C_5
REMARK    3  A    between atoms: C_14  and  C_16
REMARK                            x       y       z     vdW  Elec       q    Type
REMARK                         _______ _______ _______ _____ _____    ______ ____
ROOT
ATOM      1  O   UNL     1       1.457  -1.200   0.000  0.00  0.00    -0.249 OA
ATOM      2  C   UNL     1       1.457  -2.025   0.000  0.00  0.00    +0.345 C 
ATOM      3  N   UNL     1       2.171  -2.437   0.000  0.00  0.00    -0.134 NA
ATOM      4  C   UNL     1       2.886  -2.025   0.000  0.00  0.00    +0.209 A 
ATOM      5  S   UNL     1       3.640  -2.360   0.000  0.00  0.00    -0.033 S 
ATOM      6  C   UNL     1       4.192  -1.747   0.000  0.00  0.00    +0.112 A 
ATOM      7  N   UNL     1       3.779  -1.033   0.000  0.00  0.00    -0.144 NA
ATOM      8  N   UNL     1       2.972  -1.204   0.000  0.00  0.00    -0.124 NA
ATOM      9  N   UNL     1       0.743  -2.437   0.000  0.00  0.00    -0.184 NA
ENDROOT
BRANCH   6  10
ATOM     10  C   UNL     1       5.012  -1.833   0.000  0.00  0.00    +0.048 C 
ATOM     11  C   UNL     1       5.679  -2.318   0.000  0.00  0.00    +0.007 C 
ATOM     12  C   UNL     1       5.766  -1.498   0.000  0.00  0.00    +0.007 C 
ENDBRANCH   6  10
BRANCH   9  13
ATOM     13  C   UNL     1       0.028  -2.025   0.000  0.00  0.00    +0.146 C 
BRANCH  13  14
ATOM     14  C   UNL     1      -0.686  -2.437   0.000  0.00  0.00    +0.137 C 
ATOM     15  O   UNL     1      -1.440  -2.102   0.000  0.00  0.00    -0.354 OA
ATOM     16  C   UNL     1      -1.992  -2.715   0.000  0.00  0.00    +0.142 C 
ATOM     17  C   UNL     1      -1.580  -3.429   0.000  0.00  0.00    +0.035 C 
ATOM     18  C   UNL     1      -0.773  -3.258   0.000  0.00  0.00    +0.034 C 
ENDBRANCH  13  14
ENDBRANCH   9  13
TORSDOF 3
