REMARK  Name = 
REMARK  4 active torsions:
REMARK  status: ('A' for Active; 'I' for Inactive)
REMARK    1  A    between atoms: C_2  and  C_3
REMARK    2  A    between atoms: C_2  and  N_9
REMARK    3  A    between atoms: C_3  and  N_4
REMARK    4  A    between atoms: C_10  and  C_12
REMARK                            x       y       z     vdW  Elec       q    Type
REMARK                         _______ _______ _______ _____ _____    ______ ____
ROOT
ATOM      1  C   UNL     1       1.847  -0.386   0.000  0.00  0.00    +0.025 C 
ATOM      2  C   UNL     1       1.847  -1.211   0.000  0.00  0.00    +0.118 C 
ENDROOT
BRANCH   2   3
ATOM      3  N   UNL     1       2.561  -1.624   0.000  0.00  0.00    -0.205 NA
ATOM      4  C   UNL     1       3.276  -1.211   0.000  0.00  0.00    +0.241 C 
ATOM      5  O   UNL     1       3.276  -0.386   0.000  0.00  0.00    -0.273 OA
BRANCH   4   6
ATOM      6  C   UNL     1       3.990  -1.624   0.000  0.00  0.00    +0.078 C 
ATOM      7  C   UNL     1       4.402  -2.338   0.000  0.00  0.00    +0.010 C 
ATOM      8  C   UNL     1       4.815  -1.624   0.000  0.00  0.00    +0.010 C 
ENDBRANCH   4   6
ENDBRANCH   2   3
BRANCH   2   9
ATOM      9  C   UNL     1       1.132  -1.624   0.000  0.00  0.00    +0.129 C 
BRANCH   9  10
ATOM     10  N   UNL     1       0.418  -1.211   0.000  0.00  0.00    -0.306 N 
ATOM     11  C   UNL     1       0.331  -0.391   0.000  0.00  0.00    +0.179 A 
ATOM     12  N   UNL     1      -0.476  -0.219   0.000  0.00  0.00    -0.222 NA
ATOM     13  C   UNL     1      -0.888  -0.934   0.000  0.00  0.00    +0.119 A 
ATOM     14  C   UNL     1      -0.336  -1.547   0.000  0.00  0.00    +0.098 A 
ENDBRANCH   9  10
ENDBRANCH   2   9
TORSDOF 4
