REMARK  Name = 
REMARK  5 active torsions:
REMARK  status: ('A' for Active; 'I' for Inactive)
REMARK    1  A    between atoms: C_2  and  C_3
REMARK    2  A    between atoms: C_3  and  C_4
REMARK    3  A    between atoms: C_4  and  N_5
REMARK    4  A    between atoms: C_4  and  C_15
REMARK    5  A    between atoms: N_8  and  C_9
REMARK                            x       y       z     vdW  Elec       q    Type
REMARK                         _______ _______ _______ _____ _____    ______ ____
ROOT
ATOM      1  N   UNL     1       3.572  -3.712   0.000  0.00  0.00    -0.189 NA
ATOM      2  C   UNL     1       4.287  -4.125   0.000  0.00  0.00    +0.343 C 
ATOM      3  N   UNL     1       5.001  -3.712   0.000  0.00  0.00    -0.159 NA
ATOM      4  O   UNL     1       4.287  -4.950   0.000  0.00  0.00    -0.249 OA
ENDROOT
BRANCH   3   5
ATOM      5  C   UNL     1       5.716  -4.125   0.000  0.00  0.00    +0.094 A 
ATOM      6  C   UNL     1       5.716  -4.950   0.000  0.00  0.00    +0.115 A 
ATOM      7  N   UNL     1       6.430  -5.362   0.000  0.00  0.00    -0.241 NA
ATOM      8  C   UNL     1       7.145  -4.950   0.000  0.00  0.00    +0.099 A 
ATOM      9  C   UNL     1       7.145  -4.125   0.000  0.00  0.00    +0.022 A 
ATOM     10  C   UNL     1       6.430  -3.712   0.000  0.00  0.00    +0.020 A 
ENDBRANCH   3   5
BRANCH   1  11
ATOM     11  C   UNL     1       2.858  -4.125   0.000  0.00  0.00    +0.100 C 
BRANCH  11  12
ATOM     12  C   UNL     1       2.858  -4.950   0.000  0.00  0.00    +0.020 C 
ATOM     13  C   UNL     1       2.445  -5.665   0.000  0.00  0.00    +0.002 C 
ATOM     14  C   UNL     1       3.270  -5.665   0.000  0.00  0.00    +0.002 C 
ENDBRANCH  11  12
BRANCH  11  15
ATOM     15  C   UNL     1       2.143  -3.712   0.000  0.00  0.00    +0.057 C 
BRANCH  15  17
ATOM     16  O   UNL     1       0.715  -3.712   0.000  0.00  0.00    -0.220 OA
ATOM     17  C   UNL     1       1.429  -4.125   0.000  0.00  0.00    +0.184 C 
ENDBRANCH  15  17
ENDBRANCH  11  15
ENDBRANCH   1  11
TORSDOF 5
