REMARK  Name = 
REMARK  5 active torsions:
REMARK  status: ('A' for Active; 'I' for Inactive)
REMARK    1  A    between atoms: C_2  and  N_3
REMARK    2  A    between atoms: C_7  and  N_8
REMARK    3  A    between atoms: N_11  and  C_12
REMARK    4  A    between atoms: C_12  and  C_13
REMARK    5  A    between atoms: C_13  and  C_14
REMARK                            x       y       z     vdW  Elec       q    Type
REMARK                         _______ _______ _______ _____ _____    ______ ____
ROOT
ATOM      1  N   UNL     1       2.143  -3.712   0.000  0.00  0.00    -0.159 NA
ATOM      2  C   UNL     1       2.858  -4.125   0.000  0.00  0.00    +0.344 C 
ATOM      3  N   UNL     1       3.572  -3.712   0.000  0.00  0.00    -0.187 NA
ATOM      4  O   UNL     1       2.858  -4.950   0.000  0.00  0.00    -0.249 OA
ENDROOT
BRANCH   1   8
ATOM      5  N   UNL     1       0.536  -5.117   0.000  0.00  0.00    -0.254 N 
ATOM      6  C   UNL     1       1.343  -4.946   0.000  0.00  0.00    +0.072 A 
ATOM      7  C   UNL     1       1.956  -5.497   0.000  0.00  0.00    +0.053 C 
ATOM      8  C   UNL     1       1.429  -4.125   0.000  0.00  0.00    +0.103 A 
ATOM      9  C   UNL     1       0.675  -3.789   0.000  0.00  0.00    +0.095 A 
ATOM     10  C   UNL     1       0.504  -2.982   0.000  0.00  0.00    +0.055 C 
ATOM     11  N   UNL     1       0.123  -4.402   0.000  0.00  0.00    -0.173 NA
BRANCH   5  13
ATOM     12  C   UNL     1      -0.620  -5.957   0.000  0.00  0.00    +0.028 C 
ATOM     13  C   UNL     1       0.200  -5.871   0.000  0.00  0.00    +0.127 C 
ENDBRANCH   5  13
ENDBRANCH   1   8
BRANCH   3  14
ATOM     14  C   UNL     1       4.287  -4.125   0.000  0.00  0.00    +0.119 C 
BRANCH  14  15
ATOM     15  C   UNL     1       5.001  -3.712   0.000  0.00  0.00    +0.053 C 
BRANCH  15  16
ATOM     16  C   UNL     1       5.716  -4.125   0.000  0.00  0.00    +0.117 C 
ATOM     17  O   UNL     1       5.716  -4.950   0.000  0.00  0.00    -0.356 OA
ATOM     18  C   UNL     1       6.430  -5.362   0.000  0.00  0.00    +0.142 C 
ATOM     19  C   UNL     1       7.145  -4.950   0.000  0.00  0.00    +0.032 C 
ATOM     20  C   UNL     1       7.145  -4.125   0.000  0.00  0.00    +0.005 C 
ATOM     21  C   UNL     1       6.430  -3.712   0.000  0.00  0.00    +0.030 C 
ENDBRANCH  15  16
ENDBRANCH  14  15
ENDBRANCH   3  14
TORSDOF 5
