REMARK  Name = 
REMARK  3 active torsions:
REMARK  status: ('A' for Active; 'I' for Inactive)
REMARK    1  A    between atoms: N_12  and  C_13
REMARK    2  A    between atoms: C_13  and  C_14
REMARK    3  A    between atoms: C_14  and  N_15
REMARK                            x       y       z     vdW  Elec       q    Type
REMARK                         _______ _______ _______ _____ _____    ______ ____
ROOT
ATOM      1  C   UNL     1      -4.287   3.300   0.000  0.00  0.00    +0.095 C 
ATOM      2  C   UNL     1      -3.572   3.712   0.000  0.00  0.00    +0.226 C 
ATOM      3  N   UNL     1      -2.858   3.300   0.000  0.00  0.00    -0.276 N 
ATOM      4  C   UNL     1      -2.858   2.475   0.000  0.00  0.00    +0.115 C 
ATOM      5  C   UNL     1      -2.143   2.062   0.000  0.00  0.00    +0.117 C 
ATOM      6  N   UNL     1      -1.429   2.475   0.000  0.00  0.00    -0.259 N 
ATOM      7  C   UNL     1      -0.715   2.062   0.000  0.00  0.00    +0.323 C 
ATOM      8  N   UNL     1       0.000   2.475   0.000  0.00  0.00    -0.186 NA
ATOM      9  O   UNL     1      -0.715   1.238   0.000  0.00  0.00    -0.251 OA
ATOM     10  C   UNL     1      -1.429   3.300   0.000  0.00  0.00    +0.117 C 
ATOM     11  C   UNL     1      -2.143   3.712   0.000  0.00  0.00    +0.115 C 
ATOM     12  O   UNL     1      -3.572   4.537   0.000  0.00  0.00    -0.275 OA
ENDROOT
BRANCH   8  13
ATOM     13  C   UNL     1       0.715   2.062   0.000  0.00  0.00    +0.141 C 
BRANCH  13  14
ATOM     14  C   UNL     1       1.429   2.475   0.000  0.00  0.00    +0.131 C 
BRANCH  14  15
ATOM     15  N   UNL     1       2.143   2.062   0.000  0.00  0.00    -0.306 N 
ATOM     16  C   UNL     1       2.230   1.242   0.000  0.00  0.00    +0.179 A 
ATOM     17  N   UNL     1       3.037   1.071   0.000  0.00  0.00    -0.222 NA
ATOM     18  C   UNL     1       3.449   1.785   0.000  0.00  0.00    +0.119 A 
ATOM     19  C   UNL     1       2.897   2.398   0.000  0.00  0.00    +0.098 A 
ENDBRANCH  14  15
ENDBRANCH  13  14
ENDBRANCH   8  13
TORSDOF 3
