REMARK  Name = 
REMARK  2 active torsions:
REMARK  status: ('A' for Active; 'I' for Inactive)
REMARK    1  A    between atoms: C_1  and  C_2
REMARK    2  A    between atoms: C_1  and  N_8
REMARK                            x       y       z     vdW  Elec       q    Type
REMARK                         _______ _______ _______ _____ _____    ______ ____
ROOT
ATOM      1  C   UNL     1      -0.608  -0.474   0.000  0.00  0.00    +0.145 C 
ENDROOT
BRANCH   1   2
ATOM      2  C   UNL     1      -1.322  -0.062   0.000  0.00  0.00    +0.097 C 
ATOM      3  N   UNL     1      -1.322   0.763   0.000  0.00  0.00    -0.217 NA
ATOM      4  C   UNL     1      -2.037   1.176   0.000  0.00  0.00    +0.089 C 
ATOM      5  C   UNL     1      -2.751   0.763   0.000  0.00  0.00    +0.019 C 
ATOM      6  C   UNL     1      -2.751  -0.062   0.000  0.00  0.00    +0.003 C 
ATOM      7  C   UNL     1      -2.037  -0.474   0.000  0.00  0.00    +0.019 C 
ENDBRANCH   1   2
BRANCH   1   8
ATOM      8  N   UNL     1      -0.608  -1.299   0.000  0.00  0.00    -0.248 N 
ATOM      9  N   UNL     1      -1.275  -1.784   0.000  0.00  0.00    -0.168 NA
ATOM     10  C   UNL     1      -1.020  -2.569   0.000  0.00  0.00    +0.122 A 
ATOM     11  C   UNL     1      -0.195  -2.569   0.000  0.00  0.00    +0.043 A 
ATOM     12  C   UNL     1       0.060  -1.784   0.000  0.00  0.00    +0.097 A 
ENDBRANCH   1   8
TORSDOF 2
