REMARK  Name = 
REMARK  5 active torsions:
REMARK  status: ('A' for Active; 'I' for Inactive)
REMARK    1  A    between atoms: C_7  and  N_8
REMARK    2  A    between atoms: N_11  and  C_12
REMARK    3  A    between atoms: C_12  and  C_13
REMARK    4  A    between atoms: C_13  and  N_14
REMARK    5  A    between atoms: C_15  and  C_17
REMARK                            x       y       z     vdW  Elec       q    Type
REMARK                         _______ _______ _______ _____ _____    ______ ____
ROOT
ATOM      1  N   UNL     1       2.143  -0.412   0.000  0.00  0.00    -0.159 NA
ATOM      2  C   UNL     1       2.858  -0.825   0.000  0.00  0.00    +0.344 C 
ATOM      3  N   UNL     1       3.572  -0.412   0.000  0.00  0.00    -0.185 NA
ATOM      4  O   UNL     1       2.858  -1.650   0.000  0.00  0.00    -0.249 OA
ENDROOT
BRANCH   1   7
ATOM      5  F   UNL     1       2.143  -2.062   0.000  0.00  0.00    -0.201 F 
ATOM      6  C   UNL     1       1.429  -1.650   0.000  0.00  0.00    +0.174 A 
ATOM      7  C   UNL     1       1.429  -0.825   0.000  0.00  0.00    +0.105 A 
ATOM      8  C   UNL     1       0.715  -0.412   0.000  0.00  0.00    +0.040 A 
ATOM      9  C   UNL     1       0.000  -0.825   0.000  0.00  0.00    +0.100 A 
ATOM     10  N   UNL     1       0.000  -1.650   0.000  0.00  0.00    -0.240 NA
ATOM     11  C   UNL     1       0.715  -2.062   0.000  0.00  0.00    +0.130 A 
ENDBRANCH   1   7
BRANCH   3  12
ATOM     12  C   UNL     1       4.287  -0.825   0.000  0.00  0.00    +0.140 C 
BRANCH  12  13
ATOM     13  C   UNL     1       5.001  -0.412   0.000  0.00  0.00    +0.139 C 
BRANCH  13  14
ATOM     14  N   UNL     1       5.716  -0.825   0.000  0.00  0.00    -0.204 NA
ATOM     15  C   UNL     1       6.430  -0.412   0.000  0.00  0.00    +0.241 C 
ATOM     16  O   UNL     1       6.430   0.412   0.000  0.00  0.00    -0.273 OA
BRANCH  15  17
ATOM     17  C   UNL     1       7.145  -0.825   0.000  0.00  0.00    +0.078 C 
ATOM     18  C   UNL     1       7.557  -1.540   0.000  0.00  0.00    +0.010 C 
ATOM     19  C   UNL     1       7.970  -0.825   0.000  0.00  0.00    +0.010 C 
ENDBRANCH  15  17
ENDBRANCH  13  14
ENDBRANCH  12  13
ENDBRANCH   3  12
TORSDOF 5
