REMARK  Name = 
REMARK  3 active torsions:
REMARK  status: ('A' for Active; 'I' for Inactive)
REMARK    1  A    between atoms: C_12  and  N_13
REMARK    2  A    between atoms: N_16  and  C_17
REMARK    3  A    between atoms: C_17  and  C_18
REMARK                            x       y       z     vdW  Elec       q    Type
REMARK                         _______ _______ _______ _____ _____    ______ ____
ROOT
ATOM      1  C   UNL     1      -4.287   5.775   0.000  0.00  0.00    +0.034 C 
ATOM      2  C   UNL     1      -4.287   4.950   0.000  0.00  0.00    +0.135 C 
ATOM      3  O   UNL     1      -5.001   4.537   0.000  0.00  0.00    -0.355 OA
ATOM      4  C   UNL     1      -5.001   3.712   0.000  0.00  0.00    +0.135 C 
ATOM      5  C   UNL     1      -5.716   3.300   0.000  0.00  0.00    +0.034 C 
ATOM      6  C   UNL     1      -4.287   3.300   0.000  0.00  0.00    +0.122 C 
ATOM      7  N   UNL     1      -3.572   3.712   0.000  0.00  0.00    -0.288 N 
ATOM      8  C   UNL     1      -2.858   3.300   0.000  0.00  0.00    +0.132 A 
ATOM      9  N   UNL     1      -2.858   2.475   0.000  0.00  0.00    -0.228 NA
ATOM     10  C   UNL     1      -2.143   2.062   0.000  0.00  0.00    +0.117 A 
ATOM     11  C   UNL     1      -1.429   2.475   0.000  0.00  0.00    +0.094 A 
ATOM     12  C   UNL     1      -1.429   3.300   0.000  0.00  0.00    +0.021 A 
ATOM     13  C   UNL     1      -2.143   3.712   0.000  0.00  0.00    +0.036 A 
ATOM     14  C   UNL     1      -3.572   4.537   0.000  0.00  0.00    +0.122 C 
ENDROOT
BRANCH  11  15
ATOM     15  N   UNL     1      -0.715   2.062   0.000  0.00  0.00    -0.159 NA
ATOM     16  C   UNL     1       0.000   2.475   0.000  0.00  0.00    +0.344 C 
ATOM     17  N   UNL     1       0.715   2.062   0.000  0.00  0.00    -0.184 NA
ATOM     18  O   UNL     1       0.000   3.300   0.000  0.00  0.00    -0.249 OA
BRANCH  17  19
ATOM     19  C   UNL     1       1.429   2.475   0.000  0.00  0.00    +0.146 C 
BRANCH  19  20
ATOM     20  C   UNL     1       2.143   2.062   0.000  0.00  0.00    +0.137 C 
ATOM     21  O   UNL     1       2.230   1.242   0.000  0.00  0.00    -0.354 OA
ATOM     22  C   UNL     1       3.037   1.071   0.000  0.00  0.00    +0.142 C 
ATOM     23  C   UNL     1       3.449   1.785   0.000  0.00  0.00    +0.035 C 
ATOM     24  C   UNL     1       2.897   2.398   0.000  0.00  0.00    +0.034 C 
ENDBRANCH  19  20
ENDBRANCH  17  19
ENDBRANCH  11  15
TORSDOF 3
