REMARK  Name = 
REMARK  3 active torsions:
REMARK  status: ('A' for Active; 'I' for Inactive)
REMARK    1  A    between atoms: O_4  and  C_5
REMARK    2  A    between atoms: C_5  and  C_6
REMARK    3  A    between atoms: C_10  and  C_12
REMARK                            x       y       z     vdW  Elec       q    Type
REMARK                         _______ _______ _______ _____ _____    ______ ____
ROOT
ATOM      1 CL   UNL     1       0.000   0.000   0.000  0.00  0.00    +0.000 Cl
ENDROOT
TORSDOF 0
REMARK  Name = 
REMARK  3 active torsions:
REMARK  status: ('A' for Active; 'I' for Inactive)
REMARK    1  A    between atoms: O_4  and  C_5
REMARK    2  A    between atoms: C_5  and  C_6
REMARK    3  A    between atoms: C_10  and  C_12
REMARK                            x       y       z     vdW  Elec       q    Type
REMARK                         _______ _______ _______ _____ _____    ______ ____
ROOT
ATOM      1 CL   UNL     1       2.004   0.000   0.000  0.00  0.00    +0.000 Cl
ENDROOT
TORSDOF 0
REMARK  Name = 
REMARK  3 active torsions:
REMARK  status: ('A' for Active; 'I' for Inactive)
REMARK    1  A    between atoms: O_4  and  C_5
REMARK    2  A    between atoms: C_5  and  C_6
REMARK    3  A    between atoms: C_10  and  C_12
REMARK                            x       y       z     vdW  Elec       q    Type
REMARK                         _______ _______ _______ _____ _____    ______ ____
ROOT
ATOM      1  C   UNL     1       0.762  -3.712   0.000  0.00  0.00    +0.169 A 
ATOM      2  N   UNL     1       0.048  -4.125   0.000  0.00  0.00    -0.232 NA
ATOM      3  C   UNL     1       0.048  -4.950   0.000  0.00  0.00    +0.063 A 
ATOM      4  C   UNL     1       0.762  -5.362   0.000  0.00  0.00    +0.035 A 
ATOM      5  C   UNL     1       1.477  -4.950   0.000  0.00  0.00    +0.102 A 
ATOM      6  N   UNL     1       1.477  -4.125   0.000  0.00  0.00    -0.227 NA
ENDROOT
BRANCH   3   7
ATOM      7  C   UNL     1      -0.667  -5.362   0.000  0.00  0.00    +0.058 C 
ATOM      8  C   UNL     1      -1.381  -4.950   0.000  0.00  0.00    +0.095 C 
ATOM      9  N   UNL     1      -2.096  -5.362   0.000  0.00  0.00    -0.218 NA
ATOM     10  C   UNL     1      -2.096  -6.188   0.000  0.00  0.00    +0.089 C 
ATOM     11  C   UNL     1      -1.381  -6.600   0.000  0.00  0.00    +0.019 C 
ATOM     12  C   UNL     1      -0.667  -6.188   0.000  0.00  0.00    +0.009 C 
ENDBRANCH   3   7
BRANCH   1  13
ATOM     13  C   UNL     1       0.762  -2.888   0.000  0.00  0.00    +0.207 C 
BRANCH  13  15
ATOM     14  C   UNL     1       1.477  -1.650   0.000  0.00  0.00    +0.175 C 
ATOM     15  O   UNL     1       1.477  -2.475   0.000  0.00  0.00    -0.343 OA
ENDBRANCH  13  15
ENDBRANCH   1  13
TORSDOF 3
