REMARK  Name = 
REMARK  5 active torsions:
REMARK  status: ('A' for Active; 'I' for Inactive)
REMARK    1  A    between atoms: C_2  and  C_3
REMARK    2  A    between atoms: C_5  and  C_6
REMARK    3  A    between atoms: C_6  and  C_7
REMARK    4  A    between atoms: N_9  and  C_10
REMARK    5  A    between atoms: C_13  and  C_15
REMARK                            x       y       z     vdW  Elec       q    Type
REMARK                         _______ _______ _______ _____ _____    ______ ____
ROOT
ATOM      1  C   UNL     1       1.439  -4.721   0.000  0.00  0.00    +0.247 C 
ATOM      2  N   UNL     1       1.924  -5.388   0.000  0.00  0.00    -0.207 NA
ATOM      3  O   UNL     1       1.774  -3.967   0.000  0.00  0.00    -0.273 OA
ENDROOT
BRANCH   2   4
ATOM      4  C   UNL     1       2.744  -5.302   0.000  0.00  0.00    +0.096 C 
ATOM      5  C   UNL     1       3.296  -5.915   0.000  0.00  0.00    +0.033 C 
ATOM      6  C   UNL     1       4.050  -5.580   0.000  0.00  0.00    +0.105 C 
ATOM      7  C   UNL     1       3.964  -4.759   0.000  0.00  0.00    +0.013 C 
ATOM      8  C   UNL     1       3.157  -4.588   0.000  0.00  0.00    +0.022 C 
BRANCH   6   9
ATOM      9  C   UNL     1       4.764  -5.992   0.000  0.00  0.00    +0.364 C 
ATOM     10  O   UNL     1       4.764  -6.817   0.000  0.00  0.00    -0.246 OA
ATOM     11  O   UNL     1       5.479  -5.580   0.000  0.00  0.00    -0.246 OA
ENDBRANCH   6   9
ENDBRANCH   2   4
BRANCH   1  12
ATOM     12  C   UNL     1       0.618  -4.807   0.000  0.00  0.00    +0.133 C 
BRANCH  12  16
ATOM     13  C   UNL     1      -0.279  -2.870   0.000  0.00  0.00    +0.088 A 
ATOM     14  S   UNL     1      -0.947  -3.355   0.000  0.00  0.00    -0.071 S 
ATOM     15  C   UNL     1      -0.692  -4.140   0.000  0.00  0.00    +0.052 A 
ATOM     16  C   UNL     1       0.133  -4.140   0.000  0.00  0.00    +0.075 A 
ATOM     17  N   UNL     1       0.388  -3.355   0.000  0.00  0.00    -0.247 NA
BRANCH  13  19
ATOM     18  C   UNL     1      -0.994  -1.633   0.000  0.00  0.00    +0.007 C 
ATOM     19  C   UNL     1      -0.279  -2.045   0.000  0.00  0.00    +0.053 C 
ENDBRANCH  13  19
ENDBRANCH  12  16
ENDBRANCH   1  12
TORSDOF 5
