REMARK  Name = 
REMARK  5 active torsions:
REMARK  status: ('A' for Active; 'I' for Inactive)
REMARK    1  A    between atoms: C_12  and  N_13
REMARK    2  A    between atoms: C_14  and  C_16
REMARK    3  A    between atoms: C_16  and  O_17
REMARK    4  A    between atoms: O_17  and  C_18
REMARK    5  A    between atoms: C_18  and  C_19
REMARK                            x       y       z     vdW  Elec       q    Type
REMARK                         _______ _______ _______ _____ _____    ______ ____
ROOT
ATOM      1  C   UNL     1       0.715  -0.412   0.000  0.00  0.00    +0.034 C 
ATOM      2  C   UNL     1       0.715  -1.238   0.000  0.00  0.00    +0.135 C 
ATOM      3  O   UNL     1       0.000  -1.650   0.000  0.00  0.00    -0.355 OA
ATOM      4  C   UNL     1       0.000  -2.475   0.000  0.00  0.00    +0.135 C 
ATOM      5  C   UNL     1      -0.715  -2.888   0.000  0.00  0.00    +0.034 C 
ATOM      6  C   UNL     1       0.715  -2.888   0.000  0.00  0.00    +0.122 C 
ATOM      7  N   UNL     1       1.429  -2.475   0.000  0.00  0.00    -0.288 N 
ATOM      8  C   UNL     1       2.143  -2.888   0.000  0.00  0.00    +0.132 A 
ATOM      9  N   UNL     1       2.143  -3.712   0.000  0.00  0.00    -0.228 NA
ATOM     10  C   UNL     1       2.858  -4.125   0.000  0.00  0.00    +0.117 A 
ATOM     11  C   UNL     1       3.572  -3.712   0.000  0.00  0.00    +0.093 A 
ATOM     12  C   UNL     1       3.572  -2.888   0.000  0.00  0.00    +0.021 A 
ATOM     13  C   UNL     1       2.858  -2.475   0.000  0.00  0.00    +0.036 A 
ATOM     14  C   UNL     1       1.429  -1.650   0.000  0.00  0.00    +0.122 C 
ENDROOT
BRANCH  11  15
ATOM     15  N   UNL     1       4.287  -4.125   0.000  0.00  0.00    -0.176 NA
ATOM     16  C   UNL     1       5.001  -3.712   0.000  0.00  0.00    +0.276 C 
ATOM     17  O   UNL     1       5.001  -2.888   0.000  0.00  0.00    -0.270 OA
BRANCH  16  18
ATOM     18  C   UNL     1       5.716  -4.125   0.000  0.00  0.00    +0.229 C 
BRANCH  18  19
ATOM     19  O   UNL     1       6.430  -3.712   0.000  0.00  0.00    -0.336 OA
BRANCH  19  20
ATOM     20  C   UNL     1       7.145  -4.125   0.000  0.00  0.00    +0.246 C 
BRANCH  20  21
ATOM     21  C   UNL     1       7.859  -3.712   0.000  0.00  0.00    +0.425 C 
ATOM     22  F   UNL     1       7.447  -2.998   0.000  0.00  0.00    -0.167 F 
ATOM     23  F   UNL     1       8.272  -4.427   0.000  0.00  0.00    -0.167 F 
ATOM     24  F   UNL     1       8.574  -3.300   0.000  0.00  0.00    -0.167 F 
ENDBRANCH  20  21
ENDBRANCH  19  20
ENDBRANCH  18  19
ENDBRANCH  16  18
ENDBRANCH  11  15
TORSDOF 5
