REMARK  Name = 
REMARK  3 active torsions:
REMARK  status: ('A' for Active; 'I' for Inactive)
REMARK    1  A    between atoms: C_2  and  C_5
REMARK    2  A    between atoms: N_9  and  C_10
REMARK    3  A    between atoms: C_10  and  C_11
REMARK                            x       y       z     vdW  Elec       q    Type
REMARK                         _______ _______ _______ _____ _____    ______ ____
ROOT
ATOM      1  C   UNL     1      -0.715   8.416   0.000  0.00  0.00    +0.091 A 
ATOM      2  C   UNL     1      -1.429   8.004   0.000  0.00  0.00    +0.104 A 
ATOM      3  N   UNL     1      -1.429   7.179   0.000  0.00  0.00    -0.228 NA
ATOM      4  C   UNL     1      -0.715   6.766   0.000  0.00  0.00    +0.148 A 
ATOM      5  N   UNL     1      -0.715   5.941   0.000  0.00  0.00    -0.218 NA
ATOM      6  C   UNL     1       0.000   7.179   0.000  0.00  0.00    +0.036 A 
ATOM      7  C   UNL     1       0.000   8.004   0.000  0.00  0.00    +0.008 A 
ENDROOT
BRANCH   1   9
ATOM      8  F   UNL     1      -0.715  10.066   0.000  0.00  0.00    -0.166 F 
ATOM      9  C   UNL     1      -0.715   9.241   0.000  0.00  0.00    +0.420 C 
ATOM     10  F   UNL     1       0.111   9.241   0.000  0.00  0.00    -0.166 F 
ATOM     11  F   UNL     1      -1.540   9.241   0.000  0.00  0.00    -0.166 F 
ENDBRANCH   1   9
BRANCH   5  12
ATOM     12  C   UNL     1       0.000   5.529   0.000  0.00  0.00    +0.143 C 
BRANCH  12  13
ATOM     13  C   UNL     1       0.000   4.704   0.000  0.00  0.00    +0.137 C 
ATOM     14  O   UNL     1      -0.667   4.219   0.000  0.00  0.00    -0.354 OA
ATOM     15  C   UNL     1      -0.412   3.434   0.000  0.00  0.00    +0.142 C 
ATOM     16  C   UNL     1       0.412   3.434   0.000  0.00  0.00    +0.035 C 
ATOM     17  C   UNL     1       0.667   4.219   0.000  0.00  0.00    +0.034 C 
ENDBRANCH  12  13
ENDBRANCH   5  12
TORSDOF 3
