REMARK  Name = 
REMARK  7 active torsions:
REMARK  status: ('A' for Active; 'I' for Inactive)
REMARK    1  A    between atoms: C_7  and  C_8
REMARK    2  A    between atoms: C_8  and  C_10
REMARK    3  A    between atoms: C_10  and  N_11
REMARK    4  A    between atoms: N_14  and  C_15
REMARK    5  A    between atoms: C_15  and  C_16
REMARK    6  A    between atoms: N_20  and  C_21
REMARK    7  A    between atoms: C_21  and  C_22
REMARK                            x       y       z     vdW  Elec       q    Type
REMARK                         _______ _______ _______ _____ _____    ______ ____
ROOT
ATOM      1  N   UNL     1      -1.429  -2.475   0.000  0.00  0.00    -0.231 N 
ATOM      2  C   UNL     1      -1.429  -1.650   0.000  0.00  0.00    +0.339 A 
ATOM      3  O   UNL     1      -0.715  -1.238   0.000  0.00  0.00    -0.246 OA
ATOM      4  N   UNL     1      -2.143  -1.238   0.000  0.00  0.00    -0.230 N 
ATOM      5  C   UNL     1      -2.858  -1.650   0.000  0.00  0.00    +0.339 A 
ATOM      6  O   UNL     1      -3.572  -1.238   0.000  0.00  0.00    -0.246 OA
ATOM      7  N   UNL     1      -2.858  -2.475   0.000  0.00  0.00    -0.230 N 
ATOM      8  C   UNL     1      -2.143  -2.888   0.000  0.00  0.00    +0.339 A 
ATOM      9  O   UNL     1      -2.143  -3.712   0.000  0.00  0.00    -0.246 OA
ENDROOT
BRANCH   1  10
ATOM     10  C   UNL     1      -0.715  -2.888   0.000  0.00  0.00    +0.152 C 
BRANCH  10  11
ATOM     11  C   UNL     1       0.000  -2.475   0.000  0.00  0.00    +0.197 C 
ATOM     12  O   UNL     1       0.000  -1.650   0.000  0.00  0.00    -0.216 OA
BRANCH  11  15
ATOM     13  C   UNL     1       1.429  -1.650   0.000  0.00  0.00    +0.031 C 
ATOM     14  C   UNL     1       1.429  -2.475   0.000  0.00  0.00    -0.023 A 
ATOM     15  C   UNL     1       0.715  -2.888   0.000  0.00  0.00    +0.006 A 
ATOM     16  C   UNL     1       0.715  -3.712   0.000  0.00  0.00    -0.002 A 
ATOM     17  C   UNL     1       1.429  -4.125   0.000  0.00  0.00    -0.000 A 
ATOM     18  C   UNL     1       2.143  -3.712   0.000  0.00  0.00    -0.000 A 
ATOM     19  C   UNL     1       2.143  -2.888   0.000  0.00  0.00    -0.004 A 
ENDBRANCH  11  15
ENDBRANCH  10  11
ENDBRANCH   1  10
BRANCH   7  20
ATOM     20  C   UNL     1      -3.572  -2.888   0.000  0.00  0.00    +0.142 C 
BRANCH  20  21
ATOM     21  C   UNL     1      -4.287  -2.475   0.000  0.00  0.00    -0.001 C 
ATOM     22  C   UNL     1      -5.001  -2.888   0.000  0.00  0.00    -0.003 C 
ENDBRANCH  20  21
ENDBRANCH   7  20
BRANCH   4  23
ATOM     23  C   UNL     1      -2.143  -0.412   0.000  0.00  0.00    +0.142 C 
BRANCH  23  24
ATOM     24  C   UNL     1      -2.858   0.000   0.000  0.00  0.00    -0.001 C 
ATOM     25  C   UNL     1      -2.858   0.825   0.000  0.00  0.00    -0.003 C 
ENDBRANCH  23  24
ENDBRANCH   4  23
TORSDOF 7
