REMARK  Name = 
REMARK  4 active torsions:
REMARK  status: ('A' for Active; 'I' for Inactive)
REMARK    1  A    between atoms: C_2  and  S_3
REMARK    2  A    between atoms: S_3  and  C_4
REMARK    3  A    between atoms: C_4  and  C_5
REMARK    4  A    between atoms: C_11  and  C_13
REMARK                            x       y       z     vdW  Elec       q    Type
REMARK                         _______ _______ _______ _____ _____    ______ ____
ROOT
ATOM      1  C   UNL     1       2.037   6.828   0.000  0.00  0.00    -0.007 A 
ATOM      2  C   UNL     1       2.037   6.003   0.000  0.00  0.00    +0.033 A 
ATOM      3  C   UNL     1       2.751   5.590   0.000  0.00  0.00    +0.154 A 
ATOM      4  N   UNL     1       2.751   4.765   0.000  0.00  0.00    -0.158 NA
ATOM      5  C   UNL     1       3.466   4.353   0.000  0.00  0.00    +0.274 C 
ATOM      6  O   UNL     1       4.180   4.765   0.000  0.00  0.00    -0.270 OA
ATOM      7  N   UNL     1       3.466   6.003   0.000  0.00  0.00    -0.227 NA
ATOM      8  C   UNL     1       3.466   6.828   0.000  0.00  0.00    +0.100 A 
ATOM      9  C   UNL     1       2.751   7.240   0.000  0.00  0.00    +0.017 A 
ENDROOT
BRANCH   5  10
ATOM     10  C   UNL     1       3.466   3.528   0.000  0.00  0.00    +0.193 C 
ATOM     11  O   UNL     1       2.798   3.043   0.000  0.00  0.00    -0.347 OA
ATOM     12  C   UNL     1       3.053   2.258   0.000  0.00  0.00    +0.143 C 
ATOM     13  C   UNL     1       3.878   2.258   0.000  0.00  0.00    +0.035 C 
ATOM     14  C   UNL     1       4.133   3.043   0.000  0.00  0.00    +0.042 C 
ENDBRANCH   5  10
BRANCH   1  15
ATOM     15  C   UNL     1       1.322   7.240   0.000  0.00  0.00    +0.084 C 
BRANCH  15  16
ATOM     16  S   UNL     1       1.322   8.065   0.000  0.00  0.00    -0.135 S 
BRANCH  16  18
ATOM     17  C   UNL     1       0.608   9.303   0.000  0.00  0.00    +0.013 C 
ATOM     18  C   UNL     1       0.608   8.478   0.000  0.00  0.00    +0.058 C 
ENDBRANCH  16  18
ENDBRANCH  15  16
ENDBRANCH   1  15
TORSDOF 4
