REMARK  Name = 
REMARK  5 active torsions:
REMARK  status: ('A' for Active; 'I' for Inactive)
REMARK    1  A    between atoms: C_2  and  C_3
REMARK    2  A    between atoms: C_3  and  N_4
REMARK    3  A    between atoms: C_6  and  N_7
REMARK    4  A    between atoms: N_10  and  C_11
REMARK    5  A    between atoms: C_11  and  C_12
REMARK                            x       y       z     vdW  Elec       q    Type
REMARK                         _______ _______ _______ _____ _____    ______ ____
ROOT
ATOM      1  N   UNL     1       1.387  -2.408   0.000  0.00  0.00    -0.158 NA
ATOM      2  C   UNL     1       2.102  -1.996   0.000  0.00  0.00    +0.344 C 
ATOM      3  N   UNL     1       2.816  -2.408   0.000  0.00  0.00    -0.187 NA
ATOM      4  O   UNL     1       2.102  -1.171   0.000  0.00  0.00    -0.249 OA
ENDROOT
BRANCH   1   8
ATOM      5  N   UNL     1      -0.221  -1.004   0.000  0.00  0.00    -0.245 N 
ATOM      6  N   UNL     1      -0.633  -1.718   0.000  0.00  0.00    -0.166 NA
ATOM      7  C   UNL     1      -0.081  -2.331   0.000  0.00  0.00    +0.138 A 
ATOM      8  C   UNL     1       0.672  -1.996   0.000  0.00  0.00    +0.114 A 
ATOM      9  C   UNL     1       0.586  -1.175   0.000  0.00  0.00    +0.113 A 
BRANCH   5  10
ATOM     10  C   UNL     1      -0.556  -0.250   0.000  0.00  0.00    +0.163 C 
BRANCH  10  12
ATOM     11  O   UNL     1      -1.712   0.590   0.000  0.00  0.00    -0.218 OA
ATOM     12  C   UNL     1      -1.377  -0.164   0.000  0.00  0.00    +0.208 C 
ENDBRANCH  10  12
ENDBRANCH   5  10
ENDBRANCH   1   8
BRANCH   3  13
ATOM     13  C   UNL     1       3.530  -1.996   0.000  0.00  0.00    +0.117 C 
BRANCH  13  14
ATOM     14  C   UNL     1       4.245  -2.408   0.000  0.00  0.00    +0.022 C 
ATOM     15  C   UNL     1       4.331  -3.229   0.000  0.00  0.00    +0.002 C 
ATOM     16  C   UNL     1       5.138  -3.400   0.000  0.00  0.00    +0.000 C 
ATOM     17  C   UNL     1       5.551  -2.686   0.000  0.00  0.00    +0.000 C 
ATOM     18  C   UNL     1       4.999  -2.073   0.000  0.00  0.00    +0.002 C 
ENDBRANCH  13  14
ENDBRANCH   3  13
TORSDOF 5
