REMARK  Name = 
REMARK  4 active torsions:
REMARK  status: ('A' for Active; 'I' for Inactive)
REMARK    1  A    between atoms: C_2  and  C_4
REMARK    2  A    between atoms: C_9  and  C_11
REMARK    3  A    between atoms: C_11  and  O_12
REMARK    4  A    between atoms: O_12  and  C_13
REMARK                            x       y       z     vdW  Elec       q    Type
REMARK                         _______ _______ _______ _____ _____    ______ ____
ROOT
ATOM      1  C   UNL     1      -1.429  -1.650   0.000  0.00  0.00    +0.054 A 
ATOM      2  C   UNL     1      -1.429  -2.475   0.000  0.00  0.00    +0.103 A 
ATOM      3  N   UNL     1      -0.715  -2.888   0.000  0.00  0.00    -0.227 NA
ATOM      4  C   UNL     1       0.000  -2.475   0.000  0.00  0.00    +0.155 A 
ATOM      5  N   UNL     1       0.715  -2.888   0.000  0.00  0.00    -0.158 NA
ATOM      6  C   UNL     1       1.429  -2.475   0.000  0.00  0.00    +0.277 C 
ATOM      7  O   UNL     1       1.429  -1.650   0.000  0.00  0.00    -0.270 OA
ATOM      8  C   UNL     1       0.000  -1.650   0.000  0.00  0.00    +0.036 A 
ATOM      9  C   UNL     1      -0.715  -1.238   0.000  0.00  0.00    +0.007 A 
ENDROOT
BRANCH   1  11
ATOM     10  C   UNL     1      -2.858  -1.650   0.000  0.00  0.00    +0.077 C 
ATOM     11  C   UNL     1      -2.143  -1.238   0.000  0.00  0.00    +0.175 C 
ATOM     12  O   UNL     1      -2.143  -0.412   0.000  0.00  0.00    -0.291 OA
ENDBRANCH   1  11
BRANCH   6  13
ATOM     13  C   UNL     1       2.143  -2.888   0.000  0.00  0.00    +0.229 C 
BRANCH  13  14
ATOM     14  O   UNL     1       2.858  -2.475   0.000  0.00  0.00    -0.347 OA
BRANCH  14  15
ATOM     15  C   UNL     1       3.572  -2.888   0.000  0.00  0.00    +0.116 C 
ATOM     16  C   UNL     1       3.572  -3.712   0.000  0.00  0.00    +0.030 C 
ATOM     17  C   UNL     1       4.287  -4.125   0.000  0.00  0.00    +0.002 C 
ATOM     18  C   UNL     1       5.001  -3.712   0.000  0.00  0.00    +0.000 C 
ATOM     19  C   UNL     1       5.001  -2.888   0.000  0.00  0.00    +0.002 C 
ATOM     20  C   UNL     1       4.287  -2.475   0.000  0.00  0.00    +0.030 C 
ENDBRANCH  14  15
ENDBRANCH  13  14
ENDBRANCH   6  13
TORSDOF 4
