REMARK  Name = 
REMARK  5 active torsions:
REMARK  status: ('A' for Active; 'I' for Inactive)
REMARK    1  A    between atoms: C_2  and  C_3
REMARK    2  A    between atoms: C_2  and  N_9
REMARK    3  A    between atoms: C_3  and  N_4
REMARK    4  A    between atoms: N_9  and  C_10
REMARK    5  A    between atoms: C_10  and  C_11
REMARK                            x       y       z     vdW  Elec       q    Type
REMARK                         _______ _______ _______ _____ _____    ______ ____
ROOT
ATOM      1  C   UNL     1       2.102  -1.171   0.000  0.00  0.00    +0.021 C 
ATOM      2  C   UNL     1       2.102  -1.996   0.000  0.00  0.00    +0.097 C 
ENDROOT
BRANCH   2   3
ATOM      3  N   UNL     1       2.816  -2.408   0.000  0.00  0.00    -0.217 NA
BRANCH   3   4
ATOM      4  C   UNL     1       3.530  -1.996   0.000  0.00  0.00    +0.089 C 
BRANCH   4   5
ATOM      5  C   UNL     1       4.245  -2.408   0.000  0.00  0.00    +0.017 C 
ATOM      6  C   UNL     1       4.331  -3.229   0.000  0.00  0.00    +0.001 C 
ATOM      7  C   UNL     1       5.138  -3.400   0.000  0.00  0.00    +0.000 C 
ATOM      8  C   UNL     1       5.551  -2.686   0.000  0.00  0.00    +0.000 C 
ATOM      9  C   UNL     1       4.999  -2.073   0.000  0.00  0.00    +0.001 C 
ENDBRANCH   4   5
ENDBRANCH   3   4
ENDBRANCH   2   3
BRANCH   2  10
ATOM     10  C   UNL     1       1.387  -2.408   0.000  0.00  0.00    +0.145 C 
BRANCH  10  11
ATOM     11  N   UNL     1       0.672  -1.996   0.000  0.00  0.00    -0.248 N 
ATOM     12  N   UNL     1       0.586  -1.175   0.000  0.00  0.00    -0.168 NA
ATOM     13  C   UNL     1      -0.221  -1.004   0.000  0.00  0.00    +0.122 A 
ATOM     14  C   UNL     1      -0.633  -1.718   0.000  0.00  0.00    +0.043 A 
ATOM     15  C   UNL     1      -0.081  -2.331   0.000  0.00  0.00    +0.097 A 
ENDBRANCH  10  11
ENDBRANCH   2  10
TORSDOF 5
