REMARK  Name = 
REMARK  1 active torsions:
REMARK  status: ('A' for Active; 'I' for Inactive)
REMARK    1  A    between atoms: N_8  and  C_10
REMARK                            x       y       z     vdW  Elec       q    Type
REMARK                         _______ _______ _______ _____ _____    ______ ____
ROOT
ATOM      1 CL   UNL     1       0.000   0.000   0.000  0.00  0.00    +0.000 Cl
ENDROOT
TORSDOF 0
REMARK  Name = 
REMARK  1 active torsions:
REMARK  status: ('A' for Active; 'I' for Inactive)
REMARK    1  A    between atoms: N_8  and  C_10
REMARK                            x       y       z     vdW  Elec       q    Type
REMARK                         _______ _______ _______ _____ _____    ______ ____
ROOT
ATOM      1 CL   UNL     1       2.004   0.000   0.000  0.00  0.00    +0.000 Cl
ENDROOT
TORSDOF 0
REMARK  Name = 
REMARK  1 active torsions:
REMARK  status: ('A' for Active; 'I' for Inactive)
REMARK    1  A    between atoms: N_8  and  C_10
REMARK                            x       y       z     vdW  Elec       q    Type
REMARK                         _______ _______ _______ _____ _____    ______ ____
ROOT
ATOM      1  C   UNL     1      -0.948  -1.650   0.000  0.00  0.00    +0.076 C 
ATOM      2  C   UNL     1      -0.463  -2.317   0.000  0.00  0.00    +0.160 A 
ATOM      3  N   UNL     1      -0.718  -3.102   0.000  0.00  0.00    -0.153 NA
ATOM      4  N   UNL     1      -0.050  -3.587   0.000  0.00  0.00    -0.236 N 
ATOM      5  C   UNL     1       0.617  -3.102   0.000  0.00  0.00    +0.138 A 
ATOM      6  C   UNL     1       1.402  -3.357   0.000  0.00  0.00    +0.073 C 
ATOM      7  N   UNL     1       0.362  -2.317   0.000  0.00  0.00    -0.215 NA
ENDROOT
BRANCH   4   8
ATOM      8  C   UNL     1      -0.050  -4.412   0.000  0.00  0.00    +0.141 C 
ATOM      9  C   UNL     1      -0.634  -4.995   0.000  0.00  0.00    +0.115 C 
ATOM     10  N   UNL     1      -0.050  -5.579   0.000  0.00  0.00    -0.214 NA
ATOM     11  C   UNL     1       0.533  -4.995   0.000  0.00  0.00    +0.115 C 
ENDBRANCH   4   8
TORSDOF 1
