REMARK  Name = 
REMARK  4 active torsions:
REMARK  status: ('A' for Active; 'I' for Inactive)
REMARK    1  A    between atoms: N_3  and  C_17
REMARK    2  A    between atoms: C_6  and  N_9
REMARK    3  A    between atoms: C_17  and  C_19
REMARK    4  A    between atoms: C_19  and  C_24
REMARK                            x       y       z     vdW  Elec       q    Type
REMARK                         _______ _______ _______ _____ _____    ______ ____
ROOT
ATOM      1  C   UNL     1       2.562   0.825   0.000  0.00  0.00    +0.149 A 
ATOM      2  C   UNL     1       3.275   1.238   0.000  0.00  0.00    +0.154 A 
ATOM      3  N   UNL     1       3.992   0.825   0.000  0.00  0.00    -0.207 NA
ATOM      4  C   UNL     1       3.992   0.000   0.000  0.00  0.00    +0.201 A 
ATOM      5  N   UNL     1       3.275  -0.412   0.000  0.00  0.00    -0.205 NA
ATOM      6  N   UNL     1       1.779   1.083   0.000  0.00  0.00    -0.219 NA
ATOM      7  C   UNL     1       1.292   0.412   0.000  0.00  0.00    +0.180 A 
ATOM      8  N   UNL     1       1.779  -0.254   0.000  0.00  0.00    -0.294 N 
ATOM      9  C   UNL     1       2.562   0.000   0.000  0.00  0.00    +0.167 A 
ENDROOT
BRANCH   2  10
ATOM     10  N   UNL     1       3.275   2.062   0.000  0.00  0.00    -0.290 N 
ATOM     11  C   UNL     1       3.992   2.475   0.000  0.00  0.00    +0.094 C 
ATOM     12  C   UNL     1       3.992   3.300   0.000  0.00  0.00    +0.043 C 
ATOM     13  C   UNL     1       3.275   3.712   0.000  0.00  0.00    +0.100 C 
ATOM     14  C   UNL     1       2.562   3.300   0.000  0.00  0.00    +0.135 C 
ATOM     15  N   UNL     1       1.950   3.854   0.000  0.00  0.00    -0.187 NA
ATOM     16  C   UNL     1       2.283   4.604   0.000  0.00  0.00    +0.323 C 
ATOM     17  O   UNL     1       1.871   5.317   0.000  0.00  0.00    -0.251 OA
ATOM     18  N   UNL     1       3.104   4.517   0.000  0.00  0.00    -0.261 N 
ATOM     19  C   UNL     1       3.658   5.129   0.000  0.00  0.00    +0.116 C 
ATOM     20  C   UNL     1       2.562   2.475   0.000  0.00  0.00    +0.116 C 
ENDBRANCH   2  10
BRANCH   8  21
ATOM     21  C   UNL     1       1.521  -1.038   0.000  0.00  0.00    +0.112 C 
BRANCH  21  22
ATOM     22  C   UNL     1       2.075  -1.650   0.000  0.00  0.00    +0.056 C 
ATOM     23  C   UNL     1       2.583  -1.000   0.000  0.00  0.00    +0.037 C 
ATOM     24  C   UNL     1       3.400  -1.117   0.000  0.00  0.00    +0.142 C 
ATOM     25  O   UNL     1       3.708  -1.879   0.000  0.00  0.00    -0.354 OA
ATOM     26  C   UNL     1       3.200  -2.529   0.000  0.00  0.00    +0.142 C 
ATOM     27  C   UNL     1       2.383  -2.417   0.000  0.00  0.00    +0.037 C 
BRANCH  22  28
ATOM     28  C   UNL     1       1.375  -2.087   0.000  0.00  0.00    +0.184 C 
ATOM     29  O   UNL     1       1.404  -2.913   0.000  0.00  0.00    -0.220 OA
ENDBRANCH  22  28
ENDBRANCH  21  22
ENDBRANCH   8  21
TORSDOF 4
