REMARK  Name = 
REMARK  4 active torsions:
REMARK  status: ('A' for Active; 'I' for Inactive)
REMARK    1  A    between atoms: C_2  and  N_3
REMARK    2  A    between atoms: C_6  and  C_7
REMARK    3  A    between atoms: C_7  and  N_8
REMARK    4  A    between atoms: N_11  and  C_12
REMARK                            x       y       z     vdW  Elec       q    Type
REMARK                         _______ _______ _______ _____ _____    ______ ____
ROOT
ATOM      1  N   UNL     1       2.102  -1.996   0.000  0.00  0.00    -0.187 NA
ATOM      2  C   UNL     1       2.816  -2.408   0.000  0.00  0.00    +0.345 C 
ATOM      3  N   UNL     1       3.530  -1.996   0.000  0.00  0.00    -0.142 NA
ATOM      4  O   UNL     1       2.816  -3.233   0.000  0.00  0.00    -0.249 OA
ENDROOT
BRANCH   3   5
ATOM      5  C   UNL     1       4.245  -2.408   0.000  0.00  0.00    +0.154 A 
ATOM      6  N   UNL     1       4.331  -3.229   0.000  0.00  0.00    -0.234 N 
ATOM      7  C   UNL     1       3.718  -3.781   0.000  0.00  0.00    +0.155 C 
ATOM      8  N   UNL     1       5.138  -3.400   0.000  0.00  0.00    -0.172 NA
ATOM      9  C   UNL     1       5.551  -2.686   0.000  0.00  0.00    +0.082 A 
ATOM     10  C   UNL     1       6.371  -2.599   0.000  0.00  0.00    +0.054 C 
ATOM     11  C   UNL     1       4.999  -2.073   0.000  0.00  0.00    +0.052 A 
ENDBRANCH   3   5
BRANCH   1  12
ATOM     12  C   UNL     1       1.387  -2.408   0.000  0.00  0.00    +0.118 C 
BRANCH  12  15
ATOM     13  N   UNL     1      -0.633  -1.718   0.000  0.00  0.00    -0.273 NA
ATOM     14  C   UNL     1      -0.081  -2.331   0.000  0.00  0.00    +0.074 C 
ATOM     15  C   UNL     1       0.672  -1.996   0.000  0.00  0.00    +0.039 C 
ATOM     16  C   UNL     1       0.586  -1.175   0.000  0.00  0.00    +0.020 C 
ATOM     17  C   UNL     1      -0.221  -1.004   0.000  0.00  0.00    +0.072 C 
BRANCH  13  19
ATOM     18  C   UNL     1      -1.939  -1.137   0.000  0.00  0.00    +0.019 C 
ATOM     19  C   UNL     1      -1.454  -1.804   0.000  0.00  0.00    +0.072 C 
ENDBRANCH  13  19
ENDBRANCH  12  15
ENDBRANCH   1  12
TORSDOF 4
