REMARK  Name = 
REMARK  4 active torsions:
REMARK  status: ('A' for Active; 'I' for Inactive)
REMARK    1  A    between atoms: C_5  and  C_6
REMARK    2  A    between atoms: C_6  and  C_7
REMARK    3  A    between atoms: C_7  and  N_8
REMARK    4  A    between atoms: C_16  and  C_17
REMARK                            x       y       z     vdW  Elec       q    Type
REMARK                         _______ _______ _______ _____ _____    ______ ____
ROOT
ATOM      1  N   UNL     1       2.143  -2.888   0.000  0.00  0.00    -0.188 NA
ATOM      2  C   UNL     1       2.858  -2.475   0.000  0.00  0.00    +0.323 C 
ATOM      3  N   UNL     1       3.572  -2.888   0.000  0.00  0.00    -0.259 N 
ATOM      4  C   UNL     1       3.572  -3.712   0.000  0.00  0.00    +0.106 C 
ATOM      5  C   UNL     1       4.287  -4.125   0.000  0.00  0.00    +0.162 C 
ATOM      6  O   UNL     1       5.001  -3.712   0.000  0.00  0.00    -0.350 OA
ATOM      7  C   UNL     1       5.001  -2.888   0.000  0.00  0.00    +0.164 C 
ATOM      8  C   UNL     1       4.287  -2.475   0.000  0.00  0.00    +0.127 C 
ATOM      9  O   UNL     1       2.858  -1.650   0.000  0.00  0.00    -0.251 OA
ENDROOT
BRANCH   4  10
ATOM     10  C   UNL     1       2.858  -4.125   0.000  0.00  0.00    +0.021 C 
ATOM     11  C   UNL     1       2.033  -4.125   0.000  0.00  0.00    +0.002 C 
ATOM     12  C   UNL     1       2.445  -4.840   0.000  0.00  0.00    +0.002 C 
ENDBRANCH   4  10
BRANCH   1  13
ATOM     13  C   UNL     1       1.429  -2.475   0.000  0.00  0.00    +0.124 C 
BRANCH  13  14
ATOM     14  C   UNL     1       0.715  -2.888   0.000  0.00  0.00    +0.076 C 
BRANCH  14  18
ATOM     15  C   UNL     1      -2.126  -2.284   0.000  0.00  0.00    +0.053 C 
ATOM     16  C   UNL     1      -1.306  -2.197   0.000  0.00  0.00    +0.066 A 
ATOM     17  N   UNL     1      -0.754  -2.811   0.000  0.00  0.00    -0.247 NA
ATOM     18  C   UNL     1       0.000  -2.475   0.000  0.00  0.00    +0.090 A 
ATOM     19  S   UNL     1      -0.086  -1.655   0.000  0.00  0.00    -0.071 S 
ATOM     20  C   UNL     1      -0.893  -1.483   0.000  0.00  0.00    +0.051 A 
ENDBRANCH  14  18
ENDBRANCH  13  14
ENDBRANCH   1  13
TORSDOF 4
