REMARK  Name = 
REMARK  5 active torsions:
REMARK  status: ('A' for Active; 'I' for Inactive)
REMARK    1  A    between atoms: N_4  and  C_5
REMARK    2  A    between atoms: C_10  and  O_11
REMARK    3  A    between atoms: O_11  and  C_12
REMARK    4  A    between atoms: C_12  and  C_13
REMARK    5  A    between atoms: C_13  and  N_14
REMARK                            x       y       z     vdW  Elec       q    Type
REMARK                         _______ _______ _______ _____ _____    ______ ____
ROOT
ATOM      1  C   UNL     1       0.077  -2.321   0.000  0.00  0.00    +0.230 C 
ENDROOT
BRANCH   1   2
ATOM      2  O   UNL     1      -0.178  -3.106   0.000  0.00  0.00    -0.472 OA
BRANCH   2   4
ATOM      3  C   UNL     1      -1.240  -4.062   0.000  0.00  0.00    +0.107 A 
ATOM      4  C   UNL     1      -0.985  -3.278   0.000  0.00  0.00    +0.154 A 
ATOM      5  C   UNL     1      -1.537  -2.665   0.000  0.00  0.00    +0.038 A 
ATOM      6  C   UNL     1      -2.344  -2.836   0.000  0.00  0.00    +0.003 A 
ATOM      7  C   UNL     1      -2.599  -3.621   0.000  0.00  0.00    +0.002 A 
ATOM      8  C   UNL     1      -2.047  -4.234   0.000  0.00  0.00    +0.020 A 
BRANCH   3  11
ATOM      9  C   UNL     1      -0.391  -6.073   0.000  0.00  0.00    +0.097 C 
ATOM     10  C   UNL     1      -0.943  -5.460   0.000  0.00  0.00    +0.246 C 
ATOM     11  N   UNL     1      -0.688  -4.675   0.000  0.00  0.00    -0.176 NA
ATOM     12  O   UNL     1      -1.750  -5.631   0.000  0.00  0.00    -0.273 OA
ENDBRANCH   3  11
ENDBRANCH   2   4
ENDBRANCH   1   2
BRANCH   1  13
ATOM     13  C   UNL     1       0.884  -2.150   0.000  0.00  0.00    +0.159 C 
BRANCH  13  14
ATOM     14  N   UNL     1       1.139  -1.365   0.000  0.00  0.00    -0.258 N 
ATOM     15  C   UNL     1       1.923  -1.110   0.000  0.00  0.00    +0.100 A 
ATOM     16  C   UNL     1       1.923  -0.285   0.000  0.00  0.00    +0.166 A 
ATOM     17  C   UNL     1       2.638   0.127   0.000  0.00  0.00    +0.039 A 
ATOM     18  C   UNL     1       3.352  -0.285   0.000  0.00  0.00    +0.003 A 
ATOM     19  C   UNL     1       3.352  -1.110   0.000  0.00  0.00    +0.002 A 
ATOM     20  O   UNL     1       1.139  -0.030   0.000  0.00  0.00    -0.407 OA
ATOM     21  C   UNL     1       2.638  -1.523   0.000  0.00  0.00    +0.020 A 
ATOM     22  C   UNL     1       0.654  -0.698   0.000  0.00  0.00    +0.422 A 
ATOM     23  O   UNL     1      -0.171  -0.698   0.000  0.00  0.00    -0.223 OA
ENDBRANCH  13  14
ENDBRANCH   1  13
TORSDOF 5
