REMARK  Name = 
REMARK  4 active torsions:
REMARK  status: ('A' for Active; 'I' for Inactive)
REMARK    1  A    between atoms: C_2  and  C_3
REMARK    2  A    between atoms: C_3  and  N_4
REMARK    3  A    between atoms: N_9  and  C_10
REMARK    4  A    between atoms: C_10  and  C_11
REMARK                            x       y       z     vdW  Elec       q    Type
REMARK                         _______ _______ _______ _____ _____    ______ ____
ROOT
ATOM      1  O   UNL     1       0.743  -3.262   0.000  0.00  0.00    -0.271 OA
ATOM      2  C   UNL     1       0.743  -2.437   0.000  0.00  0.00    +0.266 C 
ATOM      3  N   UNL     1       1.457  -2.025   0.000  0.00  0.00    -0.204 NA
ENDROOT
BRANCH   3   4
ATOM      4  C   UNL     1       2.171  -2.437   0.000  0.00  0.00    +0.117 C 
BRANCH   4   5
ATOM      5  C   UNL     1       2.886  -2.025   0.000  0.00  0.00    +0.047 C 
ATOM      6  C   UNL     1       3.640  -2.360   0.000  0.00  0.00    +0.153 C 
ATOM      7  S   UNL     1       4.192  -1.747   0.000  0.00  0.00    -0.010 S 
ATOM      8  O   UNL     1       4.744  -2.360   0.000  0.00  0.00    -0.173 OA
ATOM      9  O   UNL     1       4.859  -1.262   0.000  0.00  0.00    -0.173 OA
ATOM     10  C   UNL     1       3.779  -1.033   0.000  0.00  0.00    +0.151 C 
ATOM     11  C   UNL     1       2.972  -1.204   0.000  0.00  0.00    +0.029 C 
ENDBRANCH   4   5
ENDBRANCH   3   4
BRANCH   2  12
ATOM     12  C   UNL     1       0.028  -2.025   0.000  0.00  0.00    +0.214 C 
BRANCH  12  13
ATOM     13  N   UNL     1      -0.686  -2.437   0.000  0.00  0.00    -0.240 N 
ATOM     14  N   UNL     1      -1.440  -2.102   0.000  0.00  0.00    -0.167 NA
ATOM     15  C   UNL     1      -1.992  -2.715   0.000  0.00  0.00    +0.122 A 
ATOM     16  C   UNL     1      -1.580  -3.429   0.000  0.00  0.00    +0.043 A 
ATOM     17  C   UNL     1      -0.773  -3.258   0.000  0.00  0.00    +0.097 A 
ENDBRANCH  12  13
ENDBRANCH   2  12
TORSDOF 4
