REMARK  Name = 
REMARK  5 active torsions:
REMARK  status: ('A' for Active; 'I' for Inactive)
REMARK    1  A    between atoms: C_2  and  O_3
REMARK    2  A    between atoms: O_3  and  C_4
REMARK    3  A    between atoms: C_9  and  N_10
REMARK    4  A    between atoms: N_13  and  C_14
REMARK    5  A    between atoms: C_14  and  C_15
REMARK                            x       y       z     vdW  Elec       q    Type
REMARK                         _______ _______ _______ _____ _____    ______ ____
ROOT
ATOM      1  C   UNL     1       0.715  -0.412   0.000  0.00  0.00    +0.241 A 
ATOM      2  C   UNL     1       1.429   0.000   0.000  0.00  0.00    +0.128 A 
ATOM      3  C   UNL     1       1.429   0.825   0.000  0.00  0.00    +0.023 A 
ATOM      4  C   UNL     1       0.715   1.238   0.000  0.00  0.00    +0.022 A 
ATOM      5  C   UNL     1       0.000   0.825   0.000  0.00  0.00    +0.102 A 
ATOM      6  N   UNL     1       0.000   0.000   0.000  0.00  0.00    -0.209 NA
ENDROOT
BRANCH   2   7
ATOM      7  N   UNL     1       2.143  -0.412   0.000  0.00  0.00    -0.156 NA
ATOM      8  C   UNL     1       2.858   0.000   0.000  0.00  0.00    +0.344 C 
ATOM      9  N   UNL     1       3.572  -0.412   0.000  0.00  0.00    -0.187 NA
ATOM     10  O   UNL     1       2.858   0.825   0.000  0.00  0.00    -0.249 OA
BRANCH   9  11
ATOM     11  C   UNL     1       4.287   0.000   0.000  0.00  0.00    +0.117 C 
BRANCH  11  12
ATOM     12  C   UNL     1       5.001  -0.412   0.000  0.00  0.00    +0.022 C 
ATOM     13  C   UNL     1       5.414  -1.127   0.000  0.00  0.00    +0.002 C 
ATOM     14  C   UNL     1       5.826  -0.412   0.000  0.00  0.00    +0.002 C 
ENDBRANCH  11  12
ENDBRANCH   9  11
ENDBRANCH   2   7
BRANCH   1  15
ATOM     15  O   UNL     1       0.715  -1.238   0.000  0.00  0.00    -0.459 OA
BRANCH  15  17
ATOM     16  C   UNL     1       0.000  -2.475   0.000  0.00  0.00    +0.051 C 
ATOM     17  C   UNL     1       0.000  -1.650   0.000  0.00  0.00    +0.207 C 
ENDBRANCH  15  17
ENDBRANCH   1  15
TORSDOF 5
