REMARK  Name = 
REMARK  3 active torsions:
REMARK  status: ('A' for Active; 'I' for Inactive)
REMARK    1  A    between atoms: C_2  and  C_4
REMARK    2  A    between atoms: C_4  and  C_5
REMARK    3  A    between atoms: N_12  and  C_13
REMARK                            x       y       z     vdW  Elec       q    Type
REMARK                         _______ _______ _______ _____ _____    ______ ____
ROOT
ATOM      1  C   UNL     1       2.652  -2.123   0.000  0.00  0.00    +0.029 A 
ATOM      2  S   UNL     1       1.984  -2.608   0.000  0.00  0.00    -0.054 S 
ATOM      3  C   UNL     1       2.239  -3.393   0.000  0.00  0.00    +0.187 A 
ATOM      4  N   UNL     1       1.754  -4.060   0.000  0.00  0.00    -0.136 NA
ATOM      5  C   UNL     1       2.090  -4.814   0.000  0.00  0.00    +0.345 C 
ATOM      6  N   UNL     1       1.605  -5.481   0.000  0.00  0.00    -0.188 NA
ATOM      7  O   UNL     1       2.910  -4.900   0.000  0.00  0.00    -0.249 OA
ATOM      8  N   UNL     1       3.064  -3.393   0.000  0.00  0.00    -0.221 NA
ATOM      9  C   UNL     1       3.319  -2.608   0.000  0.00  0.00    +0.103 A 
ENDROOT
BRANCH   6  10
ATOM     10  C   UNL     1       0.785  -5.395   0.000  0.00  0.00    +0.110 C 
ATOM     11  C   UNL     1       0.000  -5.140   0.000  0.00  0.00    +0.162 C 
ATOM     12  O   UNL     1      -0.485  -5.808   0.000  0.00  0.00    -0.352 OA
ATOM     13  C   UNL     1       0.000  -6.475   0.000  0.00  0.00    +0.144 C 
ATOM     14  C   UNL     1       0.785  -6.220   0.000  0.00  0.00    +0.055 C 
ATOM     15  C   UNL     1       0.956  -4.588   0.000  0.00  0.00    +0.024 C 
ENDBRANCH   6  10
BRANCH   1  16
ATOM     16  C   UNL     1       2.652  -1.298   0.000  0.00  0.00    +0.035 C 
BRANCH  16  18
ATOM     17  C   UNL     1       3.366  -0.061   0.000  0.00  0.00    +0.000 C 
ATOM     18  C   UNL     1       3.366  -0.886   0.000  0.00  0.00    +0.005 C 
ATOM     19  C   UNL     1       4.081  -1.298   0.000  0.00  0.00    +0.000 C 
ENDBRANCH  16  18
ENDBRANCH   1  16
TORSDOF 3
