REMARK  Name = 
REMARK  4 active torsions:
REMARK  status: ('A' for Active; 'I' for Inactive)
REMARK    1  A    between atoms: N_3  and  C_13
REMARK    2  A    between atoms: N_5  and  C_10
REMARK    3  A    between atoms: C_10  and  C_11
REMARK    4  A    between atoms: C_11  and  C_12
REMARK                            x       y       z     vdW  Elec       q    Type
REMARK                         _______ _______ _______ _____ _____    ______ ____
ROOT
ATOM      1  C   UNL     1       1.921   1.938   0.000  0.00  0.00    +0.173 A 
ATOM      2  N   UNL     1       1.137   2.192   0.000  0.00  0.00    -0.217 NA
ATOM      3  C   UNL     1       0.650   1.525   0.000  0.00  0.00    +0.184 A 
ATOM      4  N   UNL     1       1.137   0.858   0.000  0.00  0.00    -0.273 N 
ATOM      5  C   UNL     1       2.638   2.350   0.000  0.00  0.00    +0.283 A 
ATOM      6  O   UNL     1       2.638   3.175   0.000  0.00  0.00    -0.265 OA
ATOM      7  N   UNL     1       3.350   1.938   0.000  0.00  0.00    -0.274 N 
ATOM      8  C   UNL     1       3.350   1.113   0.000  0.00  0.00    +0.182 A 
ATOM      9  N   UNL     1       2.638   0.700   0.000  0.00  0.00    -0.206 NA
ATOM     10  C   UNL     1       1.921   1.113   0.000  0.00  0.00    +0.173 A 
ENDROOT
BRANCH   4  11
ATOM     11  C   UNL     1       0.883   0.075   0.000  0.00  0.00    +0.067 A 
ATOM     12  C   UNL     1       0.075  -0.100   0.000  0.00  0.00    +0.018 A 
ATOM     13  C   UNL     1      -0.179  -0.883   0.000  0.00  0.00    +0.001 A 
ATOM     14  C   UNL     1       0.371  -1.496   0.000  0.00  0.00    +0.000 A 
ATOM     15  C   UNL     1       1.179  -1.325   0.000  0.00  0.00    +0.001 A 
ATOM     16  C   UNL     1       1.433  -0.542   0.000  0.00  0.00    +0.018 A 
ENDBRANCH   4  11
BRANCH   7  17
ATOM     17  C   UNL     1       4.067   2.350   0.000  0.00  0.00    +0.146 C 
BRANCH  17  18
ATOM     18  C   UNL     1       4.779   1.938   0.000  0.00  0.00    +0.202 C 
ATOM     19  O   UNL     1       4.779   1.113   0.000  0.00  0.00    -0.218 OA
BRANCH  18  20
ATOM     20  C   UNL     1       5.492   2.350   0.000  0.00  0.00    +0.156 C 
ATOM     21  C   UNL     1       6.279   2.604   0.000  0.00  0.00    +0.033 C 
ATOM     22  C   UNL     1       6.279   3.429   0.000  0.00  0.00    +0.003 C 
ATOM     23  C   UNL     1       5.492   3.683   0.000  0.00  0.00    +0.003 C 
ATOM     24  C   UNL     1       5.008   3.017   0.000  0.00  0.00    +0.033 C 
ATOM     25  O   UNL     1       5.829   1.596   0.000  0.00  0.00    -0.223 OA
ENDBRANCH  18  20
ENDBRANCH  17  18
ENDBRANCH   7  17
TORSDOF 4
