REMARK  Name = 
REMARK  7 active torsions:
REMARK  status: ('A' for Active; 'I' for Inactive)
REMARK    1  A    between atoms: C_2  and  C_3
REMARK    2  A    between atoms: C_3  and  O_4
REMARK    3  A    between atoms: C_3  and  C_10
REMARK    4  A    between atoms: O_4  and  C_5
REMARK    5  A    between atoms: N_12  and  C_13
REMARK    6  A    between atoms: C_13  and  C_14
REMARK    7  A    between atoms: C_14  and  C_15
REMARK                            x       y       z     vdW  Elec       q    Type
REMARK                         _______ _______ _______ _____ _____    ______ ____
ROOT
ATOM      1  C   UNL     1       1.160  -3.422   0.000  0.00  0.00    +0.269 C 
ATOM      2  N   UNL     1       1.874  -3.835   0.000  0.00  0.00    -0.203 NA
ATOM      3  O   UNL     1       1.160  -2.598   0.000  0.00  0.00    -0.271 OA
ENDROOT
BRANCH   2   4
ATOM      4  C   UNL     1       2.589  -3.422   0.000  0.00  0.00    +0.120 C 
BRANCH   4   5
ATOM      5  C   UNL     1       3.303  -3.835   0.000  0.00  0.00    +0.053 C 
BRANCH   5   6
ATOM      6  C   UNL     1       4.018  -3.422   0.000  0.00  0.00    +0.019 A 
ATOM      7  C   UNL     1       4.771  -3.758   0.000  0.00  0.00    +0.092 A 
ATOM      8  N   UNL     1       5.323  -3.145   0.000  0.00  0.00    -0.248 N 
ATOM      9  C   UNL     1       6.144  -3.231   0.000  0.00  0.00    +0.154 C 
ATOM     10  N   UNL     1       4.911  -2.430   0.000  0.00  0.00    -0.168 NA
ATOM     11  C   UNL     1       4.104  -2.602   0.000  0.00  0.00    +0.117 A 
ENDBRANCH   5   6
ENDBRANCH   4   5
ENDBRANCH   2   4
BRANCH   1  12
ATOM     12  C   UNL     1       0.445  -3.835   0.000  0.00  0.00    +0.192 C 
BRANCH  12  14
ATOM     13  C   UNL     1       1.160  -5.072   0.000  0.00  0.00    +0.003 C 
ATOM     14  C   UNL     1       0.445  -4.660   0.000  0.00  0.00    +0.039 C 
ENDBRANCH  12  14
BRANCH  12  15
ATOM     15  O   UNL     1      -0.269  -3.422   0.000  0.00  0.00    -0.349 OA
BRANCH  15  16
ATOM     16  C   UNL     1      -0.984  -3.835   0.000  0.00  0.00    +0.116 C 
ATOM     17  C   UNL     1      -1.737  -3.499   0.000  0.00  0.00    +0.030 C 
ATOM     18  C   UNL     1      -2.289  -4.112   0.000  0.00  0.00    +0.003 C 
ATOM     19  C   UNL     1      -1.877  -4.827   0.000  0.00  0.00    +0.003 C 
ATOM     20  C   UNL     1      -1.070  -4.655   0.000  0.00  0.00    +0.030 C 
ENDBRANCH  15  16
ENDBRANCH  12  15
ENDBRANCH   1  12
TORSDOF 7
