REMARK  Name = 
REMARK  2 active torsions:
REMARK  status: ('A' for Active; 'I' for Inactive)
REMARK    1  A    between atoms: N_8  and  C_9
REMARK    2  A    between atoms: C_15  and  C_17
REMARK                            x       y       z     vdW  Elec       q    Type
REMARK                         _______ _______ _______ _____ _____    ______ ____
ROOT
ATOM      1  C   UNL     1      -0.302   5.252   0.000  0.00  0.00    +0.100 C 
ATOM      2  C   UNL     1      -0.302   4.427   0.000  0.00  0.00    +0.043 C 
ATOM      3  C   UNL     1       0.412   4.014   0.000  0.00  0.00    +0.095 C 
ATOM      4  N   UNL     1       1.127   4.427   0.000  0.00  0.00    -0.279 N 
ATOM      5  C   UNL     1       1.841   4.014   0.000  0.00  0.00    +0.225 C 
ATOM      6  O   UNL     1       2.556   4.427   0.000  0.00  0.00    -0.275 OA
ATOM      7  C   UNL     1       1.127   5.252   0.000  0.00  0.00    +0.095 C 
ATOM      8  C   UNL     1       0.412   5.665   0.000  0.00  0.00    +0.043 C 
ENDROOT
BRANCH   1  16
ATOM      9  C   UNL     1      -5.286   5.061   0.000  0.00  0.00    +0.075 C 
ATOM     10  C   UNL     1      -4.466   4.974   0.000  0.00  0.00    +0.156 A 
ATOM     11  O   UNL     1      -4.053   4.260   0.000  0.00  0.00    -0.356 OA
ATOM     12  N   UNL     1      -3.246   4.431   0.000  0.00  0.00    -0.060 NA
ATOM     13  C   UNL     1      -3.160   5.252   0.000  0.00  0.00    +0.197 A 
ATOM     14  N   UNL     1      -2.445   5.665   0.000  0.00  0.00    -0.139 NA
ATOM     15  C   UNL     1      -1.731   5.252   0.000  0.00  0.00    +0.345 C 
ATOM     16  N   UNL     1      -1.016   5.665   0.000  0.00  0.00    -0.189 NA
ATOM     17  O   UNL     1      -1.731   4.427   0.000  0.00  0.00    -0.249 OA
ATOM     18  C   UNL     1      -3.913   5.588   0.000  0.00  0.00    +0.075 A 
ENDBRANCH   1  16
BRANCH   5  19
ATOM     19  C   UNL     1       1.841   3.189   0.000  0.00  0.00    +0.077 C 
ATOM     20  C   UNL     1       1.429   2.475   0.000  0.00  0.00    +0.010 C 
ATOM     21  C   UNL     1       2.254   2.475   0.000  0.00  0.00    +0.010 C 
ENDBRANCH   5  19
TORSDOF 2
