REMARK  Name = 
REMARK  6 active torsions:
REMARK  status: ('A' for Active; 'I' for Inactive)
REMARK    1  A    between atoms: C_6  and  O_7
REMARK    2  A    between atoms: O_7  and  C_8
REMARK    3  A    between atoms: C_8  and  C_9
REMARK    4  A    between atoms: C_9  and  N_10
REMARK    5  A    between atoms: C_11  and  C_20
REMARK    6  A    between atoms: C_14  and  C_15
REMARK                            x       y       z     vdW  Elec       q    Type
REMARK                         _______ _______ _______ _____ _____    ______ ____
ROOT
ATOM      1  N   UNL     1      -3.572  -6.188   0.000  0.00  0.00    -0.288 N 
ATOM      2  C   UNL     1      -4.287  -6.600   0.000  0.00  0.00    +0.265 A 
ATOM      3  O   UNL     1      -5.001  -6.188   0.000  0.00  0.00    -0.267 OA
ATOM      4  C   UNL     1      -4.287  -7.425   0.000  0.00  0.00    +0.113 A 
ATOM      5  C   UNL     1      -3.572  -7.838   0.000  0.00  0.00    +0.011 A 
ATOM      6  C   UNL     1      -2.858  -7.425   0.000  0.00  0.00    +0.021 A 
ATOM      7  C   UNL     1      -2.858  -6.600   0.000  0.00  0.00    +0.134 A 
ENDROOT
BRANCH   7   8
ATOM      8  C   UNL     1      -2.143  -6.188   0.000  0.00  0.00    +0.433 C 
ATOM      9  F   UNL     1      -2.556  -5.473   0.000  0.00  0.00    -0.164 F 
ATOM     10  F   UNL     1      -1.731  -6.902   0.000  0.00  0.00    -0.164 F 
ATOM     11  F   UNL     1      -1.429  -5.775   0.000  0.00  0.00    -0.164 F 
ENDBRANCH   7   8
BRANCH   4  12
ATOM     12  C   UNL     1      -5.001  -7.838   0.000  0.00  0.00    +0.289 C 
ATOM     13  N   UNL     1      -5.716  -7.425   0.000  0.00  0.00    -0.084 NA
ATOM     14  O   UNL     1      -5.001  -8.662   0.000  0.00  0.00    -0.266 OA
ENDBRANCH   4  12
BRANCH   1  15
ATOM     15  C   UNL     1      -3.572  -5.362   0.000  0.00  0.00    +0.156 C 
BRANCH  15  16
ATOM     16  C   UNL     1      -2.858  -4.950   0.000  0.00  0.00    +0.230 C 
BRANCH  16  17
ATOM     17  O   UNL     1      -2.858  -4.125   0.000  0.00  0.00    -0.473 OA
BRANCH  17  21
ATOM     18  C   UNL     1      -1.429  -1.650   0.000  0.00  0.00    +0.031 C 
ATOM     19  C   UNL     1      -1.429  -2.475   0.000  0.00  0.00    -0.019 A 
ATOM     20  C   UNL     1      -2.143  -2.888   0.000  0.00  0.00    +0.033 A 
ATOM     21  C   UNL     1      -2.143  -3.712   0.000  0.00  0.00    +0.138 A 
ATOM     22  C   UNL     1      -1.429  -4.125   0.000  0.00  0.00    +0.037 A 
ATOM     23  C   UNL     1      -0.715  -3.712   0.000  0.00  0.00    +0.003 A 
ATOM     24  C   UNL     1      -0.715  -2.888   0.000  0.00  0.00    -0.004 A 
ENDBRANCH  17  21
ENDBRANCH  16  17
ENDBRANCH  15  16
ENDBRANCH   1  15
TORSDOF 6
