REMARK  Name = 
REMARK  5 active torsions:
REMARK  status: ('A' for Active; 'I' for Inactive)
REMARK    1  A    between atoms: N_10  and  C_11
REMARK    2  A    between atoms: C_11  and  C_12
REMARK    3  A    between atoms: C_12  and  C_14
REMARK    4  A    between atoms: C_14  and  O_15
REMARK    5  A    between atoms: O_15  and  C_16
REMARK                            x       y       z     vdW  Elec       q    Type
REMARK                         _______ _______ _______ _____ _____    ______ ____
ROOT
ATOM      1  C   UNL     1       2.389  -0.008   0.000  0.00  0.00    +0.144 C 
ENDROOT
BRANCH   1   4
ATOM      2  C   UNL     1       0.750  -0.738   0.000  0.00  0.00    +0.072 C 
ATOM      3  C   UNL     1       0.921   0.069   0.000  0.00  0.00    +0.121 A 
ATOM      4  N   UNL     1       1.675   0.404   0.000  0.00  0.00    -0.312 N 
ATOM      5  C   UNL     1       1.589   1.225   0.000  0.00  0.00    +0.079 A 
ATOM      6  C   UNL     1       0.782   1.396   0.000  0.00  0.00    +0.098 A 
ATOM      7  C   UNL     1       0.527   2.181   0.000  0.00  0.00    +0.021 A 
ATOM      8  C   UNL     1       1.079   2.794   0.000  0.00  0.00    +0.002 A 
ATOM      9  C   UNL     1       1.886   2.622   0.000  0.00  0.00    +0.002 A 
ATOM     10  C   UNL     1       2.141   1.838   0.000  0.00  0.00    +0.019 A 
ATOM     11  N   UNL     1       0.369   0.682   0.000  0.00  0.00    -0.231 NA
ENDBRANCH   1   4
BRANCH   1  12
ATOM     12  C   UNL     1       3.104   0.404   0.000  0.00  0.00    +0.218 C 
ATOM     13  O   UNL     1       3.104   1.229   0.000  0.00  0.00    -0.217 OA
BRANCH  12  14
ATOM     14  C   UNL     1       3.818  -0.008   0.000  0.00  0.00    +0.240 C 
BRANCH  14  15
ATOM     15  O   UNL     1       4.533   0.404   0.000  0.00  0.00    -0.473 OA
BRANCH  15  16
ATOM     16  C   UNL     1       5.247  -0.008   0.000  0.00  0.00    +0.139 A 
ATOM     17  C   UNL     1       5.247  -0.833   0.000  0.00  0.00    +0.037 A 
ATOM     18  C   UNL     1       5.962  -1.246   0.000  0.00  0.00    +0.003 A 
ATOM     19  C   UNL     1       6.676  -0.833   0.000  0.00  0.00    +0.000 A 
ATOM     20  C   UNL     1       6.676  -0.008   0.000  0.00  0.00    +0.003 A 
ATOM     21  C   UNL     1       5.962   0.404   0.000  0.00  0.00    +0.037 A 
ENDBRANCH  15  16
ENDBRANCH  14  15
ENDBRANCH  12  14
ENDBRANCH   1  12
TORSDOF 5
