REMARK  Name = 
REMARK  5 active torsions:
REMARK  status: ('A' for Active; 'I' for Inactive)
REMARK    1  A    between atoms: O_2  and  C_3
REMARK    2  A    between atoms: C_3  and  C_4
REMARK    3  A    between atoms: C_4  and  N_5
REMARK    4  A    between atoms: C_4  and  C_14
REMARK    5  A    between atoms: C_9  and  C_10
REMARK                            x       y       z     vdW  Elec       q    Type
REMARK                         _______ _______ _______ _____ _____    ______ ____
ROOT
ATOM      1  N   UNL     1       2.143  -1.238   0.000  0.00  0.00    -0.210 NA
ATOM      2  C   UNL     1       2.858  -0.825   0.000  0.00  0.00    +0.148 A 
ATOM      3  N   UNL     1       3.572  -1.238   0.000  0.00  0.00    -0.227 NA
ATOM      4  C   UNL     1       4.287  -0.825   0.000  0.00  0.00    +0.111 A 
ATOM      5  C   UNL     1       4.287   0.000   0.000  0.00  0.00    +0.088 A 
ATOM      6  C   UNL     1       3.572   0.412   0.000  0.00  0.00    +0.015 A 
ATOM      7  C   UNL     1       2.858   0.000   0.000  0.00  0.00    +0.036 A 
ENDROOT
BRANCH   5   8
ATOM      8  C   UNL     1       5.001   0.412   0.000  0.00  0.00    +0.102 C 
ATOM      9  N   UNL     1       5.716   0.825   0.000  0.00  0.00    -0.191 NA
ENDBRANCH   5   8
BRANCH   1  10
ATOM     10  C   UNL     1       2.143  -2.062   0.000  0.00  0.00    +0.202 C 
BRANCH  10  11
ATOM     11  C   UNL     1       2.858  -2.475   0.000  0.00  0.00    +0.283 C 
ATOM     12  N   UNL     1       2.858  -3.300   0.000  0.00  0.00    -0.086 NA
ATOM     13  O   UNL     1       3.572  -2.062   0.000  0.00  0.00    -0.270 OA
ENDBRANCH  10  11
BRANCH  10  14
ATOM     14  C   UNL     1       1.429  -2.475   0.000  0.00  0.00    +0.173 C 
BRANCH  14  16
ATOM     15  C   UNL     1       0.715  -3.712   0.000  0.00  0.00    +0.174 C 
ATOM     16  O   UNL     1       1.429  -3.300   0.000  0.00  0.00    -0.349 OA
ENDBRANCH  14  16
ENDBRANCH  10  14
ENDBRANCH   1  10
TORSDOF 5
