REMARK  Name = 
REMARK  3 active torsions:
REMARK  status: ('A' for Active; 'I' for Inactive)
REMARK    1  A    between atoms: C_8  and  C_9
REMARK    2  A    between atoms: C_9  and  C_10
REMARK    3  A    between atoms: N_12  and  C_13
REMARK                            x       y       z     vdW  Elec       q    Type
REMARK                         _______ _______ _______ _____ _____    ______ ____
ROOT
ATOM      1  C   UNL     1       1.971  -1.034   0.000  0.00  0.00    +0.246 C 
ATOM      2  N   UNL     1       1.187  -0.779   0.000  0.00  0.00    -0.204 NA
ATOM      3  O   UNL     1       2.584  -0.482   0.000  0.00  0.00    -0.273 OA
ENDROOT
BRANCH   2   4
ATOM      4  C   UNL     1       1.015   0.028   0.000  0.00  0.00    +0.122 C 
ATOM      5  C   UNL     1       1.567   0.641   0.000  0.00  0.00    +0.111 C 
ATOM      6  C   UNL     1       2.240   0.163   0.000  0.00  0.00    +0.031 C 
ATOM      7  C   UNL     1       2.324   0.968   0.000  0.00  0.00    +0.031 C 
ATOM      8  O   UNL     1       1.155   1.355   0.000  0.00  0.00    -0.362 OA
ATOM      9  C   UNL     1       0.348   1.184   0.000  0.00  0.00    +0.095 C 
ATOM     10  C   UNL     1       0.262   2.004   0.000  0.00  0.00    +0.030 C 
ATOM     11  C   UNL     1      -0.477   1.184   0.000  0.00  0.00    +0.030 C 
ATOM     12  C   UNL     1       0.262   0.363   0.000  0.00  0.00    +0.051 C 
ENDBRANCH   2   4
BRANCH   1  13
ATOM     13  C   UNL     1       2.143  -1.841   0.000  0.00  0.00    +0.115 C 
BRANCH  13  16
ATOM     14  C   UNL     1       3.595  -0.786   0.000  0.00  0.00    +0.054 C 
ATOM     15  C   UNL     1       3.595  -1.611   0.000  0.00  0.00    +0.077 A 
ATOM     16  C   UNL     1       2.928  -2.096   0.000  0.00  0.00    +0.015 A 
ATOM     17  C   UNL     1       3.182  -2.881   0.000  0.00  0.00    +0.054 A 
ATOM     18  C   UNL     1       2.697  -3.548   0.000  0.00  0.00    +0.051 C 
ATOM     19  N   UNL     1       4.007  -2.881   0.000  0.00  0.00    -0.253 N 
ATOM     20  C   UNL     1       4.492  -3.548   0.000  0.00  0.00    +0.153 C 
ATOM     21  N   UNL     1       4.262  -2.096   0.000  0.00  0.00    -0.174 NA
ENDBRANCH  13  16
ENDBRANCH   1  13
TORSDOF 3
