REMARK  Name = 
REMARK  5 active torsions:
REMARK  status: ('A' for Active; 'I' for Inactive)
REMARK    1  A    between atoms: S_2  and  C_3
REMARK    2  A    between atoms: C_6  and  O_7
REMARK    3  A    between atoms: O_7  and  C_8
REMARK    4  A    between atoms: C_8  and  C_9
REMARK    5  A    between atoms: C_9  and  N_10
REMARK                            x       y       z     vdW  Elec       q    Type
REMARK                         _______ _______ _______ _____ _____    ______ ____
ROOT
ATOM      1  C   UNL     1       2.143  -5.362   0.000  0.00  0.00    +0.230 C 
ENDROOT
BRANCH   1   2
ATOM      2  O   UNL     1       2.858  -4.950   0.000  0.00  0.00    -0.473 OA
BRANCH   2   6
ATOM      3  C   UNL     1       2.858  -2.475   0.000  0.00  0.00    +0.025 A 
ATOM      4  C   UNL     1       2.143  -2.888   0.000  0.00  0.00    +0.009 A 
ATOM      5  C   UNL     1       2.143  -3.712   0.000  0.00  0.00    +0.037 A 
ATOM      6  C   UNL     1       2.858  -4.125   0.000  0.00  0.00    +0.139 A 
ATOM      7  C   UNL     1       3.572  -3.712   0.000  0.00  0.00    +0.037 A 
ATOM      8  C   UNL     1       3.572  -2.888   0.000  0.00  0.00    +0.009 A 
BRANCH   3  10
ATOM      9  C   UNL     1       2.143  -1.238   0.000  0.00  0.00    +0.074 C 
ATOM     10  S   UNL     1       2.858  -1.650   0.000  0.00  0.00    -0.113 S 
ENDBRANCH   3  10
ENDBRANCH   2   6
ENDBRANCH   1   2
BRANCH   1  11
ATOM     11  C   UNL     1       2.143  -6.188   0.000  0.00  0.00    +0.158 C 
BRANCH  11  12
ATOM     12  N   UNL     1       1.429  -6.600   0.000  0.00  0.00    -0.274 N 
ATOM     13  C   UNL     1       0.715  -6.188   0.000  0.00  0.00    +0.353 A 
ATOM     14  O   UNL     1       0.715  -5.362   0.000  0.00  0.00    -0.244 OA
ATOM     15  N   UNL     1       0.000  -6.600   0.000  0.00  0.00    -0.152 NA
ATOM     16  C   UNL     1       0.000  -7.425   0.000  0.00  0.00    +0.295 A 
ATOM     17  O   UNL     1      -0.715  -7.838   0.000  0.00  0.00    -0.264 OA
ATOM     18  C   UNL     1       0.715  -7.838   0.000  0.00  0.00    +0.133 A 
ATOM     19 CL   UNL     1       0.715  -8.662   0.000  0.00  0.00    -0.076 Cl
ATOM     20  C   UNL     1       1.429  -7.425   0.000  0.00  0.00    +0.096 A 
ENDBRANCH  11  12
ENDBRANCH   1  11
TORSDOF 5
