REMARK  Name = 
REMARK  5 active torsions:
REMARK  status: ('A' for Active; 'I' for Inactive)
REMARK    1  A    between atoms: C_2  and  N_3
REMARK    2  A    between atoms: C_2  and  C_8
REMARK    3  A    between atoms: N_3  and  C_4
REMARK    4  A    between atoms: C_4  and  C_5
REMARK    5  A    between atoms: C_8  and  N_10
REMARK                            x       y       z     vdW  Elec       q    Type
REMARK                         _______ _______ _______ _____ _____    ______ ____
ROOT
ATOM      1  C   UNL     1       3.530  -1.996   0.000  0.00  0.00    +0.121 C 
ATOM      2  C   UNL     1       3.530  -1.171   0.000  0.00  0.00    +0.028 C 
ENDROOT
BRANCH   1   3
ATOM      3  N   UNL     1       4.245  -2.408   0.000  0.00  0.00    -0.250 N 
ATOM      4  N   UNL     1       4.331  -3.229   0.000  0.00  0.00    -0.168 NA
ATOM      5  C   UNL     1       5.138  -3.400   0.000  0.00  0.00    +0.117 A 
ATOM      6  C   UNL     1       5.551  -2.686   0.000  0.00  0.00    +0.018 A 
ATOM      7  C   UNL     1       6.371  -2.599   0.000  0.00  0.00    +0.034 C 
ATOM      8  C   UNL     1       4.999  -2.073   0.000  0.00  0.00    +0.092 A 
ENDBRANCH   1   3
BRANCH   1  10
ATOM      9  C   UNL     1       2.816  -3.233   0.000  0.00  0.00    +0.021 C 
ATOM     10  C   UNL     1       2.816  -2.408   0.000  0.00  0.00    +0.095 C 
BRANCH  10  11
ATOM     11  N   UNL     1       2.102  -1.996   0.000  0.00  0.00    -0.217 NA
BRANCH  11  12
ATOM     12  C   UNL     1       1.387  -2.408   0.000  0.00  0.00    +0.089 C 
BRANCH  12  13
ATOM     13  C   UNL     1       0.672  -1.996   0.000  0.00  0.00    +0.017 C 
ATOM     14  C   UNL     1       0.260  -1.281   0.000  0.00  0.00    +0.001 C 
ATOM     15  C   UNL     1      -0.152  -1.996   0.000  0.00  0.00    +0.001 C 
ENDBRANCH  12  13
ENDBRANCH  11  12
ENDBRANCH  10  11
ENDBRANCH   1  10
TORSDOF 5
