REMARK  Name = 
REMARK  5 active torsions:
REMARK  status: ('A' for Active; 'I' for Inactive)
REMARK    1  A    between atoms: C_2  and  C_4
REMARK    2  A    between atoms: C_4  and  C_5
REMARK    3  A    between atoms: C_4  and  N_15
REMARK    4  A    between atoms: C_5  and  N_6
REMARK    5  A    between atoms: N_9  and  C_10
REMARK                            x       y       z     vdW  Elec       q    Type
REMARK                         _______ _______ _______ _____ _____    ______ ____
ROOT
ATOM      1  C   UNL     1       0.715  -1.238   0.000  0.00  0.00    +0.079 C 
ENDROOT
BRANCH   1   2
ATOM      2  N   UNL     1       0.000  -0.825   0.000  0.00  0.00    -0.268 NA
ATOM      3  C   UNL     1       0.000   0.000   0.000  0.00  0.00    +0.105 C 
ATOM      4  C   UNL     1      -0.715   0.412   0.000  0.00  0.00    +0.159 C 
ATOM      5  O   UNL     1      -1.429   0.000   0.000  0.00  0.00    -0.351 OA
ATOM      6  C   UNL     1      -1.429  -0.825   0.000  0.00  0.00    +0.159 C 
ATOM      7  C   UNL     1      -0.715  -1.238   0.000  0.00  0.00    +0.105 C 
ENDBRANCH   1   2
BRANCH   1   9
ATOM      8  C   UNL     1       1.429  -2.475   0.000  0.00  0.00    +0.001 C 
ATOM      9  C   UNL     1       0.715  -2.062   0.000  0.00  0.00    +0.016 C 
ATOM     10  C   UNL     1       0.000  -2.475   0.000  0.00  0.00    +0.001 C 
ENDBRANCH   1   9
BRANCH   1  11
ATOM     11  C   UNL     1       1.429  -0.825   0.000  0.00  0.00    +0.133 C 
BRANCH  11  12
ATOM     12  N   UNL     1       2.143  -1.238   0.000  0.00  0.00    -0.185 NA
ATOM     13  C   UNL     1       2.858  -0.825   0.000  0.00  0.00    +0.344 C 
ATOM     14  N   UNL     1       3.572  -1.238   0.000  0.00  0.00    -0.158 NA
ATOM     15  O   UNL     1       2.858   0.000   0.000  0.00  0.00    -0.249 OA
BRANCH  14  16
ATOM     16  C   UNL     1       4.287  -0.825   0.000  0.00  0.00    +0.117 A 
ATOM     17  C   UNL     1       5.040  -1.161   0.000  0.00  0.00    +0.140 A 
ATOM     18  N   UNL     1       5.593  -0.547   0.000  0.00  0.00    -0.145 NA
ATOM     19  N   UNL     1       5.180   0.167   0.000  0.00  0.00    -0.145 NA
ATOM     20  C   UNL     1       4.373  -0.004   0.000  0.00  0.00    +0.140 A 
ENDBRANCH  14  16
ENDBRANCH  11  12
ENDBRANCH   1  11
TORSDOF 5
