REMARK  Name = 
REMARK  3 active torsions:
REMARK  status: ('A' for Active; 'I' for Inactive)
REMARK    1  A    between atoms: N_2  and  C_11
REMARK    2  A    between atoms: C_16  and  C_24
REMARK    3  A    between atoms: C_16  and  C_25
REMARK                            x       y       z     vdW  Elec       q    Type
REMARK                         _______ _______ _______ _____ _____    ______ ____
ROOT
ATOM      1  S   UNL     1       0.029  -1.431   0.000  0.00  0.00    -0.010 S 
ATOM      2  O   UNL     1      -0.309  -2.187   0.000  0.00  0.00    -0.173 OA
ATOM      3  O   UNL     1       0.743  -1.845   0.000  0.00  0.00    -0.173 OA
ATOM      4  C   UNL     1       0.513  -0.764   0.000  0.00  0.00    +0.151 C 
ATOM      5  C   UNL     1       0.029  -0.096   0.000  0.00  0.00    +0.029 C 
ATOM      6  C   UNL     1      -0.759  -0.350   0.000  0.00  0.00    +0.045 C 
ATOM      7  C   UNL     1      -1.544  -0.096   0.000  0.00  0.00    +0.094 C 
ATOM      8  N   UNL     1      -2.028  -0.764   0.000  0.00  0.00    -0.290 N 
ATOM      9  C   UNL     1      -2.854  -0.764   0.000  0.00  0.00    +0.154 A 
ATOM     10  N   UNL     1      -3.268  -1.477   0.000  0.00  0.00    -0.207 NA
ATOM     11  C   UNL     1      -4.094  -1.477   0.000  0.00  0.00    +0.201 A 
ATOM     12  N   UNL     1      -4.507  -0.764   0.000  0.00  0.00    -0.205 NA
ATOM     13  C   UNL     1      -4.094  -0.046   0.000  0.00  0.00    +0.167 A 
ATOM     14  N   UNL     1      -4.348   0.739   0.000  0.00  0.00    -0.296 N 
ATOM     15  C   UNL     1      -3.681   1.223   0.000  0.00  0.00    +0.180 A 
ATOM     16  N   UNL     1      -3.013   0.739   0.000  0.00  0.00    -0.219 NA
ATOM     17  C   UNL     1      -3.268  -0.046   0.000  0.00  0.00    +0.149 A 
ATOM     18  C   UNL     1      -1.544  -1.431   0.000  0.00  0.00    +0.116 C 
ATOM     19  C   UNL     1      -0.759  -1.177   0.000  0.00  0.00    +0.150 C 
ENDROOT
BRANCH  14  20
ATOM     20  C   UNL     1      -5.137   0.993   0.000  0.00  0.00    +0.089 C 
ATOM     21  C   UNL     1      -5.513   1.732   0.000  0.00  0.00    +0.028 C 
ATOM     22  C   UNL     1      -6.243   1.356   0.000  0.00  0.00    +0.065 C 
ATOM     23  C   UNL     1      -5.872   0.618   0.000  0.00  0.00    +0.028 C 
BRANCH  22  24
ATOM     24  C   UNL     1      -6.978   0.981   0.000  0.00  0.00    +0.185 C 
ATOM     25  O   UNL     1      -7.024   0.154   0.000  0.00  0.00    -0.220 OA
ENDBRANCH  22  24
BRANCH  22  26
ATOM     26  C   UNL     1      -6.619   2.091   0.000  0.00  0.00    +0.185 C 
ATOM     27  O   UNL     1      -6.168   2.784   0.000  0.00  0.00    -0.220 OA
ENDBRANCH  22  26
ENDBRANCH  14  20
TORSDOF 3
