REMARK  Name = 
REMARK  5 active torsions:
REMARK  status: ('A' for Active; 'I' for Inactive)
REMARK    1  A    between atoms: C_2  and  C_3
REMARK    2  A    between atoms: C_2  and  C_15
REMARK    3  A    between atoms: C_3  and  N_4
REMARK    4  A    between atoms: C_5  and  C_7
REMARK    5  A    between atoms: C_7  and  C_13
REMARK                            x       y       z     vdW  Elec       q    Type
REMARK                         _______ _______ _______ _____ _____    ______ ____
ROOT
ATOM      1  N   UNL     1       3.302  -1.946   0.000  0.00  0.00    -0.204 NA
ATOM      2  C   UNL     1       4.016  -1.533   0.000  0.00  0.00    +0.254 C 
ATOM      3  O   UNL     1       4.016  -0.708   0.000  0.00  0.00    -0.272 OA
ENDROOT
BRANCH   2   4
ATOM      4  C   UNL     1       4.731  -1.946   0.000  0.00  0.00    +0.149 C 
ATOM      5  C   UNL     1       4.201  -2.578   0.000  0.00  0.00    +0.023 C 
ATOM      6  C   UNL     1       4.483  -3.353   0.000  0.00  0.00    +0.002 C 
ATOM      7  C   UNL     1       5.295  -3.496   0.000  0.00  0.00    +0.000 C 
ATOM      8  C   UNL     1       5.826  -2.864   0.000  0.00  0.00    +0.002 C 
ATOM      9  C   UNL     1       5.543  -2.089   0.000  0.00  0.00    +0.023 C 
BRANCH   4  10
ATOM     10  C   UNL     1       5.013  -1.171   0.000  0.00  0.00    +0.080 C 
ATOM     11  N   UNL     1       5.295  -0.395   0.000  0.00  0.00    -0.195 NA
ENDBRANCH   4  10
ENDBRANCH   2   4
BRANCH   1  12
ATOM     12  C   UNL     1       2.587  -1.533   0.000  0.00  0.00    +0.120 C 
BRANCH  12  14
ATOM     13  C   UNL     1       1.873  -2.771   0.000  0.00  0.00    +0.007 C 
ATOM     14  C   UNL     1       1.873  -1.946   0.000  0.00  0.00    +0.048 C 
BRANCH  14  15
ATOM     15  C   UNL     1       1.159  -1.533   0.000  0.00  0.00    +0.029 A 
ATOM     16  C   UNL     1       1.072  -0.713   0.000  0.00  0.00    +0.150 A 
ATOM     17  C   UNL     1       1.685  -0.161   0.000  0.00  0.00    +0.075 C 
ATOM     18  O   UNL     1       0.265  -0.541   0.000  0.00  0.00    -0.358 OA
ATOM     19  N   UNL     1      -0.147  -1.256   0.000  0.00  0.00    -0.082 NA
ATOM     20  C   UNL     1       0.405  -1.869   0.000  0.00  0.00    +0.097 A 
ATOM     21  C   UNL     1       0.233  -2.676   0.000  0.00  0.00    +0.055 C 
ENDBRANCH  14  15
ENDBRANCH  12  14
ENDBRANCH   1  12
TORSDOF 5
