REMARK  Name = 
REMARK  4 active torsions:
REMARK  status: ('A' for Active; 'I' for Inactive)
REMARK    1  A    between atoms: C_2  and  N_3
REMARK    2  A    between atoms: C_7  and  N_8
REMARK    3  A    between atoms: N_11  and  C_12
REMARK    4  A    between atoms: C_12  and  C_14
REMARK                            x       y       z     vdW  Elec       q    Type
REMARK                         _______ _______ _______ _____ _____    ______ ____
ROOT
ATOM      1  N   UNL     1       0.715  -2.888   0.000  0.00  0.00    -0.159 NA
ATOM      2  C   UNL     1       1.429  -2.475   0.000  0.00  0.00    +0.344 C 
ATOM      3  N   UNL     1       2.143  -2.888   0.000  0.00  0.00    -0.189 NA
ATOM      4  O   UNL     1       1.429  -1.650   0.000  0.00  0.00    -0.249 OA
ENDROOT
BRANCH   1   8
ATOM      5  N   UNL     1      -1.306  -2.197   0.000  0.00  0.00    -0.254 N 
ATOM      6  C   UNL     1      -0.754  -2.811   0.000  0.00  0.00    +0.072 A 
ATOM      7  C   UNL     1      -0.925  -3.618   0.000  0.00  0.00    +0.053 C 
ATOM      8  C   UNL     1       0.000  -2.475   0.000  0.00  0.00    +0.103 A 
ATOM      9  C   UNL     1      -0.086  -1.655   0.000  0.00  0.00    +0.095 A 
ATOM     10  C   UNL     1       0.527  -1.103   0.000  0.00  0.00    +0.055 C 
ATOM     11  N   UNL     1      -0.893  -1.483   0.000  0.00  0.00    -0.173 NA
BRANCH   5  13
ATOM     12  C   UNL     1      -2.611  -1.616   0.000  0.00  0.00    +0.028 C 
ATOM     13  C   UNL     1      -2.126  -2.284   0.000  0.00  0.00    +0.127 C 
ENDBRANCH   5  13
ENDBRANCH   1   8
BRANCH   3  14
ATOM     14  C   UNL     1       2.858  -2.475   0.000  0.00  0.00    +0.097 C 
ATOM     15  C   UNL     1       2.858  -1.650   0.000  0.00  0.00    +0.023 C 
BRANCH  14  16
ATOM     16  C   UNL     1       3.572  -2.888   0.000  0.00  0.00    +0.025 C 
ATOM     17  C   UNL     1       3.572  -3.712   0.000  0.00  0.00    +0.034 C 
ATOM     18  C   UNL     1       4.287  -4.125   0.000  0.00  0.00    +0.142 C 
ATOM     19  O   UNL     1       5.001  -3.712   0.000  0.00  0.00    -0.354 OA
ATOM     20  C   UNL     1       5.001  -2.888   0.000  0.00  0.00    +0.142 C 
ATOM     21  C   UNL     1       4.287  -2.475   0.000  0.00  0.00    +0.034 C 
ENDBRANCH  14  16
ENDBRANCH   3  14
TORSDOF 4
