REMARK  Name = 
REMARK  6 active torsions:
REMARK  status: ('A' for Active; 'I' for Inactive)
REMARK    1  A    between atoms: N_2  and  C_4
REMARK    2  A    between atoms: N_9  and  C_10
REMARK    3  A    between atoms: C_10  and  C_11
REMARK    4  A    between atoms: N_13  and  C_14
REMARK    5  A    between atoms: C_14  and  C_15
REMARK    6  A    between atoms: C_15  and  C_16
REMARK                            x       y       z     vdW  Elec       q    Type
REMARK                         _______ _______ _______ _____ _____    ______ ____
ROOT
ATOM      1  C   UNL     1       2.143  -3.712   0.000  0.00  0.00    +0.196 C 
ENDROOT
BRANCH   1   4
ATOM      2  C   UNL     1       0.715  -5.362   0.000  0.00  0.00    +0.307 A 
ATOM      3  C   UNL     1       1.429  -4.950   0.000  0.00  0.00    +0.155 A 
ATOM      4  N   UNL     1       1.429  -4.125   0.000  0.00  0.00    -0.280 N 
ATOM      5  C   UNL     1       0.715  -3.712   0.000  0.00  0.00    +0.262 A 
ATOM      6  O   UNL     1       0.715  -2.888   0.000  0.00  0.00    -0.267 OA
ATOM      7  C   UNL     1       0.000  -4.125   0.000  0.00  0.00    +0.067 A 
ATOM      8  C   UNL     1       0.000  -4.950   0.000  0.00  0.00    +0.082 A 
BRANCH   2  10
ATOM      9  O   UNL     1       0.000  -6.600   0.000  0.00  0.00    -0.576 OA
ATOM     10  N   UNL     1       0.715  -6.188   0.000  0.00  0.00    +0.082 N 
ATOM     11  O   UNL     1       1.429  -6.600   0.000  0.00  0.00    +0.042 OA
ENDBRANCH   2  10
ENDBRANCH   1   4
BRANCH   1  12
ATOM     12  C   UNL     1       2.858  -4.125   0.000  0.00  0.00    +0.265 C 
ATOM     13  N   UNL     1       3.572  -3.712   0.000  0.00  0.00    -0.203 NA
ATOM     14  O   UNL     1       2.858  -4.950   0.000  0.00  0.00    -0.271 OA
BRANCH  13  15
ATOM     15  C   UNL     1       4.287  -4.125   0.000  0.00  0.00    +0.120 C 
BRANCH  15  16
ATOM     16  C   UNL     1       5.001  -3.712   0.000  0.00  0.00    +0.045 C 
BRANCH  16  17
ATOM     17  C   UNL     1       5.716  -4.125   0.000  0.00  0.00    -0.047 C 
ATOM     18  C   UNL     1       5.716  -4.950   0.000  0.00  0.00    +0.022 C 
ATOM     19  C   UNL     1       6.430  -5.362   0.000  0.00  0.00    +0.005 C 
ATOM     20  C   UNL     1       7.145  -4.950   0.000  0.00  0.00    +0.005 C 
ATOM     21  C   UNL     1       7.145  -4.125   0.000  0.00  0.00    +0.025 C 
ATOM     22  C   UNL     1       6.430  -3.712   0.000  0.00  0.00    -0.035 C 
ENDBRANCH  16  17
ENDBRANCH  15  16
ENDBRANCH  13  15
ENDBRANCH   1  12
TORSDOF 6
