REMARK  Name = 
REMARK  5 active torsions:
REMARK  status: ('A' for Active; 'I' for Inactive)
REMARK    1  A    between atoms: N_10  and  C_11
REMARK    2  A    between atoms: C_11  and  C_12
REMARK    3  A    between atoms: C_12  and  C_14
REMARK    4  A    between atoms: C_14  and  O_15
REMARK    5  A    between atoms: O_15  and  C_16
REMARK                            x       y       z     vdW  Elec       q    Type
REMARK                         _______ _______ _______ _____ _____    ______ ____
ROOT
ATOM      1  C   UNL     1      -0.098  -0.258   0.000  0.00  0.00    +0.138 C 
ATOM      2  N   UNL     1       0.157   0.527   0.000  0.00  0.00    -0.245 N 
ATOM      3  C   UNL     1       0.964   0.698   0.000  0.00  0.00    +0.283 A 
ATOM      4  O   UNL     1       1.516   0.085   0.000  0.00  0.00    -0.265 OA
ATOM      5  C   UNL     1       1.218   1.483   0.000  0.00  0.00    +0.153 A 
ATOM      6  C   UNL     1       0.666   2.096   0.000  0.00  0.00    +0.170 A 
ATOM      7  N   UNL     1       1.079   2.811   0.000  0.00  0.00    -0.206 NA
ATOM      8  C   UNL     1       1.886   2.639   0.000  0.00  0.00    +0.180 A 
ATOM      9  N   UNL     1      -0.141   1.925   0.000  0.00  0.00    -0.263 N 
ATOM     10  C   UNL     1      -0.693   2.538   0.000  0.00  0.00    +0.137 C 
ATOM     11  N   UNL     1       1.972   1.819   0.000  0.00  0.00    -0.301 N 
ATOM     12  C   UNL     1      -0.396   1.140   0.000  0.00  0.00    +0.335 A 
ATOM     13  O   UNL     1      -1.202   0.969   0.000  0.00  0.00    -0.246 OA
ENDROOT
BRANCH  11  14
ATOM     14  C   UNL     1       2.687   1.406   0.000  0.00  0.00    +0.144 C 
BRANCH  14  15
ATOM     15  C   UNL     1       3.401   1.819   0.000  0.00  0.00    +0.218 C 
ATOM     16  O   UNL     1       3.401   2.644   0.000  0.00  0.00    -0.217 OA
BRANCH  15  17
ATOM     17  C   UNL     1       4.115   1.406   0.000  0.00  0.00    +0.240 C 
BRANCH  17  18
ATOM     18  O   UNL     1       4.830   1.819   0.000  0.00  0.00    -0.473 OA
BRANCH  18  19
ATOM     19  C   UNL     1       5.545   1.406   0.000  0.00  0.00    +0.139 A 
ATOM     20  C   UNL     1       5.545   0.581   0.000  0.00  0.00    +0.039 A 
ATOM     21  C   UNL     1       6.259   0.169   0.000  0.00  0.00    +0.033 A 
ATOM     22  C   UNL     1       6.973   0.581   0.000  0.00  0.00    +0.140 A 
ATOM     23  F   UNL     1       7.688   0.169   0.000  0.00  0.00    -0.204 F 
ATOM     24  C   UNL     1       6.973   1.406   0.000  0.00  0.00    +0.033 A 
ATOM     25  C   UNL     1       6.259   1.819   0.000  0.00  0.00    +0.039 A 
ENDBRANCH  18  19
ENDBRANCH  17  18
ENDBRANCH  15  17
ENDBRANCH  14  15
ENDBRANCH  11  14
TORSDOF 5
