REMARK  Name = 
REMARK  1 active torsions:
REMARK  status: ('A' for Active; 'I' for Inactive)
REMARK    1  A    between atoms: N_8  and  C_9
REMARK                            x       y       z     vdW  Elec       q    Type
REMARK                         _______ _______ _______ _____ _____    ______ ____
ROOT
ATOM      1  C   UNL     1       3.595  -0.786   0.000  0.00  0.00    +0.075 C 
ATOM      2  C   UNL     1       3.595  -1.611   0.000  0.00  0.00    +0.156 A 
ATOM      3  O   UNL     1       2.928  -2.096   0.000  0.00  0.00    -0.356 OA
ATOM      4  N   UNL     1       3.182  -2.881   0.000  0.00  0.00    -0.060 NA
ATOM      5  C   UNL     1       4.007  -2.881   0.000  0.00  0.00    +0.197 A 
ATOM      6  N   UNL     1       4.492  -3.548   0.000  0.00  0.00    -0.139 NA
ATOM      7  C   UNL     1       4.157  -4.302   0.000  0.00  0.00    +0.345 C 
ATOM      8  N   UNL     1       4.642  -4.970   0.000  0.00  0.00    -0.189 NA
ATOM      9  O   UNL     1       3.336  -4.388   0.000  0.00  0.00    -0.249 OA
ATOM     10  C   UNL     1       4.262  -2.096   0.000  0.00  0.00    +0.075 A 
ENDROOT
BRANCH   8  11
ATOM     11  C   UNL     1       4.306  -5.723   0.000  0.00  0.00    +0.097 C 
ATOM     12  C   UNL     1       3.499  -5.895   0.000  0.00  0.00    +0.022 C 
ATOM     13  C   UNL     1       3.413  -6.715   0.000  0.00  0.00    +0.002 C 
ATOM     14  C   UNL     1       4.167  -7.051   0.000  0.00  0.00    +0.002 C 
ATOM     15  C   UNL     1       4.719  -6.438   0.000  0.00  0.00    +0.022 C 
ENDBRANCH   8  11
TORSDOF 1
