REMARK  Name = 
REMARK  4 active torsions:
REMARK  status: ('A' for Active; 'I' for Inactive)
REMARK    1  A    between atoms: N_4  and  C_5
REMARK    2  A    between atoms: C_5  and  C_6
REMARK    3  A    between atoms: N_8  and  C_9
REMARK    4  A    between atoms: C_18  and  C_19
REMARK                            x       y       z     vdW  Elec       q    Type
REMARK                         _______ _______ _______ _____ _____    ______ ____
ROOT
ATOM      1  C   UNL     1      -2.087  -1.202   0.000  0.00  0.00    +0.054 C 
ATOM      2  C   UNL     1      -2.087  -2.027   0.000  0.00  0.00    +0.076 A 
ATOM      3  C   UNL     1      -2.802  -2.440   0.000  0.00  0.00    +0.008 A 
ATOM      4  C   UNL     1      -3.516  -2.027   0.000  0.00  0.00    +0.033 C 
ATOM      5  C   UNL     1      -2.802  -3.265   0.000  0.00  0.00    +0.123 A 
ATOM      6  C   UNL     1      -2.087  -3.678   0.000  0.00  0.00    +0.286 A 
ATOM      7  O   UNL     1      -2.087  -4.503   0.000  0.00  0.00    -0.265 OA
ATOM      8  N   UNL     1      -1.373  -3.265   0.000  0.00  0.00    -0.207 N 
ATOM      9  N   UNL     1      -1.373  -2.440   0.000  0.00  0.00    -0.171 NA
ENDROOT
BRANCH   5  10
ATOM     10  C   UNL     1      -3.516  -3.678   0.000  0.00  0.00    +0.105 C 
ATOM     11  N   UNL     1      -4.231  -4.090   0.000  0.00  0.00    -0.191 NA
ENDBRANCH   5  10
BRANCH   8  12
ATOM     12  C   UNL     1      -0.658  -3.678   0.000  0.00  0.00    +0.217 C 
BRANCH  12  13
ATOM     13  C   UNL     1       0.056  -3.265   0.000  0.00  0.00    +0.266 C 
ATOM     14  N   UNL     1       0.771  -3.678   0.000  0.00  0.00    -0.206 NA
ATOM     15  O   UNL     1       0.056  -2.440   0.000  0.00  0.00    -0.271 OA
BRANCH  14  16
ATOM     16  C   UNL     1       1.485  -3.265   0.000  0.00  0.00    +0.095 C 
ATOM     17  C   UNL     1       2.167  -3.730   0.000  0.00  0.00    +0.022 C 
ATOM     18  C   UNL     1       2.955  -3.487   0.000  0.00  0.00    +0.002 C 
ATOM     19  C   UNL     1       3.257  -2.719   0.000  0.00  0.00    +0.000 C 
ATOM     20  C   UNL     1       2.844  -2.004   0.000  0.00  0.00    +0.000 C 
ATOM     21  C   UNL     1       2.028  -1.881   0.000  0.00  0.00    +0.002 C 
ATOM     22  C   UNL     1       1.423  -2.442   0.000  0.00  0.00    +0.022 C 
ENDBRANCH  14  16
ENDBRANCH  12  13
ENDBRANCH   8  12
TORSDOF 4
