REMARK  Name = 
REMARK  4 active torsions:
REMARK  status: ('A' for Active; 'I' for Inactive)
REMARK    1  A    between atoms: C_2  and  C_3
REMARK    2  A    between atoms: C_3  and  C_4
REMARK    3  A    between atoms: N_11  and  C_12
REMARK    4  A    between atoms: C_12  and  C_13
REMARK                            x       y       z     vdW  Elec       q    Type
REMARK                         _______ _______ _______ _____ _____    ______ ____
ROOT
ATOM      1  C   UNL     1      -1.306  -2.197   0.000  0.00  0.00    +0.029 A 
ATOM      2  S   UNL     1      -0.754  -2.811   0.000  0.00  0.00    -0.054 S 
ATOM      3  C   UNL     1       0.000  -2.475   0.000  0.00  0.00    +0.187 A 
ATOM      4  N   UNL     1       0.715  -2.888   0.000  0.00  0.00    -0.136 NA
ATOM      5  C   UNL     1       1.429  -2.475   0.000  0.00  0.00    +0.345 C 
ATOM      6  N   UNL     1       2.143  -2.888   0.000  0.00  0.00    -0.187 NA
ATOM      7  O   UNL     1       1.429  -1.650   0.000  0.00  0.00    -0.249 OA
ATOM      8  N   UNL     1      -0.086  -1.655   0.000  0.00  0.00    -0.221 NA
ATOM      9  C   UNL     1      -0.893  -1.483   0.000  0.00  0.00    +0.103 A 
ENDROOT
BRANCH   1  10
ATOM     10  C   UNL     1      -2.126  -2.284   0.000  0.00  0.00    +0.035 C 
BRANCH  10  12
ATOM     11  C   UNL     1      -3.432  -1.702   0.000  0.00  0.00    +0.000 C 
ATOM     12  C   UNL     1      -2.611  -1.616   0.000  0.00  0.00    +0.005 C 
ENDBRANCH  10  12
ENDBRANCH   1  10
BRANCH   6  13
ATOM     13  C   UNL     1       2.858  -2.475   0.000  0.00  0.00    +0.117 C 
BRANCH  13  14
ATOM     14  C   UNL     1       3.572  -2.888   0.000  0.00  0.00    +0.024 C 
ATOM     15  C   UNL     1       3.572  -3.712   0.000  0.00  0.00    +0.035 C 
ATOM     16  C   UNL     1       4.287  -4.125   0.000  0.00  0.00    +0.152 C 
ATOM     17  O   UNL     1       4.287  -4.950   0.000  0.00  0.00    -0.223 OA
ATOM     18  C   UNL     1       5.001  -3.712   0.000  0.00  0.00    +0.033 C 
ATOM     19  C   UNL     1       5.001  -2.888   0.000  0.00  0.00    +0.003 C 
ATOM     20  C   UNL     1       4.287  -2.475   0.000  0.00  0.00    +0.002 C 
ENDBRANCH  13  14
ENDBRANCH   6  13
TORSDOF 4
