REMARK  Name = 
REMARK  5 active torsions:
REMARK  status: ('A' for Active; 'I' for Inactive)
REMARK    1  A    between atoms: C_6  and  C_7
REMARK    2  A    between atoms: C_7  and  C_8
REMARK    3  A    between atoms: N_10  and  C_11
REMARK    4  A    between atoms: C_11  and  C_12
REMARK    5  A    between atoms: C_12  and  C_13
REMARK                            x       y       z     vdW  Elec       q    Type
REMARK                         _______ _______ _______ _____ _____    ______ ____
ROOT
ATOM      1  C   UNL     1       2.858  -4.125   0.000  0.00  0.00    +0.246 C 
ATOM      2  N   UNL     1       3.572  -3.712   0.000  0.00  0.00    -0.205 NA
ATOM      3  O   UNL     1       2.858  -4.950   0.000  0.00  0.00    -0.273 OA
ENDROOT
BRANCH   1   4
ATOM      4  C   UNL     1       2.143  -3.712   0.000  0.00  0.00    +0.119 C 
BRANCH   4  10
ATOM      5  C   UNL     1      -0.715  -5.362   0.000  0.00  0.00    +0.074 C 
ATOM      6  C   UNL     1       0.000  -4.950   0.000  0.00  0.00    +0.142 A 
ATOM      7  N   UNL     1       0.715  -5.362   0.000  0.00  0.00    -0.193 NA
ATOM      8  C   UNL     1       1.429  -4.950   0.000  0.00  0.00    +0.278 A 
ATOM      9  O   UNL     1       2.143  -5.362   0.000  0.00  0.00    -0.265 OA
ATOM     10  C   UNL     1       1.429  -4.125   0.000  0.00  0.00    +0.058 A 
ATOM     11  C   UNL     1       0.715  -3.712   0.000  0.00  0.00    +0.062 A 
ATOM     12  C   UNL     1       0.715  -2.888   0.000  0.00  0.00    +0.052 C 
ATOM     13  N   UNL     1       0.000  -4.125   0.000  0.00  0.00    -0.235 NA
ENDBRANCH   4  10
ENDBRANCH   1   4
BRANCH   2  14
ATOM     14  C   UNL     1       4.287  -4.125   0.000  0.00  0.00    +0.119 C 
BRANCH  14  15
ATOM     15  C   UNL     1       5.001  -3.712   0.000  0.00  0.00    +0.045 C 
BRANCH  15  16
ATOM     16  C   UNL     1       5.716  -4.125   0.000  0.00  0.00    -0.047 C 
ATOM     17  C   UNL     1       5.716  -4.950   0.000  0.00  0.00    +0.022 C 
ATOM     18  C   UNL     1       6.430  -5.362   0.000  0.00  0.00    +0.005 C 
ATOM     19  C   UNL     1       7.145  -4.950   0.000  0.00  0.00    +0.005 C 
ATOM     20  C   UNL     1       7.145  -4.125   0.000  0.00  0.00    +0.025 C 
ATOM     21  C   UNL     1       6.430  -3.712   0.000  0.00  0.00    -0.035 C 
ENDBRANCH  15  16
ENDBRANCH  14  15
ENDBRANCH   2  14
TORSDOF 5
