REMARK  Name = 
REMARK  6 active torsions:
REMARK  status: ('A' for Active; 'I' for Inactive)
REMARK    1  A    between atoms: C_2  and  N_3
REMARK    2  A    between atoms: C_9  and  C_11
REMARK    3  A    between atoms: C_11  and  N_13
REMARK    4  A    between atoms: N_13  and  C_14
REMARK    5  A    between atoms: C_14  and  C_16
REMARK    6  A    between atoms: C_16  and  N_17
REMARK                            x       y       z     vdW  Elec       q    Type
REMARK                         _______ _______ _______ _____ _____    ______ ____
ROOT
ATOM      1  C   UNL     1       1.429   1.650   0.000  0.00  0.00    +0.149 C 
ATOM      2  C   UNL     1       1.429   0.825   0.000  0.00  0.00    +0.029 C 
ENDROOT
BRANCH   1   7
ATOM      3  N   UNL     1      -1.429   0.825   0.000  0.00  0.00    -0.270 NA
ATOM      4  C   UNL     1      -0.715   0.412   0.000  0.00  0.00    +0.094 C 
ATOM      5  C   UNL     1       0.000   0.825   0.000  0.00  0.00    +0.111 C 
ATOM      6  N   UNL     1       0.000   1.650   0.000  0.00  0.00    -0.276 N 
ATOM      7  C   UNL     1       0.715   2.062   0.000  0.00  0.00    +0.242 C 
ATOM      8  O   UNL     1       0.715   2.888   0.000  0.00  0.00    -0.273 OA
ATOM      9  C   UNL     1      -0.715   2.062   0.000  0.00  0.00    +0.111 C 
ATOM     10  C   UNL     1      -1.429   1.650   0.000  0.00  0.00    +0.094 C 
BRANCH   3  12
ATOM     11  C   UNL     1      -2.143  -0.412   0.000  0.00  0.00    +0.019 C 
ATOM     12  C   UNL     1      -2.143   0.412   0.000  0.00  0.00    +0.072 C 
ENDBRANCH   3  12
ENDBRANCH   1   7
BRANCH   1  13
ATOM     13  N   UNL     1       2.143   2.062   0.000  0.00  0.00    -0.210 NA
BRANCH  13  14
ATOM     14  C   UNL     1       2.858   1.650   0.000  0.00  0.00    +0.098 C 
ATOM     15  C   UNL     1       2.858   0.825   0.000  0.00  0.00    +0.021 C 
BRANCH  14  16
ATOM     16  C   UNL     1       3.572   2.062   0.000  0.00  0.00    +0.145 C 
BRANCH  16  17
ATOM     17  N   UNL     1       4.287   1.650   0.000  0.00  0.00    -0.248 N 
ATOM     18  N   UNL     1       4.373   0.830   0.000  0.00  0.00    -0.168 NA
ATOM     19  C   UNL     1       5.180   0.658   0.000  0.00  0.00    +0.122 A 
ATOM     20  C   UNL     1       5.593   1.373   0.000  0.00  0.00    +0.043 A 
ATOM     21  C   UNL     1       5.040   1.986   0.000  0.00  0.00    +0.097 A 
ENDBRANCH  16  17
ENDBRANCH  14  16
ENDBRANCH  13  14
ENDBRANCH   1  13
TORSDOF 6
