REMARK  Name = 
REMARK  5 active torsions:
REMARK  status: ('A' for Active; 'I' for Inactive)
REMARK    1  A    between atoms: O_2  and  C_3
REMARK    2  A    between atoms: N_6  and  C_7
REMARK    3  A    between atoms: C_7  and  C_8
REMARK    4  A    between atoms: C_8  and  C_10
REMARK    5  A    between atoms: C_10  and  N_11
REMARK                            x       y       z     vdW  Elec       q    Type
REMARK                         _______ _______ _______ _____ _____    ______ ____
ROOT
ATOM      1  C   UNL     1       0.884  -2.150   0.000  0.00  0.00    +0.142 C 
ENDROOT
BRANCH   1   2
ATOM      2  N   UNL     1       1.139  -1.365   0.000  0.00  0.00    -0.306 N 
ATOM      3  C   UNL     1       1.923  -1.110   0.000  0.00  0.00    +0.079 A 
ATOM      4  C   UNL     1       1.923  -0.285   0.000  0.00  0.00    +0.098 A 
ATOM      5  C   UNL     1       2.638   0.127   0.000  0.00  0.00    +0.016 A 
ATOM      6  C   UNL     1       3.352  -0.285   0.000  0.00  0.00    -0.024 A 
ATOM      7  C   UNL     1       3.352  -1.110   0.000  0.00  0.00    -0.024 A 
ATOM      8  C   UNL     1       4.067  -1.523   0.000  0.00  0.00    +0.031 C 
ATOM      9  C   UNL     1       4.067   0.127   0.000  0.00  0.00    +0.031 C 
ATOM     10  N   UNL     1       1.139  -0.030   0.000  0.00  0.00    -0.224 NA
ATOM     11  C   UNL     1       2.638  -1.523   0.000  0.00  0.00    +0.014 A 
ATOM     12  C   UNL     1       0.654  -0.698   0.000  0.00  0.00    +0.179 A 
ENDBRANCH   1   2
BRANCH   1  13
ATOM     13  C   UNL     1       0.077  -2.321   0.000  0.00  0.00    +0.190 C 
ATOM     14  O   UNL     1      -0.475  -1.708   0.000  0.00  0.00    -0.220 OA
BRANCH  13  15
ATOM     15  C   UNL     1      -0.178  -3.106   0.000  0.00  0.00    +0.107 C 
BRANCH  15  19
ATOM     16  C   UNL     1      -2.599  -3.621   0.000  0.00  0.00    +0.118 C 
ATOM     17  C   UNL     1      -2.047  -4.234   0.000  0.00  0.00    +0.047 C 
ATOM     18  C   UNL     1      -1.240  -4.062   0.000  0.00  0.00    +0.075 C 
ATOM     19  N   UNL     1      -0.985  -3.278   0.000  0.00  0.00    -0.270 NA
ATOM     20  C   UNL     1      -1.537  -2.665   0.000  0.00  0.00    +0.075 C 
ATOM     21  C   UNL     1      -2.344  -2.836   0.000  0.00  0.00    +0.047 C 
BRANCH  16  23
ATOM     22  C   UNL     1      -3.661  -4.577   0.000  0.00  0.00    +0.174 C 
ATOM     23  O   UNL     1      -3.406  -3.792   0.000  0.00  0.00    -0.353 OA
ENDBRANCH  16  23
ENDBRANCH  15  19
ENDBRANCH  13  15
ENDBRANCH   1  13
TORSDOF 5
