REMARK  Name = 
REMARK  5 active torsions:
REMARK  status: ('A' for Active; 'I' for Inactive)
REMARK    1  A    between atoms: C_8  and  C_10
REMARK    2  A    between atoms: C_10  and  N_11
REMARK    3  A    between atoms: N_11  and  C_12
REMARK    4  A    between atoms: C_12  and  C_13
REMARK    5  A    between atoms: C_13  and  N_14
REMARK                            x       y       z     vdW  Elec       q    Type
REMARK                         _______ _______ _______ _____ _____    ______ ____
ROOT
ATOM      1  C   UNL     1      -2.143   0.412   0.000  0.00  0.00    +0.000 C 
ATOM      2  C   UNL     1      -1.429   0.825   0.000  0.00  0.00    +0.003 C 
ATOM      3  C   UNL     1      -0.715   0.412   0.000  0.00  0.00    +0.022 C 
ATOM      4  C   UNL     1       0.000   0.825   0.000  0.00  0.00    +0.093 C 
ATOM      5  N   UNL     1       0.000   1.650   0.000  0.00  0.00    -0.278 N 
ATOM      6  C   UNL     1       0.715   2.062   0.000  0.00  0.00    +0.243 C 
ATOM      7  O   UNL     1       0.715   2.888   0.000  0.00  0.00    -0.273 OA
ATOM      8  C   UNL     1      -0.715   2.062   0.000  0.00  0.00    +0.093 C 
ATOM      9  C   UNL     1      -1.429   1.650   0.000  0.00  0.00    +0.022 C 
ENDROOT
BRANCH   6  10
ATOM     10  C   UNL     1       1.429   1.650   0.000  0.00  0.00    +0.174 C 
BRANCH  10  11
ATOM     11  N   UNL     1       2.143   2.062   0.000  0.00  0.00    -0.206 NA
BRANCH  11  12
ATOM     12  C   UNL     1       2.858   1.650   0.000  0.00  0.00    +0.116 C 
BRANCH  12  13
ATOM     13  C   UNL     1       3.572   2.062   0.000  0.00  0.00    +0.146 C 
BRANCH  13  14
ATOM     14  N   UNL     1       4.287   1.650   0.000  0.00  0.00    -0.248 N 
ATOM     15  N   UNL     1       4.373   0.830   0.000  0.00  0.00    -0.168 NA
ATOM     16  C   UNL     1       5.180   0.658   0.000  0.00  0.00    +0.122 A 
ATOM     17  C   UNL     1       5.593   1.373   0.000  0.00  0.00    +0.043 A 
ATOM     18  C   UNL     1       5.040   1.986   0.000  0.00  0.00    +0.097 A 
ENDBRANCH  13  14
ENDBRANCH  12  13
ENDBRANCH  11  12
ENDBRANCH  10  11
ENDBRANCH   6  10
TORSDOF 5
