REMARK  Name = 
REMARK  5 active torsions:
REMARK  status: ('A' for Active; 'I' for Inactive)
REMARK    1  A    between atoms: N_7  and  C_8
REMARK    2  A    between atoms: C_8  and  C_9
REMARK    3  A    between atoms: C_9  and  O_10
REMARK    4  A    between atoms: O_10  and  C_11
REMARK    5  A    between atoms: C_11  and  C_12
REMARK                            x       y       z     vdW  Elec       q    Type
REMARK                         _______ _______ _______ _____ _____    ______ ____
ROOT
ATOM      1  N   UNL     1       3.279   2.062   0.000  0.00  0.00    -0.105 NA
ATOM      2  C   UNL     1       3.279   1.238   0.000  0.00  0.00    +0.192 A 
ATOM      3  C   UNL     1       2.564   0.825   0.000  0.00  0.00    +0.152 A 
ATOM      4  C   UNL     1       2.564   0.000   0.000  0.00  0.00    +0.167 A 
ATOM      5  N   UNL     1       1.780  -0.255   0.000  0.00  0.00    -0.292 N 
ATOM      6  C   UNL     1       1.295   0.412   0.000  0.00  0.00    +0.180 A 
ATOM      7  N   UNL     1       3.279  -0.412   0.000  0.00  0.00    -0.205 NA
ATOM      8  C   UNL     1       3.993   0.000   0.000  0.00  0.00    +0.202 A 
ATOM      9  N   UNL     1       1.780   1.080   0.000  0.00  0.00    -0.219 NA
ATOM     10  N   UNL     1       3.993   0.825   0.000  0.00  0.00    -0.204 NA
ENDROOT
BRANCH   5  11
ATOM     11  C   UNL     1       1.525  -1.040   0.000  0.00  0.00    +0.141 C 
BRANCH  11  12
ATOM     12  C   UNL     1       0.718  -1.211   0.000  0.00  0.00    +0.167 C 
BRANCH  12  13
ATOM     13  O   UNL     1       0.463  -1.996   0.000  0.00  0.00    -0.344 OA
BRANCH  13  14
ATOM     14  C   UNL     1      -0.344  -2.167   0.000  0.00  0.00    +0.246 C 
BRANCH  14  15
ATOM     15  C   UNL     1      -0.599  -2.952   0.000  0.00  0.00    +0.425 C 
ATOM     16  F   UNL     1       0.186  -3.207   0.000  0.00  0.00    -0.167 F 
ATOM     17  F   UNL     1      -1.383  -2.697   0.000  0.00  0.00    -0.167 F 
ATOM     18  F   UNL     1      -0.854  -3.736   0.000  0.00  0.00    -0.167 F 
ENDBRANCH  14  15
ENDBRANCH  13  14
ENDBRANCH  12  13
ENDBRANCH  11  12
ENDBRANCH   5  11
TORSDOF 5
