REMARK  Name = 
REMARK  5 active torsions:
REMARK  status: ('A' for Active; 'I' for Inactive)
REMARK    1  A    between atoms: O_2  and  C_3
REMARK    2  A    between atoms: C_3  and  C_4
REMARK    3  A    between atoms: C_4  and  N_5
REMARK    4  A    between atoms: C_6  and  C_8
REMARK    5  A    between atoms: C_8  and  N_9
REMARK                            x       y       z     vdW  Elec       q    Type
REMARK                         _______ _______ _______ _____ _____    ______ ____
ROOT
ATOM      1  N   UNL     1       4.592  -2.952   0.000  0.00  0.00    -0.201 NA
ATOM      2  C   UNL     1       5.307  -3.364   0.000  0.00  0.00    +0.266 C 
ATOM      3  O   UNL     1       5.307  -4.189   0.000  0.00  0.00    -0.271 OA
ENDROOT
BRANCH   1   4
ATOM      4  C   UNL     1       3.878  -3.364   0.000  0.00  0.00    +0.147 C 
BRANCH   4   5
ATOM      5  C   UNL     1       3.163  -2.952   0.000  0.00  0.00    +0.166 C 
BRANCH   5   7
ATOM      6  C   UNL     1       1.734  -2.952   0.000  0.00  0.00    +0.174 C 
ATOM      7  O   UNL     1       2.449  -3.364   0.000  0.00  0.00    -0.349 OA
ENDBRANCH   5   7
ENDBRANCH   4   5
ENDBRANCH   1   4
BRANCH   2   8
ATOM      8  C   UNL     1       6.021  -2.952   0.000  0.00  0.00    +0.214 C 
BRANCH   8   9
ATOM      9  N   UNL     1       6.736  -3.364   0.000  0.00  0.00    -0.239 N 
ATOM     10  N   UNL     1       6.822  -4.185   0.000  0.00  0.00    -0.166 NA
ATOM     11  C   UNL     1       7.629  -4.356   0.000  0.00  0.00    +0.140 A 
ATOM     12  C   UNL     1       8.041  -3.642   0.000  0.00  0.00    +0.129 A 
ATOM     13  N   UNL     1       8.862  -3.556   0.000  0.00  0.00    -0.125 NA
ATOM     14  C   UNL     1       7.489  -3.029   0.000  0.00  0.00    +0.115 A 
ENDBRANCH   8   9
ENDBRANCH   2   8
TORSDOF 5
