REMARK  Name = 
REMARK  5 active torsions:
REMARK  status: ('A' for Active; 'I' for Inactive)
REMARK    1  A    between atoms: C_2  and  O_3
REMARK    2  A    between atoms: O_3  and  C_4
REMARK    3  A    between atoms: C_6  and  N_7
REMARK    4  A    between atoms: C_8  and  C_10
REMARK    5  A    between atoms: C_10  and  C_11
REMARK                            x       y       z     vdW  Elec       q    Type
REMARK                         _______ _______ _______ _____ _____    ______ ____
ROOT
ATOM      1  N   UNL     1       0.412   1.821   0.000  0.00  0.00    -0.207 NA
ATOM      2  C   UNL     1       1.127   2.233   0.000  0.00  0.00    +0.246 C 
ATOM      3  O   UNL     1       1.841   1.821   0.000  0.00  0.00    -0.273 OA
ENDROOT
BRANCH   1   9
ATOM      4  C   UNL     1       0.412  -0.171   0.000  0.00  0.00    +0.118 C 
ATOM      5  C   UNL     1       0.996   0.412   0.000  0.00  0.00    +0.044 C 
ATOM      6  C   UNL     1       1.579  -0.171   0.000  0.00  0.00    +0.004 C 
ATOM      7  C   UNL     1       2.163   0.412   0.000  0.00  0.00    +0.000 C 
ATOM      8  C   UNL     1       1.579   0.996   0.000  0.00  0.00    +0.004 C 
ATOM      9  C   UNL     1       0.412   0.996   0.000  0.00  0.00    +0.100 C 
ATOM     10  C   UNL     1      -0.171   0.412   0.000  0.00  0.00    +0.051 C 
BRANCH   4  11
ATOM     11  O   UNL     1       0.412  -0.996   0.000  0.00  0.00    -0.356 OA
BRANCH  11  13
ATOM     12  C   UNL     1       1.127  -2.233   0.000  0.00  0.00    +0.035 C 
ATOM     13  C   UNL     1       1.127  -1.408   0.000  0.00  0.00    +0.142 C 
ENDBRANCH  11  13
ENDBRANCH   4  11
ENDBRANCH   1   9
BRANCH   2  14
ATOM     14  C   UNL     1       1.127   3.058   0.000  0.00  0.00    +0.115 C 
BRANCH  14  15
ATOM     15  C   UNL     1       0.412   3.471   0.000  0.00  0.00    +0.006 A 
ATOM     16  C   UNL     1       0.412   4.296   0.000  0.00  0.00    +0.095 A 
ATOM     17  N   UNL     1      -0.302   4.708   0.000  0.00  0.00    -0.248 NA
ATOM     18  C   UNL     1      -1.016   4.296   0.000  0.00  0.00    +0.059 A 
ATOM     19  C   UNL     1      -1.731   4.708   0.000  0.00  0.00    +0.052 C 
ATOM     20  C   UNL     1      -1.016   3.471   0.000  0.00  0.00    +0.014 A 
ATOM     21  C   UNL     1      -0.302   3.058   0.000  0.00  0.00    -0.001 A 
ENDBRANCH  14  15
ENDBRANCH   2  14
TORSDOF 5
