REMARK  Name = 
REMARK  7 active torsions:
REMARK  status: ('A' for Active; 'I' for Inactive)
REMARK    1  A    between atoms: O_2  and  C_3
REMARK    2  A    between atoms: C_3  and  C_4
REMARK    3  A    between atoms: C_4  and  N_5
REMARK    4  A    between atoms: C_7  and  C_12
REMARK    5  A    between atoms: N_14  and  C_15
REMARK    6  A    between atoms: C_15  and  C_16
REMARK    7  A    between atoms: C_16  and  N_23
REMARK                            x       y       z     vdW  Elec       q    Type
REMARK                         _______ _______ _______ _____ _____    ______ ____
ROOT
ATOM      1  C   UNL     1       1.396  -4.871   0.000  0.00  0.00    +0.266 C 
ATOM      2  N   UNL     1       2.110  -4.458   0.000  0.00  0.00    -0.200 NA
ATOM      3  O   UNL     1       1.396  -5.696   0.000  0.00  0.00    -0.268 OA
ENDROOT
BRANCH   1   9
ATOM      4  N   UNL     1      -0.033  -3.221   0.000  0.00  0.00    -0.291 N 
ATOM      5  C   UNL     1      -0.748  -3.633   0.000  0.00  0.00    +0.261 A 
ATOM      6  O   UNL     1      -1.462  -3.221   0.000  0.00  0.00    -0.267 OA
ATOM      7  C   UNL     1      -0.748  -4.458   0.000  0.00  0.00    +0.061 A 
ATOM      8  C   UNL     1      -0.033  -4.871   0.000  0.00  0.00    +0.011 A 
ATOM      9  C   UNL     1       0.681  -4.458   0.000  0.00  0.00    +0.072 A 
ATOM     10  C   UNL     1       0.681  -3.633   0.000  0.00  0.00    +0.083 A 
BRANCH   4  11
ATOM     11  C   UNL     1      -0.033  -2.396   0.000  0.00  0.00    +0.141 C 
BRANCH  11  12
ATOM     12  C   UNL     1      -0.748  -1.983   0.000  0.00  0.00    +0.167 C 
BRANCH  12  14
ATOM     13  C   UNL     1      -1.462  -0.746   0.000  0.00  0.00    +0.174 C 
ATOM     14  O   UNL     1      -0.748  -1.158   0.000  0.00  0.00    -0.349 OA
ENDBRANCH  12  14
ENDBRANCH  11  12
ENDBRANCH   4  11
ENDBRANCH   1   9
BRANCH   2  15
ATOM     15  C   UNL     1       2.825  -4.871   0.000  0.00  0.00    +0.130 C 
BRANCH  15  16
ATOM     16  C   UNL     1       3.539  -4.458   0.000  0.00  0.00    +0.066 C 
ATOM     17  C   UNL     1       3.782  -5.247   0.000  0.00  0.00    +0.016 C 
ATOM     18  C   UNL     1       4.550  -5.548   0.000  0.00  0.00    +0.001 C 
ATOM     19  C   UNL     1       5.265  -5.136   0.000  0.00  0.00    +0.000 C 
ATOM     20  C   UNL     1       5.388  -4.320   0.000  0.00  0.00    +0.000 C 
ATOM     21  C   UNL     1       4.827  -3.715   0.000  0.00  0.00    +0.001 C 
ATOM     22  C   UNL     1       4.004  -3.777   0.000  0.00  0.00    +0.016 C 
BRANCH  16  23
ATOM     23  N   UNL     1       2.978  -3.854   0.000  0.00  0.00    -0.271 NA
ATOM     24  C   UNL     1       2.174  -4.037   0.000  0.00  0.00    +0.090 C 
ATOM     25  C   UNL     1       3.221  -3.065   0.000  0.00  0.00    +0.090 C 
ENDBRANCH  16  23
ENDBRANCH  15  16
ENDBRANCH   2  15
TORSDOF 7
