REMARK  Name = 
REMARK  4 active torsions:
REMARK  status: ('A' for Active; 'I' for Inactive)
REMARK    1  A    between atoms: C_9  and  N_10
REMARK    2  A    between atoms: N_13  and  C_14
REMARK    3  A    between atoms: C_14  and  C_15
REMARK    4  A    between atoms: C_15  and  C_16
REMARK                            x       y       z     vdW  Elec       q    Type
REMARK                         _______ _______ _______ _____ _____    ______ ____
ROOT
ATOM      1  N   UNL     1       2.143  -0.412   0.000  0.00  0.00    -0.160 NA
ATOM      2  C   UNL     1       2.858  -0.825   0.000  0.00  0.00    +0.344 C 
ATOM      3  N   UNL     1       3.572  -0.412   0.000  0.00  0.00    -0.187 NA
ATOM      4  O   UNL     1       2.858  -1.650   0.000  0.00  0.00    -0.249 OA
ENDROOT
BRANCH   1   7
ATOM      5  C   UNL     1       2.143  -2.062   0.000  0.00  0.00    +0.033 C 
ATOM      6  C   UNL     1       1.429  -1.650   0.000  0.00  0.00    -0.000 A 
ATOM      7  C   UNL     1       1.429  -0.825   0.000  0.00  0.00    +0.088 A 
ATOM      8  C   UNL     1       0.715  -0.412   0.000  0.00  0.00    +0.095 A 
ATOM      9  N   UNL     1       0.000  -0.825   0.000  0.00  0.00    -0.291 N 
ATOM     10  C   UNL     1      -0.715  -0.412   0.000  0.00  0.00    +0.134 C 
ATOM     11  C   UNL     1       0.000  -1.650   0.000  0.00  0.00    +0.261 A 
ATOM     12  O   UNL     1      -0.715  -2.062   0.000  0.00  0.00    -0.267 OA
ATOM     13  C   UNL     1       0.715  -2.062   0.000  0.00  0.00    +0.058 A 
ENDBRANCH   1   7
BRANCH   3  14
ATOM     14  C   UNL     1       4.287  -0.825   0.000  0.00  0.00    +0.121 C 
BRANCH  14  15
ATOM     15  C   UNL     1       5.001  -0.412   0.000  0.00  0.00    +0.045 C 
BRANCH  15  16
ATOM     16  C   UNL     1       5.716  -0.825   0.000  0.00  0.00    -0.047 C 
ATOM     17  C   UNL     1       5.802  -1.645   0.000  0.00  0.00    +0.022 C 
ATOM     18  C   UNL     1       6.609  -1.817   0.000  0.00  0.00    +0.009 C 
ATOM     19  C   UNL     1       7.021  -1.103   0.000  0.00  0.00    +0.026 C 
ATOM     20  C   UNL     1       6.469  -0.489   0.000  0.00  0.00    -0.035 C 
ENDBRANCH  15  16
ENDBRANCH  14  15
ENDBRANCH   3  14
TORSDOF 4
