REMARK  Name = 
REMARK  7 active torsions:
REMARK  status: ('A' for Active; 'I' for Inactive)
REMARK    1  A    between atoms: C_2  and  C_3
REMARK    2  A    between atoms: C_2  and  C_12
REMARK    3  A    between atoms: C_3  and  O_4
REMARK    4  A    between atoms: O_4  and  C_5
REMARK    5  A    between atoms: C_5  and  C_6
REMARK    6  A    between atoms: C_12  and  N_13
REMARK    7  A    between atoms: C_15  and  C_20
REMARK                            x       y       z     vdW  Elec       q    Type
REMARK                         _______ _______ _______ _____ _____    ______ ____
ROOT
ATOM      1  C   UNL     1       5.001  -3.712   0.000  0.00  0.00    +0.166 C 
ENDROOT
BRANCH   1   2
ATOM      2  N   UNL     1       5.716  -4.125   0.000  0.00  0.00    -0.214 N 
ATOM      3  C   UNL     1       5.716  -4.950   0.000  0.00  0.00    +0.277 A 
ATOM      4  O   UNL     1       5.001  -5.362   0.000  0.00  0.00    -0.266 OA
ATOM      5  C   UNL     1       6.430  -5.362   0.000  0.00  0.00    +0.064 A 
ATOM      6  C   UNL     1       7.145  -4.950   0.000  0.00  0.00    +0.030 A 
ATOM      7  C   UNL     1       7.145  -4.125   0.000  0.00  0.00    +0.172 A 
ATOM      8  N   UNL     1       6.430  -3.712   0.000  0.00  0.00    -0.163 NA
BRANCH   7   9
ATOM      9  C   UNL     1       7.859  -3.712   0.000  0.00  0.00    +0.436 C 
ATOM     10  F   UNL     1       7.447  -2.998   0.000  0.00  0.00    -0.164 F 
ATOM     11  F   UNL     1       8.272  -4.427   0.000  0.00  0.00    -0.164 F 
ATOM     12  F   UNL     1       8.574  -3.300   0.000  0.00  0.00    -0.164 F 
ENDBRANCH   7   9
ENDBRANCH   1   2
BRANCH   1  14
ATOM     13  O   UNL     1       4.287  -4.950   0.000  0.00  0.00    -0.218 OA
ATOM     14  C   UNL     1       4.287  -4.125   0.000  0.00  0.00    +0.206 C 
BRANCH  14  15
ATOM     15  C   UNL     1       3.572  -3.712   0.000  0.00  0.00    +0.177 C 
BRANCH  15  16
ATOM     16  O   UNL     1       2.858  -4.125   0.000  0.00  0.00    -0.346 OA
BRANCH  16  17
ATOM     17  C   UNL     1       2.143  -3.712   0.000  0.00  0.00    +0.169 C 
BRANCH  17  18
ATOM     18  C   UNL     1       1.429  -4.125   0.000  0.00  0.00    +0.007 A 
ATOM     19  C   UNL     1       0.715  -3.712   0.000  0.00  0.00    -0.002 A 
ATOM     20  C   UNL     1       0.000  -4.125   0.000  0.00  0.00    -0.000 A 
ATOM     21  C   UNL     1       0.000  -4.950   0.000  0.00  0.00    -0.000 A 
ATOM     22  C   UNL     1       0.715  -5.362   0.000  0.00  0.00    -0.000 A 
ATOM     23  C   UNL     1       1.429  -4.950   0.000  0.00  0.00    -0.002 A 
ENDBRANCH  17  18
ENDBRANCH  16  17
ENDBRANCH  15  16
ENDBRANCH  14  15
ENDBRANCH   1  14
TORSDOF 7
