REMARK  Name = 
REMARK  3 active torsions:
REMARK  status: ('A' for Active; 'I' for Inactive)
REMARK    1  A    between atoms: N_4  and  C_5
REMARK    2  A    between atoms: C_5  and  C_6
REMARK    3  A    between atoms: C_16  and  C_18
REMARK                            x       y       z     vdW  Elec       q    Type
REMARK                         _______ _______ _______ _____ _____    ______ ____
ROOT
ATOM      1  C   UNL     1       0.715  -1.238   0.000  0.00  0.00    +0.157 C 
ATOM      2  O   UNL     1       0.000  -1.650   0.000  0.00  0.00    -0.351 OA
ATOM      3  C   UNL     1       0.000  -2.475   0.000  0.00  0.00    +0.164 C 
ATOM      4  C   UNL     1       0.715  -2.888   0.000  0.00  0.00    +0.124 C 
ATOM      5  N   UNL     1       1.429  -2.475   0.000  0.00  0.00    -0.288 N 
ATOM      6  C   UNL     1       2.143  -2.888   0.000  0.00  0.00    +0.135 A 
ATOM      7  N   UNL     1       2.143  -3.712   0.000  0.00  0.00    -0.216 NA
ATOM      8  C   UNL     1       2.858  -4.125   0.000  0.00  0.00    +0.140 A 
ATOM      9  N   UNL     1       3.572  -3.712   0.000  0.00  0.00    -0.229 NA
ATOM     10  C   UNL     1       3.572  -2.888   0.000  0.00  0.00    +0.103 A 
ATOM     11  C   UNL     1       2.858  -2.475   0.000  0.00  0.00    +0.055 A 
ATOM     12  C   UNL     1       1.429  -1.650   0.000  0.00  0.00    +0.123 C 
ENDROOT
BRANCH   8  13
ATOM     13  C   UNL     1       2.858  -4.950   0.000  0.00  0.00    +0.052 C 
ATOM     14  C   UNL     1       3.683  -4.950   0.000  0.00  0.00    +0.008 C 
ATOM     15  C   UNL     1       2.033  -4.950   0.000  0.00  0.00    +0.008 C 
ATOM     16  C   UNL     1       2.858  -5.775   0.000  0.00  0.00    +0.008 C 
ENDBRANCH   8  13
BRANCH   1  17
ATOM     17  C   UNL     1       0.715  -0.412   0.000  0.00  0.00    +0.146 C 
BRANCH  17  20
ATOM     18  C   UNL     1      -0.715   1.238   0.000  0.00  0.00    +0.096 C 
ATOM     19  C   UNL     1       0.000   0.825   0.000  0.00  0.00    +0.242 C 
ATOM     20  N   UNL     1       0.000   0.000   0.000  0.00  0.00    -0.203 NA
ATOM     21  O   UNL     1       0.715   1.238   0.000  0.00  0.00    -0.273 OA
ENDBRANCH  17  20
ENDBRANCH   1  17
TORSDOF 3
