REMARK  Name = 
REMARK  6 active torsions:
REMARK  status: ('A' for Active; 'I' for Inactive)
REMARK    1  A    between atoms: C_2  and  N_3
REMARK    2  A    between atoms: N_6  and  C_9
REMARK    3  A    between atoms: C_9  and  C_11
REMARK    4  A    between atoms: C_11  and  N_12
REMARK    5  A    between atoms: C_13  and  C_15
REMARK    6  A    between atoms: C_15  and  N_16
REMARK                            x       y       z     vdW  Elec       q    Type
REMARK                         _______ _______ _______ _____ _____    ______ ____
ROOT
ATOM      1  C   UNL     1       0.715   2.062   0.000  0.00  0.00    +0.079 C 
ATOM      2  C   UNL     1       0.715   2.888   0.000  0.00  0.00    +0.019 C 
ENDROOT
BRANCH   1   6
ATOM      3  N   UNL     1      -1.429   0.825   0.000  0.00  0.00    -0.270 NA
ATOM      4  C   UNL     1      -0.715   0.412   0.000  0.00  0.00    +0.090 C 
ATOM      5  C   UNL     1       0.000   0.825   0.000  0.00  0.00    +0.090 C 
ATOM      6  N   UNL     1       0.000   1.650   0.000  0.00  0.00    -0.270 NA
ATOM      7  C   UNL     1      -0.715   2.062   0.000  0.00  0.00    +0.090 C 
ATOM      8  C   UNL     1      -1.429   1.650   0.000  0.00  0.00    +0.090 C 
BRANCH   3  10
ATOM      9  C   UNL     1      -2.143  -0.412   0.000  0.00  0.00    +0.019 C 
ATOM     10  C   UNL     1      -2.143   0.412   0.000  0.00  0.00    +0.072 C 
ENDBRANCH   3  10
ENDBRANCH   1   6
BRANCH   1  11
ATOM     11  C   UNL     1       1.429   1.650   0.000  0.00  0.00    +0.131 C 
BRANCH  11  12
ATOM     12  N   UNL     1       2.143   2.062   0.000  0.00  0.00    -0.202 NA
ATOM     13  C   UNL     1       2.858   1.650   0.000  0.00  0.00    +0.266 C 
ATOM     14  O   UNL     1       2.858   0.825   0.000  0.00  0.00    -0.271 OA
BRANCH  13  15
ATOM     15  C   UNL     1       3.572   2.062   0.000  0.00  0.00    +0.217 C 
BRANCH  15  16
ATOM     16  N   UNL     1       4.287   1.650   0.000  0.00  0.00    -0.201 N 
ATOM     17  N   UNL     1       4.373   0.830   0.000  0.00  0.00    -0.042 NA
ATOM     18  N   UNL     1       5.180   0.658   0.000  0.00  0.00    -0.023 NA
ATOM     19  N   UNL     1       5.593   1.373   0.000  0.00  0.00    -0.105 NA
ATOM     20  C   UNL     1       5.040   1.986   0.000  0.00  0.00    +0.222 A 
ENDBRANCH  15  16
ENDBRANCH  13  15
ENDBRANCH  11  12
ENDBRANCH   1  11
TORSDOF 6
