REMARK  Name = 
REMARK  5 active torsions:
REMARK  status: ('A' for Active; 'I' for Inactive)
REMARK    1  A    between atoms: C_2  and  C_3
REMARK    2  A    between atoms: C_2  and  N_16
REMARK    3  A    between atoms: N_5  and  C_6
REMARK    4  A    between atoms: C_6  and  C_7
REMARK    5  A    between atoms: C_7  and  N_10
REMARK                            x       y       z     vdW  Elec       q    Type
REMARK                         _______ _______ _______ _____ _____    ______ ____
ROOT
ATOM      1  C   UNL     1       1.429  -3.300   0.000  0.00  0.00    +0.264 C 
ATOM      2  N   UNL     1       1.429  -2.475   0.000  0.00  0.00    -0.202 NA
ATOM      3  O   UNL     1       0.715  -3.712   0.000  0.00  0.00    -0.271 OA
ENDROOT
BRANCH   1   5
ATOM      4  C   UNL     1       2.858  -3.300   0.000  0.00  0.00    +0.036 C 
ATOM      5  C   UNL     1       2.143  -3.712   0.000  0.00  0.00    +0.184 C 
BRANCH   5   6
ATOM      6  N   UNL     1       2.143  -4.537   0.000  0.00  0.00    -0.223 N 
ATOM      7  N   UNL     1       1.476  -5.022   0.000  0.00  0.00    -0.145 NA
ATOM      8  C   UNL     1       1.731  -5.807   0.000  0.00  0.00    +0.221 A 
ATOM      9  N   UNL     1       2.556  -5.807   0.000  0.00  0.00    -0.201 NA
ATOM     10  C   UNL     1       2.811  -5.022   0.000  0.00  0.00    +0.198 A 
ENDBRANCH   5   6
ENDBRANCH   1   5
BRANCH   2  11
ATOM     11  C   UNL     1       0.715  -2.062   0.000  0.00  0.00    +0.130 C 
BRANCH  11  12
ATOM     12  C   UNL     1       0.715  -1.238   0.000  0.00  0.00    +0.066 C 
ATOM     13  C   UNL     1       1.540  -1.238   0.000  0.00  0.00    +0.018 C 
ATOM     14  C   UNL     1      -0.111  -1.238   0.000  0.00  0.00    +0.018 C 
BRANCH  12  15
ATOM     15  N   UNL     1       0.715  -0.412   0.000  0.00  0.00    -0.269 NA
ATOM     16  C   UNL     1       1.429   0.000   0.000  0.00  0.00    +0.105 C 
ATOM     17  C   UNL     1       1.429   0.825   0.000  0.00  0.00    +0.159 C 
ATOM     18  O   UNL     1       0.715   1.238   0.000  0.00  0.00    -0.351 OA
ATOM     19  C   UNL     1       0.000   0.825   0.000  0.00  0.00    +0.159 C 
ATOM     20  C   UNL     1       0.000   0.000   0.000  0.00  0.00    +0.105 C 
ENDBRANCH  12  15
ENDBRANCH  11  12
ENDBRANCH   2  11
TORSDOF 5
