REMARK  Name = 
REMARK  2 active torsions:
REMARK  status: ('A' for Active; 'I' for Inactive)
REMARK    1  A    between atoms: O_2  and  C_3
REMARK    2  A    between atoms: C_6  and  N_7
REMARK                            x       y       z     vdW  Elec       q    Type
REMARK                         _______ _______ _______ _____ _____    ______ ____
ROOT
ATOM      1  N   UNL     1       2.649  -4.588   0.000  0.00  0.00    -0.189 NA
ATOM      2  C   UNL     1       1.934  -5.000   0.000  0.00  0.00    +0.345 C 
ATOM      3  N   UNL     1       1.934  -5.825   0.000  0.00  0.00    -0.142 NA
ATOM      4  C   UNL     1       1.220  -6.237   0.000  0.00  0.00    +0.156 A 
ATOM      5  N   UNL     1       0.505  -5.825   0.000  0.00  0.00    -0.225 NA
ATOM      6  C   UNL     1      -0.209  -6.237   0.000  0.00  0.00    +0.130 A 
ATOM      7  C   UNL     1      -0.209  -7.062   0.000  0.00  0.00    +0.159 A 
ATOM      8  F   UNL     1      -0.924  -7.475   0.000  0.00  0.00    -0.203 F 
ATOM      9  C   UNL     1       0.505  -7.475   0.000  0.00  0.00    +0.034 A 
ATOM     10  C   UNL     1       1.220  -7.062   0.000  0.00  0.00    +0.039 A 
ATOM     11  O   UNL     1       1.220  -4.588   0.000  0.00  0.00    -0.249 OA
ENDROOT
BRANCH   1  16
ATOM     12  C   UNL     1       2.649  -2.596   0.000  0.00  0.00    +0.096 C 
ATOM     13  C   UNL     1       2.065  -3.179   0.000  0.00  0.00    +0.041 C 
ATOM     14  C   UNL     1       1.362  -2.748   0.000  0.00  0.00    +0.004 C 
ATOM     15  C   UNL     1       1.362  -3.610   0.000  0.00  0.00    +0.004 C 
ATOM     16  C   UNL     1       2.649  -3.763   0.000  0.00  0.00    +0.101 C 
ATOM     17  C   UNL     1       3.232  -3.179   0.000  0.00  0.00    +0.049 C 
ATOM     18  C   UNL     1       2.065  -2.013   0.000  0.00  0.00    +0.030 C 
BRANCH  12  20
ATOM     19  C   UNL     1       4.029  -2.226   0.000  0.00  0.00    +0.174 C 
ATOM     20  O   UNL     1       3.232  -2.013   0.000  0.00  0.00    -0.356 OA
ENDBRANCH  12  20
ENDBRANCH   1  16
TORSDOF 2
