REMARK  Name = 
REMARK  3 active torsions:
REMARK  status: ('A' for Active; 'I' for Inactive)
REMARK    1  A    between atoms: O_2  and  C_3
REMARK    2  A    between atoms: C_6  and  N_7
REMARK    3  A    between atoms: N_10  and  C_11
REMARK                            x       y       z     vdW  Elec       q    Type
REMARK                         _______ _______ _______ _____ _____    ______ ____
ROOT
ATOM      1  N   UNL     1       2.858  -4.950   0.000  0.00  0.00    -0.159 NA
ATOM      2  C   UNL     1       2.143  -5.362   0.000  0.00  0.00    +0.343 C 
ATOM      3  N   UNL     1       2.143  -6.188   0.000  0.00  0.00    -0.189 NA
ATOM      4  O   UNL     1       1.429  -4.950   0.000  0.00  0.00    -0.249 OA
ENDROOT
BRANCH   3   5
ATOM      5  C   UNL     1       1.429  -6.600   0.000  0.00  0.00    +0.097 C 
ATOM      6  C   UNL     1       0.715  -6.188   0.000  0.00  0.00    +0.024 C 
ATOM      7  C   UNL     1       0.000  -6.600   0.000  0.00  0.00    +0.035 C 
ATOM      8  C   UNL     1       0.000  -7.425   0.000  0.00  0.00    +0.152 C 
ATOM      9  O   UNL     1      -0.715  -7.838   0.000  0.00  0.00    -0.223 OA
ATOM     10  C   UNL     1       0.715  -7.838   0.000  0.00  0.00    +0.035 C 
ATOM     11  C   UNL     1       1.429  -7.425   0.000  0.00  0.00    +0.024 C 
ENDBRANCH   3   5
BRANCH   1  15
ATOM     12  C   UNL     1       2.858  -2.475   0.000  0.00  0.00    +0.225 A 
ATOM     13  N   UNL     1       2.143  -2.888   0.000  0.00  0.00    -0.209 NA
ATOM     14  C   UNL     1       2.143  -3.712   0.000  0.00  0.00    +0.119 A 
ATOM     15  C   UNL     1       2.858  -4.125   0.000  0.00  0.00    +0.094 A 
ATOM     16  C   UNL     1       3.572  -3.712   0.000  0.00  0.00    +0.023 A 
ATOM     17  C   UNL     1       3.572  -2.888   0.000  0.00  0.00    +0.059 A 
BRANCH  12  19
ATOM     18  C   UNL     1       2.143  -1.238   0.000  0.00  0.00    +0.254 C 
ATOM     19  O   UNL     1       2.858  -1.650   0.000  0.00  0.00    -0.456 OA
ENDBRANCH  12  19
ENDBRANCH   1  15
TORSDOF 3
