REMARK  Name = 
REMARK  6 active torsions:
REMARK  status: ('A' for Active; 'I' for Inactive)
REMARK    1  A    between atoms: N_4  and  C_11
REMARK    2  A    between atoms: C_11  and  O_16
REMARK    3  A    between atoms: C_12  and  O_15
REMARK    4  A    between atoms: O_15  and  C_18
REMARK    5  A    between atoms: O_16  and  C_19
REMARK    6  A    between atoms: C_18  and  C_19
REMARK                            x       y       z     vdW  Elec       q    Type
REMARK                         _______ _______ _______ _____ _____    ______ ____
ROOT
ATOM      1  C   UNL     1       9.903  -1.185   0.000  0.00  0.00    +0.172 A 
ATOM      2  N   UNL     1       9.148  -0.851   0.000  0.00  0.00    -0.268 N 
ATOM      3  C   UNL     1       9.236  -0.029   0.000  0.00  0.00    +0.182 A 
ATOM      4  N   UNL     1      10.041   0.142   0.000  0.00  0.00    -0.217 NA
ATOM      5  N   UNL     1      10.158  -1.973   0.000  0.00  0.00    -0.192 NA
ATOM      6  C   UNL     1      10.967  -2.144   0.000  0.00  0.00    +0.261 A 
ATOM      7  N   UNL     1      11.518  -1.531   0.000  0.00  0.00    -0.171 NA
ATOM      8  C   UNL     1      11.263  -0.743   0.000  0.00  0.00    +0.302 A 
ATOM      9  O   UNL     1      11.814  -0.129   0.000  0.00  0.00    -0.263 OA
ATOM     10  N   UNL     1      11.222  -2.929   0.000  0.00  0.00    -0.086 NA
ATOM     11  C   UNL     1      10.454  -0.572   0.000  0.00  0.00    +0.175 A 
ENDROOT
BRANCH   2  12
ATOM     12  C   UNL     1       8.431  -1.264   0.000  0.00  0.00    +0.258 C 
BRANCH  12  13
ATOM     13  O   UNL     1       7.717  -0.851   0.000  0.00  0.00    -0.328 OA
BRANCH  13  14
ATOM     14  C   UNL     1       7.004  -1.264   0.000  0.00  0.00    +0.192 C 
BRANCH  14  15
ATOM     15  C   UNL     1       6.287  -0.851   0.000  0.00  0.00    +0.240 C 
BRANCH  15  16
ATOM     16  O   UNL     1       5.573  -1.264   0.000  0.00  0.00    -0.446 OA
BRANCH  16  17
ATOM     17  C   UNL     1       4.856  -0.851   0.000  0.00  0.00    +0.318 C 
ATOM     18  C   UNL     1       4.142  -1.264   0.000  0.00  0.00    +0.121 C 
ATOM     19  O   UNL     1       4.856  -0.025   0.000  0.00  0.00    -0.250 OA
ENDBRANCH  16  17
ENDBRANCH  15  16
ENDBRANCH  14  15
ENDBRANCH  13  14
ENDBRANCH  12  13
ENDBRANCH   2  12
TORSDOF 6
