REMARK  Name = 
REMARK  4 active torsions:
REMARK  status: ('A' for Active; 'I' for Inactive)
REMARK    1  A    between atoms: C_2  and  N_4
REMARK    2  A    between atoms: N_3  and  C_10
REMARK    3  A    between atoms: C_10  and  C_16
REMARK    4  A    between atoms: C_14  and  C_26
REMARK                            x       y       z     vdW  Elec       q    Type
REMARK                         _______ _______ _______ _____ _____    ______ ____
ROOT
ATOM      1  C   UNL     1       2.562   0.825   0.000  0.00  0.00    +0.149 A 
ATOM      2  N   UNL     1       1.779   1.083   0.000  0.00  0.00    -0.219 NA
ATOM      3  C   UNL     1       1.292   0.412   0.000  0.00  0.00    +0.180 A 
ATOM      4  N   UNL     1       1.779  -0.254   0.000  0.00  0.00    -0.292 N 
ATOM      5  C   UNL     1       2.562   0.000   0.000  0.00  0.00    +0.167 A 
ATOM      6  N   UNL     1       3.275  -0.412   0.000  0.00  0.00    -0.205 NA
ATOM      7  C   UNL     1       3.992   0.000   0.000  0.00  0.00    +0.201 A 
ATOM      8  N   UNL     1       3.992   0.825   0.000  0.00  0.00    -0.207 NA
ATOM      9  C   UNL     1       3.275   1.238   0.000  0.00  0.00    +0.154 A 
ENDROOT
BRANCH   9  10
ATOM     10  N   UNL     1       3.275   2.062   0.000  0.00  0.00    -0.289 N 
ATOM     11  C   UNL     1       2.562   2.475   0.000  0.00  0.00    +0.104 C 
ATOM     12  C   UNL     1       2.562   3.300   0.000  0.00  0.00    +0.162 C 
ATOM     13  O   UNL     1       3.275   3.712   0.000  0.00  0.00    -0.355 OA
ATOM     14  C   UNL     1       3.992   3.300   0.000  0.00  0.00    +0.111 C 
ATOM     15  C   UNL     1       4.275   4.075   0.000  0.00  0.00    +0.031 C 
ATOM     16  C   UNL     1       4.804   3.158   0.000  0.00  0.00    +0.031 C 
ATOM     17  C   UNL     1       3.992   2.475   0.000  0.00  0.00    +0.119 C 
BRANCH  11  18
ATOM     18  C   UNL     1       1.850   2.062   0.000  0.00  0.00    +0.022 C 
ATOM     19  C   UNL     1       1.133   2.475   0.000  0.00  0.00    +0.002 C 
ENDBRANCH  11  18
ENDBRANCH   9  10
BRANCH   4  20
ATOM     20  C   UNL     1       1.521  -1.038   0.000  0.00  0.00    +0.139 C 
BRANCH  20  21
ATOM     21  C   UNL     1       2.075  -1.650   0.000  0.00  0.00    +0.152 C 
ATOM     22  O   UNL     1       1.375  -2.087   0.000  0.00  0.00    -0.223 OA
ATOM     23  C   UNL     1       2.583  -1.000   0.000  0.00  0.00    +0.064 C 
ATOM     24  C   UNL     1       3.400  -1.117   0.000  0.00  0.00    +0.145 C 
ATOM     25  O   UNL     1       3.708  -1.879   0.000  0.00  0.00    -0.354 OA
ATOM     26  C   UNL     1       3.200  -2.529   0.000  0.00  0.00    +0.145 C 
ATOM     27  C   UNL     1       2.383  -2.417   0.000  0.00  0.00    +0.064 C 
ENDBRANCH  20  21
ENDBRANCH   4  20
TORSDOF 4
