REMARK  Name = 
REMARK  6 active torsions:
REMARK  status: ('A' for Active; 'I' for Inactive)
REMARK    1  A    between atoms: S_2  and  C_4
REMARK    2  A    between atoms: N_8  and  C_9
REMARK    3  A    between atoms: C_9  and  C_10
REMARK    4  A    between atoms: N_12  and  C_13
REMARK    5  A    between atoms: C_13  and  C_14
REMARK    6  A    between atoms: C_14  and  C_15
REMARK                            x       y       z     vdW  Elec       q    Type
REMARK                         _______ _______ _______ _____ _____    ______ ____
ROOT
ATOM      1  C   UNL     1       2.858  -4.125   0.000  0.00  0.00    +0.265 C 
ATOM      2  N   UNL     1       3.572  -3.712   0.000  0.00  0.00    -0.204 NA
ATOM      3  O   UNL     1       2.858  -4.950   0.000  0.00  0.00    -0.271 OA
ENDROOT
BRANCH   1   4
ATOM      4  C   UNL     1       2.143  -3.712   0.000  0.00  0.00    +0.196 C 
BRANCH   4   6
ATOM      5  C   UNL     1       0.675  -3.789   0.000  0.00  0.00    +0.224 A 
ATOM      6  N   UNL     1       1.429  -4.125   0.000  0.00  0.00    -0.277 N 
ATOM      7  C   UNL     1       1.343  -4.946   0.000  0.00  0.00    +0.204 A 
ATOM      8  N   UNL     1       0.536  -5.117   0.000  0.00  0.00    -0.125 NA
ATOM      9  N   UNL     1       0.123  -4.402   0.000  0.00  0.00    -0.120 NA
BRANCH   5  11
ATOM     10  C   UNL     1      -0.281  -2.728   0.000  0.00  0.00    +0.114 C 
ATOM     11  S   UNL     1       0.504  -2.982   0.000  0.00  0.00    +0.102 S 
ATOM     12  O   UNL     1       1.117  -2.430   0.000  0.00  0.00    -0.248 OA
ENDBRANCH   5  11
ENDBRANCH   4   6
ENDBRANCH   1   4
BRANCH   2  13
ATOM     13  C   UNL     1       4.287  -4.125   0.000  0.00  0.00    +0.115 C 
BRANCH  13  14
ATOM     14  C   UNL     1       5.001  -3.712   0.000  0.00  0.00    +0.023 C 
BRANCH  14  15
ATOM     15  C   UNL     1       5.716  -4.125   0.000  0.00  0.00    +0.002 C 
ATOM     16  C   UNL     1       5.716  -4.950   0.000  0.00  0.00    +0.000 C 
ATOM     17  C   UNL     1       6.430  -5.362   0.000  0.00  0.00    +0.000 C 
ATOM     18  C   UNL     1       7.145  -4.950   0.000  0.00  0.00    +0.000 C 
ATOM     19  C   UNL     1       7.145  -4.125   0.000  0.00  0.00    +0.000 C 
ATOM     20  C   UNL     1       6.430  -3.712   0.000  0.00  0.00    +0.000 C 
ENDBRANCH  14  15
ENDBRANCH  13  14
ENDBRANCH   2  13
TORSDOF 6
