REMARK  Name = 
REMARK  7 active torsions:
REMARK  status: ('A' for Active; 'I' for Inactive)
REMARK    1  A    between atoms: C_2  and  N_4
REMARK    2  A    between atoms: N_4  and  C_5
REMARK    3  A    between atoms: N_4  and  C_22
REMARK    4  A    between atoms: C_5  and  C_6
REMARK    5  A    between atoms: C_6  and  N_7
REMARK    6  A    between atoms: C_8  and  C_10
REMARK    7  A    between atoms: C_15  and  N_16
REMARK                            x       y       z     vdW  Elec       q    Type
REMARK                         _______ _______ _______ _____ _____    ______ ____
ROOT
ATOM      1  N   UNL     1       2.858  -1.650   0.000  0.00  0.00    -0.200 NA
ATOM      2  C   UNL     1       2.445  -0.935   0.000  0.00  0.00    +0.268 C 
ATOM      3  O   UNL     1       2.858  -0.221   0.000  0.00  0.00    -0.268 OA
ENDROOT
BRANCH   2   4
ATOM      4  C   UNL     1       1.620  -0.935   0.000  0.00  0.00    +0.087 A 
ATOM      5  C   UNL     1       1.208  -0.221   0.000  0.00  0.00    +0.136 A 
ATOM      6  N   UNL     1       0.383  -0.221   0.000  0.00  0.00    -0.229 NA
ATOM      7  C   UNL     1      -0.030  -0.935   0.000  0.00  0.00    +0.100 A 
ATOM      8  C   UNL     1       0.383  -1.650   0.000  0.00  0.00    +0.021 A 
ATOM      9  C   UNL     1       1.208  -1.650   0.000  0.00  0.00    +0.009 A 
BRANCH   5  10
ATOM     10  N   UNL     1       1.620   0.493   0.000  0.00  0.00    -0.288 N 
ATOM     11  C   UNL     1       2.445   0.493   0.000  0.00  0.00    +0.124 C 
ATOM     12  C   UNL     1       2.858   1.208   0.000  0.00  0.00    +0.164 C 
ATOM     13  O   UNL     1       2.445   1.922   0.000  0.00  0.00    -0.350 OA
ATOM     14  C   UNL     1       1.620   1.922   0.000  0.00  0.00    +0.164 C 
ATOM     15  C   UNL     1       1.208   1.208   0.000  0.00  0.00    +0.124 C 
ENDBRANCH   5  10
ENDBRANCH   2   4
BRANCH   1  16
ATOM     16  C   UNL     1       3.683  -1.650   0.000  0.00  0.00    +0.133 C 
BRANCH  16  17
ATOM     17  C   UNL     1       4.095  -2.365   0.000  0.00  0.00    +0.096 C 
BRANCH  17  18
ATOM     18  N   UNL     1       4.920  -2.365   0.000  0.00  0.00    -0.274 NA
BRANCH  18  19
ATOM     19  C   UNL     1       5.333  -1.650   0.000  0.00  0.00    +0.058 C 
ATOM     20  C   UNL     1       6.158  -1.650   0.000  0.00  0.00    +0.017 C 
ATOM     21  C   UNL     1       4.920  -0.935   0.000  0.00  0.00    +0.017 C 
ENDBRANCH  18  19
BRANCH  18  23
ATOM     22  C   UNL     1       6.158  -3.079   0.000  0.00  0.00    +0.017 C 
ATOM     23  C   UNL     1       5.333  -3.079   0.000  0.00  0.00    +0.058 C 
ATOM     24  C   UNL     1       4.920  -3.793   0.000  0.00  0.00    +0.017 C 
ENDBRANCH  18  23
ENDBRANCH  17  18
ENDBRANCH  16  17
ENDBRANCH   1  16
TORSDOF 7
