REMARK  Name = 
REMARK  6 active torsions:
REMARK  status: ('A' for Active; 'I' for Inactive)
REMARK    1  A    between atoms: C_2  and  C_4
REMARK    2  A    between atoms: N_6  and  C_7
REMARK    3  A    between atoms: C_7  and  C_8
REMARK    4  A    between atoms: N_10  and  C_11
REMARK    5  A    between atoms: C_11  and  C_12
REMARK    6  A    between atoms: C_16  and  C_18
REMARK                            x       y       z     vdW  Elec       q    Type
REMARK                         _______ _______ _______ _____ _____    ______ ____
ROOT
ATOM      1  C   UNL     1      -3.743   1.966   0.000  0.00  0.00    +0.156 A 
ATOM      2  N   UNL     1      -4.156   1.252   0.000  0.00  0.00    -0.226 NA
ATOM      3  C   UNL     1      -3.604   0.639   0.000  0.00  0.00    +0.120 A 
ATOM      4  N   UNL     1      -2.850   0.974   0.000  0.00  0.00    -0.305 N 
ATOM      5  C   UNL     1      -2.936   1.795   0.000  0.00  0.00    +0.101 A 
ENDROOT
BRANCH   3   6
ATOM      6  C   UNL     1      -3.775  -0.168   0.000  0.00  0.00    +0.057 C 
ATOM      7  C   UNL     1      -4.327  -0.781   0.000  0.00  0.00    +0.008 C 
ATOM      8  C   UNL     1      -3.520  -0.953   0.000  0.00  0.00    +0.008 C 
ENDBRANCH   3   6
BRANCH   1  10
ATOM      9  N   UNL     1      -4.899   2.806   0.000  0.00  0.00    -0.082 NA
ATOM     10  C   UNL     1      -4.079   2.720   0.000  0.00  0.00    +0.303 C 
ATOM     11  O   UNL     1      -3.594   3.388   0.000  0.00  0.00    -0.265 OA
ENDBRANCH   1  10
BRANCH   4  12
ATOM     12  C   UNL     1      -2.136   0.562   0.000  0.00  0.00    +0.194 C 
BRANCH  12  13
ATOM     13  C   UNL     1      -1.421   0.974   0.000  0.00  0.00    +0.264 C 
ATOM     14  N   UNL     1      -0.707   0.562   0.000  0.00  0.00    -0.204 NA
ATOM     15  O   UNL     1      -1.421   1.799   0.000  0.00  0.00    -0.271 OA
BRANCH  14  16
ATOM     16  C   UNL     1       0.008   0.974   0.000  0.00  0.00    +0.115 C 
BRANCH  16  17
ATOM     17  C   UNL     1       0.722   0.562   0.000  0.00  0.00    +0.022 C 
ATOM     18  C   UNL     1       0.936  -0.235   0.000  0.00  0.00    +0.002 C 
ATOM     19  C   UNL     1       1.733  -0.021   0.000  0.00  0.00    +0.000 C 
ATOM     20  C   UNL     1       1.519   0.775   0.000  0.00  0.00    +0.002 C 
ENDBRANCH  16  17
ENDBRANCH  14  16
ENDBRANCH  12  13
ENDBRANCH   4  12
TORSDOF 6
