REMARK  Name = 
REMARK  4 active torsions:
REMARK  status: ('A' for Active; 'I' for Inactive)
REMARK    1  A    between atoms: C_4  and  N_5
REMARK    2  A    between atoms: N_8  and  C_9
REMARK    3  A    between atoms: C_9  and  C_10
REMARK    4  A    between atoms: C_10  and  C_11
REMARK                            x       y       z     vdW  Elec       q    Type
REMARK                         _______ _______ _______ _____ _____    ______ ____
ROOT
ATOM      1  N   UNL     1       2.143  -3.712   0.000  0.00  0.00    -0.142 NA
ATOM      2  C   UNL     1       2.858  -4.125   0.000  0.00  0.00    +0.345 C 
ATOM      3  N   UNL     1       3.572  -3.712   0.000  0.00  0.00    -0.187 NA
ATOM      4  O   UNL     1       2.858  -4.950   0.000  0.00  0.00    -0.249 OA
ENDROOT
BRANCH   1  10
ATOM      5  C   UNL     1      -0.697  -4.316   0.000  0.00  0.00    +0.054 C 
ATOM      6  C   UNL     1       0.123  -4.402   0.000  0.00  0.00    +0.082 A 
ATOM      7  N   UNL     1       0.536  -5.117   0.000  0.00  0.00    -0.172 NA
ATOM      8  N   UNL     1       1.343  -4.946   0.000  0.00  0.00    -0.234 N 
ATOM      9  C   UNL     1       1.956  -5.497   0.000  0.00  0.00    +0.155 C 
ATOM     10  C   UNL     1       1.429  -4.125   0.000  0.00  0.00    +0.154 A 
ATOM     11  C   UNL     1       0.675  -3.789   0.000  0.00  0.00    +0.052 A 
ENDBRANCH   1  10
BRANCH   3  12
ATOM     12  C   UNL     1       4.287  -4.125   0.000  0.00  0.00    +0.121 C 
BRANCH  12  13
ATOM     13  C   UNL     1       5.001  -3.712   0.000  0.00  0.00    +0.045 C 
BRANCH  13  14
ATOM     14  C   UNL     1       5.716  -4.125   0.000  0.00  0.00    -0.047 C 
ATOM     15  C   UNL     1       5.716  -4.950   0.000  0.00  0.00    +0.022 C 
ATOM     16  C   UNL     1       6.430  -5.362   0.000  0.00  0.00    +0.005 C 
ATOM     17  C   UNL     1       7.145  -4.950   0.000  0.00  0.00    +0.005 C 
ATOM     18  C   UNL     1       7.145  -4.125   0.000  0.00  0.00    +0.025 C 
ATOM     19  C   UNL     1       6.430  -3.712   0.000  0.00  0.00    -0.035 C 
ENDBRANCH  13  14
ENDBRANCH  12  13
ENDBRANCH   3  12
TORSDOF 4
