REMARK  Name = 
REMARK  4 active torsions:
REMARK  status: ('A' for Active; 'I' for Inactive)
REMARK    1  A    between atoms: N_5  and  C_6
REMARK    2  A    between atoms: C_6  and  C_7
REMARK    3  A    between atoms: C_7  and  C_10
REMARK    4  A    between atoms: C_14  and  C_16
REMARK                            x       y       z     vdW  Elec       q    Type
REMARK                         _______ _______ _______ _____ _____    ______ ____
ROOT
ATOM      1  C   UNL     1       0.000  -4.950   0.000  0.00  0.00    +0.166 C 
ATOM      2  O   UNL     1       0.412  -4.236   0.000  0.00  0.00    -0.219 OA
ATOM      3  C   UNL     1      -0.412  -5.665   0.000  0.00  0.00    +0.040 C 
ENDROOT
BRANCH   1   4
ATOM      4  C   UNL     1       0.715  -5.362   0.000  0.00  0.00    +0.007 A 
ATOM      5  C   UNL     1       0.715  -6.188   0.000  0.00  0.00    +0.002 A 
ATOM      6  C   UNL     1       1.429  -6.600   0.000  0.00  0.00    +0.071 A 
ATOM      7  C   UNL     1       2.143  -6.188   0.000  0.00  0.00    +0.004 A 
ATOM      8  C   UNL     1       2.143  -5.362   0.000  0.00  0.00    -0.000 A 
ATOM      9  C   UNL     1       1.429  -4.950   0.000  0.00  0.00    -0.002 A 
BRANCH   6  10
ATOM     10  C   UNL     1       1.429  -7.425   0.000  0.00  0.00    +0.419 C 
ATOM     11  F   UNL     1       2.254  -7.425   0.000  0.00  0.00    -0.166 F 
ATOM     12  F   UNL     1       0.604  -7.425   0.000  0.00  0.00    -0.166 F 
ATOM     13  F   UNL     1       1.429  -8.250   0.000  0.00  0.00    -0.166 F 
ENDBRANCH   6  10
ENDBRANCH   1   4
BRANCH   1  14
ATOM     14  C   UNL     1      -0.715  -4.537   0.000  0.00  0.00    +0.145 C 
BRANCH  14  21
ATOM     15  C   UNL     1      -0.715  -1.238   0.000  0.00  0.00    +0.052 C 
ATOM     16  C   UNL     1      -0.715  -2.062   0.000  0.00  0.00    +0.062 A 
ATOM     17  C   UNL     1      -1.429  -2.475   0.000  0.00  0.00    +0.048 A 
ATOM     18  C   UNL     1      -2.143  -2.062   0.000  0.00  0.00    +0.037 C 
ATOM     19  C   UNL     1      -1.429  -3.300   0.000  0.00  0.00    +0.259 A 
ATOM     20  O   UNL     1      -2.143  -3.712   0.000  0.00  0.00    -0.267 OA
ATOM     21  N   UNL     1      -0.715  -3.712   0.000  0.00  0.00    -0.276 N 
ATOM     22  C   UNL     1       0.000  -3.300   0.000  0.00  0.00    +0.181 A 
ATOM     23  N   UNL     1       0.000  -2.475   0.000  0.00  0.00    -0.230 NA
ENDBRANCH  14  21
ENDBRANCH   1  14
TORSDOF 4
