REMARK  Name = 
REMARK  3 active torsions:
REMARK  status: ('A' for Active; 'I' for Inactive)
REMARK    1  A    between atoms: C_2  and  C_3
REMARK    2  A    between atoms: N_10  and  C_11
REMARK    3  A    between atoms: C_14  and  S_16
REMARK                            x       y       z     vdW  Elec       q    Type
REMARK                         _______ _______ _______ _____ _____    ______ ____
ROOT
ATOM      1  C   UNL     1      -0.279  -2.870   0.000  0.00  0.00    +0.112 A 
ATOM      2  S   UNL     1      -0.947  -3.355   0.000  0.00  0.00    -0.033 S 
ATOM      3  C   UNL     1      -0.692  -4.140   0.000  0.00  0.00    +0.209 A 
ATOM      4  N   UNL     1      -1.177  -4.807   0.000  0.00  0.00    -0.134 NA
ATOM      5  C   UNL     1      -0.841  -5.561   0.000  0.00  0.00    +0.345 C 
ATOM      6  N   UNL     1      -1.326  -6.228   0.000  0.00  0.00    -0.189 NA
ATOM      7  O   UNL     1      -0.021  -5.647   0.000  0.00  0.00    -0.249 OA
ATOM      8  N   UNL     1       0.133  -4.140   0.000  0.00  0.00    -0.124 NA
ATOM      9  N   UNL     1       0.388  -3.355   0.000  0.00  0.00    -0.144 NA
ENDROOT
BRANCH   6  10
ATOM     10  C   UNL     1      -0.990  -6.982   0.000  0.00  0.00    +0.098 C 
ATOM     11  C   UNL     1      -1.403  -7.696   0.000  0.00  0.00    +0.032 C 
ATOM     12  C   UNL     1      -0.851  -8.309   0.000  0.00  0.00    +0.049 C 
ATOM     13  C   UNL     1      -0.097  -7.974   0.000  0.00  0.00    +0.013 C 
ATOM     14  C   UNL     1      -0.183  -7.153   0.000  0.00  0.00    +0.023 C 
BRANCH  12  15
ATOM     15  S   UNL     1      -1.022  -9.116   0.000  0.00  0.00    -0.140 S 
ATOM     16  C   UNL     1      -0.409  -9.668   0.000  0.00  0.00    +0.069 C 
ENDBRANCH  12  15
ENDBRANCH   6  10
BRANCH   1  18
ATOM     17  C   UNL     1       0.435  -1.633   0.000  0.00  0.00    +0.007 C 
ATOM     18  C   UNL     1      -0.279  -2.045   0.000  0.00  0.00    +0.055 C 
ENDBRANCH   1  18
TORSDOF 3
