REMARK  Name = 
REMARK  4 active torsions:
REMARK  status: ('A' for Active; 'I' for Inactive)
REMARK    1  A    between atoms: O_2  and  C_3
REMARK    2  A    between atoms: C_3  and  C_4
REMARK    3  A    between atoms: C_4  and  N_6
REMARK    4  A    between atoms: C_7  and  C_9
REMARK                            x       y       z     vdW  Elec       q    Type
REMARK                         _______ _______ _______ _____ _____    ______ ____
ROOT
ATOM      1  C   UNL     1       5.716  -6.600   0.000  0.00  0.00    +0.074 A 
ATOM      2  C   UNL     1       5.716  -7.425   0.000  0.00  0.00    +0.105 A 
ATOM      3  N   UNL     1       6.430  -7.838   0.000  0.00  0.00    -0.229 NA
ATOM      4  C   UNL     1       7.145  -7.425   0.000  0.00  0.00    +0.132 A 
ATOM      5  N   UNL     1       7.859  -7.838   0.000  0.00  0.00    -0.288 N 
ATOM      6  C   UNL     1       7.859  -8.662   0.000  0.00  0.00    +0.122 C 
ATOM      7  C   UNL     1       8.574  -9.075   0.000  0.00  0.00    +0.135 C 
ATOM      8  C   UNL     1       8.574  -9.900   0.000  0.00  0.00    +0.034 C 
ATOM      9  O   UNL     1       9.288  -8.662   0.000  0.00  0.00    -0.355 OA
ATOM     10  C   UNL     1       9.288  -7.838   0.000  0.00  0.00    +0.135 C 
ATOM     11  C   UNL     1      10.003  -7.425   0.000  0.00  0.00    +0.034 C 
ATOM     12  C   UNL     1       8.574  -7.425   0.000  0.00  0.00    +0.122 C 
ATOM     13  C   UNL     1       7.145  -6.600   0.000  0.00  0.00    +0.034 A 
ATOM     14  C   UNL     1       6.430  -6.188   0.000  0.00  0.00    +0.009 A 
ENDROOT
BRANCH   1  16
ATOM     15  N   UNL     1       4.287  -6.600   0.000  0.00  0.00    -0.201 NA
ATOM     16  C   UNL     1       5.001  -6.188   0.000  0.00  0.00    +0.266 C 
ATOM     17  O   UNL     1       5.001  -5.362   0.000  0.00  0.00    -0.268 OA
BRANCH  15  18
ATOM     18  C   UNL     1       3.572  -6.188   0.000  0.00  0.00    +0.125 C 
ATOM     19  C   UNL     1       3.572  -5.362   0.000  0.00  0.00    +0.026 C 
BRANCH  18  20
ATOM     20  C   UNL     1       2.858  -6.600   0.000  0.00  0.00    +0.164 C 
BRANCH  20  22
ATOM     21  C   UNL     1       1.429  -6.600   0.000  0.00  0.00    +0.174 C 
ATOM     22  O   UNL     1       2.143  -6.188   0.000  0.00  0.00    -0.349 OA
ENDBRANCH  20  22
ENDBRANCH  18  20
ENDBRANCH  15  18
ENDBRANCH   1  16
TORSDOF 4
