REMARK  Name = 
REMARK  3 active torsions:
REMARK  status: ('A' for Active; 'I' for Inactive)
REMARK    1  A    between atoms: C_5  and  C_7
REMARK    2  A    between atoms: C_7  and  N_8
REMARK    3  A    between atoms: C_11  and  C_15
REMARK                            x       y       z     vdW  Elec       q    Type
REMARK                         _______ _______ _______ _____ _____    ______ ____
ROOT
ATOM      1  N   UNL     1       0.715   5.704   0.000  0.00  0.00    -0.276 N 
ATOM      2  C   UNL     1       0.000   5.292   0.000  0.00  0.00    +0.263 A 
ATOM      3  O   UNL     1      -0.715   5.704   0.000  0.00  0.00    -0.267 OA
ATOM      4  C   UNL     1       0.000   4.467   0.000  0.00  0.00    +0.075 A 
ATOM      5  C   UNL     1       0.715   4.054   0.000  0.00  0.00    +0.065 A 
ATOM      6  N   UNL     1       1.429   4.467   0.000  0.00  0.00    -0.230 NA
ATOM      7  C   UNL     1       1.429   5.292   0.000  0.00  0.00    +0.181 A 
ENDROOT
BRANCH   5   8
ATOM      8  C   UNL     1       0.715   3.229   0.000  0.00  0.00    +0.040 C 
ATOM      9  C   UNL     1       0.131   2.646   0.000  0.00  0.00    +0.006 C 
ATOM     10  C   UNL     1       0.715   2.062   0.000  0.00  0.00    +0.001 C 
ATOM     11  C   UNL     1       1.298   2.646   0.000  0.00  0.00    +0.006 C 
ENDBRANCH   5   8
BRANCH   1  12
ATOM     12  C   UNL     1       0.715   6.529   0.000  0.00  0.00    +0.141 C 
BRANCH  12  17
ATOM     13  C   UNL     1      -2.437   6.512   0.000  0.00  0.00    +0.000 C 
ATOM     14  C   UNL     1      -1.625   6.655   0.000  0.00  0.00    +0.000 C 
ATOM     15  C   UNL     1      -1.095   6.023   0.000  0.00  0.00    +0.003 C 
ATOM     16  C   UNL     1      -0.282   6.167   0.000  0.00  0.00    +0.032 C 
ATOM     17  C   UNL     1       0.000   6.942   0.000  0.00  0.00    +0.147 C 
ATOM     18  O   UNL     1       0.530   7.574   0.000  0.00  0.00    -0.224 OA
ATOM     19  C   UNL     1      -0.530   7.574   0.000  0.00  0.00    +0.032 C 
ATOM     20  C   UNL     1      -1.343   7.431   0.000  0.00  0.00    +0.003 C 
ENDBRANCH  12  17
ENDBRANCH   1  12
TORSDOF 3
