REMARK  Name = 
REMARK  4 active torsions:
REMARK  status: ('A' for Active; 'I' for Inactive)
REMARK    1  A    between atoms: C_6  and  N_7
REMARK    2  A    between atoms: N_7  and  C_8
REMARK    3  A    between atoms: C_8  and  C_9
REMARK    4  A    between atoms: C_9  and  C_12
REMARK                            x       y       z     vdW  Elec       q    Type
REMARK                         _______ _______ _______ _____ _____    ______ ____
ROOT
ATOM      1  C   UNL     1       4.895   4.353   0.000  0.00  0.00    +0.123 C 
ENDROOT
BRANCH   1   2
ATOM      2  C   UNL     1       4.895   3.528   0.000  0.00  0.00    +0.164 C 
ATOM      3  O   UNL     1       5.720   3.528   0.000  0.00  0.00    -0.220 OA
ATOM      4  C   UNL     1       4.070   3.528   0.000  0.00  0.00    +0.039 C 
BRANCH   2   5
ATOM      5  C   UNL     1       4.895   2.703   0.000  0.00  0.00    +0.046 A 
ATOM      6  C   UNL     1       4.227   2.218   0.000  0.00  0.00    +0.095 A 
ATOM      7  N   UNL     1       4.482   1.433   0.000  0.00  0.00    -0.248 N 
ATOM      8  C   UNL     1       3.997   0.766   0.000  0.00  0.00    +0.154 C 
ATOM      9  N   UNL     1       5.307   1.433   0.000  0.00  0.00    -0.168 NA
ATOM     10  C   UNL     1       5.562   2.218   0.000  0.00  0.00    +0.120 A 
ENDBRANCH   2   5
ENDBRANCH   1   2
BRANCH   1  11
ATOM     11  N   UNL     1       5.609   4.765   0.000  0.00  0.00    -0.217 NA
BRANCH  11  16
ATOM     12  C   UNL     1       4.180   7.240   0.000  0.00  0.00    +0.000 C 
ATOM     13  C   UNL     1       4.895   6.828   0.000  0.00  0.00    +0.001 C 
ATOM     14  C   UNL     1       4.895   6.003   0.000  0.00  0.00    +0.016 C 
ATOM     15  C   UNL     1       4.180   5.590   0.000  0.00  0.00    +0.001 C 
ATOM     16  C   UNL     1       5.609   5.590   0.000  0.00  0.00    +0.073 C 
ATOM     17  C   UNL     1       6.324   6.003   0.000  0.00  0.00    +0.017 C 
ATOM     18  C   UNL     1       6.324   6.828   0.000  0.00  0.00    +0.001 C 
ATOM     19  C   UNL     1       5.609   7.240   0.000  0.00  0.00    +0.000 C 
ENDBRANCH  11  16
ENDBRANCH   1  11
TORSDOF 4
