REMARK  Name = 
REMARK  4 active torsions:
REMARK  status: ('A' for Active; 'I' for Inactive)
REMARK    1  A    between atoms: C_2  and  C_3
REMARK    2  A    between atoms: C_3  and  O_4
REMARK    3  A    between atoms: O_4  and  C_5
REMARK    4  A    between atoms: C_13  and  C_17
REMARK                            x       y       z     vdW  Elec       q    Type
REMARK                         _______ _______ _______ _____ _____    ______ ____
ROOT
ATOM      1  C   UNL     1       0.715  -1.238   0.000  0.00  0.00    +0.135 C 
ATOM      2  C   UNL     1       0.000  -1.650   0.000  0.00  0.00    +0.122 C 
ATOM      3  N   UNL     1       0.000  -2.475   0.000  0.00  0.00    -0.291 N 
ATOM      4  C   UNL     1      -0.715  -2.888   0.000  0.00  0.00    +0.132 A 
ATOM      5  N   UNL     1      -1.429  -2.475   0.000  0.00  0.00    -0.229 NA
ATOM      6  C   UNL     1      -2.143  -2.888   0.000  0.00  0.00    +0.100 A 
ATOM      7  C   UNL     1      -2.143  -3.712   0.000  0.00  0.00    +0.025 A 
ATOM      8  C   UNL     1      -1.429  -4.125   0.000  0.00  0.00    +0.076 A 
ATOM      9  C   UNL     1      -0.715  -3.712   0.000  0.00  0.00    +0.038 A 
ATOM     10  C   UNL     1       0.715  -2.888   0.000  0.00  0.00    +0.092 C 
ATOM     11  C   UNL     1       1.429  -2.475   0.000  0.00  0.00    +0.024 C 
ATOM     12  C   UNL     1       1.429  -1.650   0.000  0.00  0.00    +0.033 C 
ENDROOT
BRANCH   8  13
ATOM     13  C   UNL     1      -1.429  -4.950   0.000  0.00  0.00    +0.419 C 
ATOM     14  F   UNL     1      -0.604  -4.950   0.000  0.00  0.00    -0.166 F 
ATOM     15  F   UNL     1      -2.254  -4.950   0.000  0.00  0.00    -0.166 F 
ATOM     16  F   UNL     1      -1.429  -5.775   0.000  0.00  0.00    -0.166 F 
ENDBRANCH   8  13
BRANCH   1  17
ATOM     17  O   UNL     1       0.715  -0.412   0.000  0.00  0.00    -0.352 OA
BRANCH  17  18
ATOM     18  C   UNL     1       1.429   0.000   0.000  0.00  0.00    +0.178 C 
BRANCH  18  20
ATOM     19  O   UNL     1       2.143   1.238   0.000  0.00  0.00    -0.218 OA
ATOM     20  C   UNL     1       1.429   0.825   0.000  0.00  0.00    +0.214 C 
ENDBRANCH  18  20
ENDBRANCH  17  18
ENDBRANCH   1  17
TORSDOF 4
