REMARK  Name = 
REMARK  7 active torsions:
REMARK  status: ('A' for Active; 'I' for Inactive)
REMARK    1  A    between atoms: C_2  and  C_4
REMARK    2  A    between atoms: C_4  and  C_5
REMARK    3  A    between atoms: C_5  and  N_6
REMARK    4  A    between atoms: C_5  and  C_13
REMARK    5  A    between atoms: N_15  and  C_16
REMARK    6  A    between atoms: C_16  and  C_17
REMARK    7  A    between atoms: C_17  and  C_18
REMARK                            x       y       z     vdW  Elec       q    Type
REMARK                         _______ _______ _______ _____ _____    ______ ____
ROOT
ATOM      1  C   UNL     1       2.509  -5.886   0.000  0.00  0.00    +0.153 C 
ENDROOT
BRANCH   1   2
ATOM      2  N   UNL     1       1.969  -6.509   0.000  0.00  0.00    -0.273 N 
ATOM      3  C   UNL     1       2.239  -7.289   0.000  0.00  0.00    +0.226 C 
ATOM      4  O   UNL     1       3.049  -7.445   0.000  0.00  0.00    -0.275 OA
ATOM      5  C   UNL     1       1.699  -7.912   0.000  0.00  0.00    +0.085 C 
ATOM      6  C   UNL     1       0.889  -7.756   0.000  0.00  0.00    +0.011 C 
ATOM      7  C   UNL     1       0.619  -6.977   0.000  0.00  0.00    +0.022 C 
ATOM      8  C   UNL     1       1.159  -6.353   0.000  0.00  0.00    +0.094 C 
ENDBRANCH   1   2
BRANCH   1   9
ATOM      9  C   UNL     1       3.319  -6.041   0.000  0.00  0.00    +0.259 C 
ATOM     10  N   UNL     1       3.859  -5.418   0.000  0.00  0.00    -0.204 NA
ATOM     11  O   UNL     1       3.589  -6.821   0.000  0.00  0.00    -0.272 OA
BRANCH  10  12
ATOM     12  C   UNL     1       4.670  -5.574   0.000  0.00  0.00    +0.120 C 
BRANCH  12  13
ATOM     13  C   UNL     1       5.210  -4.950   0.000  0.00  0.00    +0.051 C 
BRANCH  13  14
ATOM     14  C   UNL     1       6.020  -5.106   0.000  0.00  0.00    -0.001 A 
ATOM     15  C   UNL     1       6.290  -5.886   0.000  0.00  0.00    +0.094 A 
ATOM     16  N   UNL     1       7.100  -6.041   0.000  0.00  0.00    -0.248 NA
ATOM     17  C   UNL     1       7.640  -5.418   0.000  0.00  0.00    +0.059 A 
ATOM     18  C   UNL     1       8.450  -5.574   0.000  0.00  0.00    +0.052 C 
ATOM     19  C   UNL     1       7.370  -4.638   0.000  0.00  0.00    +0.014 A 
ATOM     20  C   UNL     1       6.560  -4.482   0.000  0.00  0.00    -0.001 A 
ENDBRANCH  13  14
ENDBRANCH  12  13
ENDBRANCH  10  12
ENDBRANCH   1   9
BRANCH   1  21
ATOM     21  C   UNL     1       2.239  -5.106   0.000  0.00  0.00    +0.029 C 
BRANCH  21  23
ATOM     22  C   UNL     1       0.889  -5.574   0.000  0.00  0.00    +0.000 C 
ATOM     23  C   UNL     1       1.429  -4.950   0.000  0.00  0.00    +0.002 C 
ATOM     24  C   UNL     1       1.159  -4.170   0.000  0.00  0.00    +0.000 C 
ENDBRANCH  21  23
ENDBRANCH   1  21
TORSDOF 7
