REMARK  Name = 
REMARK  6 active torsions:
REMARK  status: ('A' for Active; 'I' for Inactive)
REMARK    1  A    between atoms: O_2  and  C_3
REMARK    2  A    between atoms: C_3  and  C_4
REMARK    3  A    between atoms: C_4  and  N_5
REMARK    4  A    between atoms: C_7  and  C_12
REMARK    5  A    between atoms: N_17  and  C_18
REMARK    6  A    between atoms: C_18  and  C_19
REMARK                            x       y       z     vdW  Elec       q    Type
REMARK                         _______ _______ _______ _____ _____    ______ ____
ROOT
ATOM      1  C   UNL     1       3.572  -2.888   0.000  0.00  0.00    +0.251 C 
ATOM      2  N   UNL     1       3.572  -3.712   0.000  0.00  0.00    -0.273 N 
ATOM      3  C   UNL     1       2.858  -4.125   0.000  0.00  0.00    +0.111 C 
ATOM      4  C   UNL     1       2.858  -4.950   0.000  0.00  0.00    +0.094 C 
ATOM      5  N   UNL     1       3.572  -5.362   0.000  0.00  0.00    -0.268 NA
ATOM      6  C   UNL     1       4.287  -4.950   0.000  0.00  0.00    +0.094 C 
ATOM      7  C   UNL     1       4.287  -4.125   0.000  0.00  0.00    +0.111 C 
ATOM      8  O   UNL     1       4.287  -2.475   0.000  0.00  0.00    -0.270 OA
ENDROOT
BRANCH   1  14
ATOM      9  N   UNL     1       2.143  -1.238   0.000  0.00  0.00    -0.291 N 
ATOM     10  C   UNL     1       1.429  -1.650   0.000  0.00  0.00    +0.261 A 
ATOM     11  O   UNL     1       0.715  -1.238   0.000  0.00  0.00    -0.267 OA
ATOM     12  C   UNL     1       1.429  -2.475   0.000  0.00  0.00    +0.061 A 
ATOM     13  C   UNL     1       2.143  -2.888   0.000  0.00  0.00    +0.011 A 
ATOM     14  C   UNL     1       2.858  -2.475   0.000  0.00  0.00    +0.071 A 
ATOM     15  C   UNL     1       2.858  -1.650   0.000  0.00  0.00    +0.083 A 
BRANCH   9  16
ATOM     16  C   UNL     1       2.143  -0.412   0.000  0.00  0.00    +0.141 C 
BRANCH  16  17
ATOM     17  C   UNL     1       1.429   0.000   0.000  0.00  0.00    +0.167 C 
BRANCH  17  19
ATOM     18  C   UNL     1       0.715   1.238   0.000  0.00  0.00    +0.174 C 
ATOM     19  O   UNL     1       1.429   0.825   0.000  0.00  0.00    -0.349 OA
ENDBRANCH  17  19
ENDBRANCH  16  17
ENDBRANCH   9  16
ENDBRANCH   1  14
BRANCH   5  20
ATOM     20  C   UNL     1       3.572  -6.188   0.000  0.00  0.00    +0.103 C 
BRANCH  20  21
ATOM     21  C   UNL     1       4.287  -6.600   0.000  0.00  0.00    +0.141 C 
ATOM     22  O   UNL     1       4.699  -5.886   0.000  0.00  0.00    -0.224 OA
ATOM     23  C   UNL     1       3.874  -7.314   0.000  0.00  0.00    +0.034 C 
ATOM     24  C   UNL     1       5.001  -7.013   0.000  0.00  0.00    +0.034 C 
ENDBRANCH  20  21
ENDBRANCH   5  20
TORSDOF 6
