REMARK  Name = 
REMARK  4 active torsions:
REMARK  status: ('A' for Active; 'I' for Inactive)
REMARK    1  A    between atoms: C_10  and  C_12
REMARK    2  A    between atoms: N_14  and  C_15
REMARK    3  A    between atoms: C_15  and  C_16
REMARK    4  A    between atoms: C_16  and  C_17
REMARK                            x       y       z     vdW  Elec       q    Type
REMARK                         _______ _______ _______ _____ _____    ______ ____
ROOT
ATOM      1  C   UNL     1      -3.572  -2.888   0.000  0.00  0.00    +0.117 C 
ATOM      2  N   UNL     1      -2.858  -2.475   0.000  0.00  0.00    -0.261 N 
ATOM      3  C   UNL     1      -2.143  -2.888   0.000  0.00  0.00    +0.307 C 
ATOM      4  N   UNL     1      -1.429  -2.475   0.000  0.00  0.00    -0.264 N 
ATOM      5  C   UNL     1      -0.715  -2.888   0.000  0.00  0.00    +0.104 C 
ATOM      6  C   UNL     1       0.000  -2.475   0.000  0.00  0.00    +0.098 C 
ATOM      7  C   UNL     1       0.000  -1.650   0.000  0.00  0.00    +0.013 C 
ATOM      8  C   UNL     1      -0.715  -1.238   0.000  0.00  0.00    +0.022 C 
ATOM      9  C   UNL     1      -1.429  -1.650   0.000  0.00  0.00    +0.095 C 
ATOM     10  O   UNL     1      -2.143  -3.712   0.000  0.00  0.00    -0.252 OA
ATOM     11  C   UNL     1      -2.858  -1.650   0.000  0.00  0.00    +0.117 C 
ENDROOT
BRANCH   6  12
ATOM     12  C   UNL     1       0.715  -2.888   0.000  0.00  0.00    +0.243 C 
ATOM     13  N   UNL     1       1.429  -2.475   0.000  0.00  0.00    -0.205 NA
ATOM     14  O   UNL     1       0.715  -3.712   0.000  0.00  0.00    -0.273 OA
BRANCH  13  15
ATOM     15  C   UNL     1       2.143  -2.888   0.000  0.00  0.00    +0.121 C 
BRANCH  15  16
ATOM     16  C   UNL     1       2.858  -2.475   0.000  0.00  0.00    +0.069 C 
BRANCH  16  17
ATOM     17  C   UNL     1       3.572  -2.888   0.000  0.00  0.00    +0.061 A 
ATOM     18  N   UNL     1       3.572  -3.712   0.000  0.00  0.00    -0.248 NA
ATOM     19  C   UNL     1       4.287  -4.125   0.000  0.00  0.00    +0.098 A 
ATOM     20  C   UNL     1       5.001  -3.712   0.000  0.00  0.00    +0.021 A 
ATOM     21  C   UNL     1       5.001  -2.888   0.000  0.00  0.00    +0.003 A 
ATOM     22  C   UNL     1       4.287  -2.475   0.000  0.00  0.00    +0.015 A 
ENDBRANCH  16  17
ENDBRANCH  15  16
ENDBRANCH  13  15
ENDBRANCH   6  12
TORSDOF 4
