REMARK  Name = 
REMARK  5 active torsions:
REMARK  status: ('A' for Active; 'I' for Inactive)
REMARK    1  A    between atoms: N_2  and  C_4
REMARK    2  A    between atoms: N_9  and  C_10
REMARK    3  A    between atoms: C_10  and  C_11
REMARK    4  A    between atoms: N_13  and  C_14
REMARK    5  A    between atoms: C_14  and  C_21
REMARK                            x       y       z     vdW  Elec       q    Type
REMARK                         _______ _______ _______ _____ _____    ______ ____
ROOT
ATOM      1  C   UNL     1      -1.462  -5.696   0.000  0.00  0.00    +0.265 C 
ATOM      2  N   UNL     1      -2.177  -6.108   0.000  0.00  0.00    -0.193 NA
ATOM      3  O   UNL     1      -0.748  -6.108   0.000  0.00  0.00    -0.271 OA
ENDROOT
BRANCH   2   4
ATOM      4  C   UNL     1      -2.177  -6.933   0.000  0.00  0.00    +0.157 C 
ATOM      5  C   UNL     1      -2.981  -6.750   0.000  0.00  0.00    +0.034 C 
ATOM      6  C   UNL     1      -3.626  -7.264   0.000  0.00  0.00    +0.003 C 
ATOM      7  C   UNL     1      -3.626  -8.089   0.000  0.00  0.00    +0.000 C 
ATOM      8  C   UNL     1      -2.981  -8.604   0.000  0.00  0.00    +0.000 C 
ATOM      9  C   UNL     1      -2.177  -8.420   0.000  0.00  0.00    +0.003 C 
ATOM     10  C   UNL     1      -1.819  -7.677   0.000  0.00  0.00    +0.034 C 
BRANCH   4  11
ATOM     11  C   UNL     1      -1.372  -6.750   0.000  0.00  0.00    +0.091 C 
ATOM     12  N   UNL     1      -0.568  -6.566   0.000  0.00  0.00    -0.194 NA
ENDBRANCH   4  11
ENDBRANCH   2   4
BRANCH   1  13
ATOM     13  C   UNL     1      -1.462  -4.871   0.000  0.00  0.00    +0.196 C 
BRANCH  13  16
ATOM     14  C   UNL     1      -0.033  -3.221   0.000  0.00  0.00    +0.307 A 
ATOM     15  C   UNL     1      -0.748  -3.633   0.000  0.00  0.00    +0.155 A 
ATOM     16  N   UNL     1      -0.748  -4.458   0.000  0.00  0.00    -0.280 N 
ATOM     17  C   UNL     1      -0.033  -4.871   0.000  0.00  0.00    +0.262 A 
ATOM     18  O   UNL     1      -0.033  -5.696   0.000  0.00  0.00    -0.267 OA
ATOM     19  C   UNL     1       0.681  -4.458   0.000  0.00  0.00    +0.067 A 
ATOM     20  C   UNL     1       0.681  -3.633   0.000  0.00  0.00    +0.082 A 
BRANCH  14  22
ATOM     21  O   UNL     1       0.681  -1.983   0.000  0.00  0.00    -0.576 OA
ATOM     22  N   UNL     1      -0.033  -2.396   0.000  0.00  0.00    +0.082 N 
ATOM     23  O   UNL     1      -0.748  -1.983   0.000  0.00  0.00    +0.042 OA
ENDBRANCH  14  22
ENDBRANCH  13  16
ENDBRANCH   1  13
TORSDOF 5
