REMARK  Name = 
REMARK  4 active torsions:
REMARK  status: ('A' for Active; 'I' for Inactive)
REMARK    1  A    between atoms: C_1  and  C_10
REMARK    2  A    between atoms: N_5  and  C_16
REMARK    3  A    between atoms: C_16  and  C_17
REMARK    4  A    between atoms: C_17  and  C_23
REMARK                            x       y       z     vdW  Elec       q    Type
REMARK                         _______ _______ _______ _____ _____    ______ ____
ROOT
ATOM      1  C   UNL     1      -1.783  -0.750   0.000  0.00  0.00    +0.107 C 
ATOM      2  C   UNL     1      -1.000  -0.496   0.000  0.00  0.00    +0.100 C 
ATOM      3  N   UNL     1      -0.512  -1.162   0.000  0.00  0.00    -0.292 N 
ATOM      4  C   UNL     1      -1.000  -1.833   0.000  0.00  0.00    +0.092 C 
ATOM      5  C   UNL     1       0.312  -1.162   0.000  0.00  0.00    +0.154 A 
ATOM      6  N   UNL     1       0.725  -0.450   0.000  0.00  0.00    -0.207 NA
ATOM      7  C   UNL     1       1.550  -0.450   0.000  0.00  0.00    +0.201 A 
ATOM      8  N   UNL     1       1.962  -1.162   0.000  0.00  0.00    -0.205 NA
ATOM      9  C   UNL     1       1.550  -1.879   0.000  0.00  0.00    +0.167 A 
ATOM     10  N   UNL     1       1.804  -2.662   0.000  0.00  0.00    -0.294 N 
ATOM     11  C   UNL     1       1.137  -3.149   0.000  0.00  0.00    +0.180 A 
ATOM     12  N   UNL     1       0.467  -2.662   0.000  0.00  0.00    -0.219 NA
ATOM     13  C   UNL     1       0.725  -1.879   0.000  0.00  0.00    +0.149 A 
ATOM     14  C   UNL     1      -2.499  -1.162   0.000  0.00  0.00    +0.012 C 
ATOM     15  C   UNL     1      -1.783  -1.575   0.000  0.00  0.00    +0.030 C 
ENDROOT
BRANCH   1  16
ATOM     16  C   UNL     1      -2.120   0.000   0.000  0.00  0.00    +0.399 C 
ATOM     17  F   UNL     1      -1.366   0.337   0.000  0.00  0.00    -0.170 F 
ATOM     18  F   UNL     1      -2.874  -0.333   0.000  0.00  0.00    -0.170 F 
ATOM     19  F   UNL     1      -2.454   0.754   0.000  0.00  0.00    -0.170 F 
ENDBRANCH   1  16
BRANCH  10  20
ATOM     20  C   UNL     1       2.587  -2.916   0.000  0.00  0.00    +0.112 C 
BRANCH  20  21
ATOM     21  C   UNL     1       3.199  -2.366   0.000  0.00  0.00    +0.056 C 
ATOM     22  C   UNL     1       3.637  -3.066   0.000  0.00  0.00    +0.037 C 
ATOM     23  C   UNL     1       4.461  -3.037   0.000  0.00  0.00    +0.142 C 
ATOM     24  O   UNL     1       4.849  -2.308   0.000  0.00  0.00    -0.354 OA
ATOM     25  C   UNL     1       4.411  -1.608   0.000  0.00  0.00    +0.142 C 
ATOM     26  C   UNL     1       3.587  -1.637   0.000  0.00  0.00    +0.037 C 
BRANCH  21  27
ATOM     27  C   UNL     1       2.549  -1.858   0.000  0.00  0.00    +0.184 C 
ATOM     28  O   UNL     1       2.666  -1.041   0.000  0.00  0.00    -0.220 OA
ENDBRANCH  21  27
ENDBRANCH  20  21
ENDBRANCH  10  20
TORSDOF 4
