REMARK  Name = 
REMARK  4 active torsions:
REMARK  status: ('A' for Active; 'I' for Inactive)
REMARK    1  A    between atoms: C_2  and  C_3
REMARK    2  A    between atoms: C_2  and  C_14
REMARK    3  A    between atoms: C_3  and  N_4
REMARK    4  A    between atoms: C_5  and  C_7
REMARK                            x       y       z     vdW  Elec       q    Type
REMARK                         _______ _______ _______ _____ _____    ______ ____
ROOT
ATOM      1  C   UNL     1       1.847  -1.211   0.000  0.00  0.00    +0.120 C 
ENDROOT
BRANCH   1   2
ATOM      2  N   UNL     1       2.561  -1.624   0.000  0.00  0.00    -0.205 NA
ATOM      3  C   UNL     1       3.276  -1.211   0.000  0.00  0.00    +0.243 C 
ATOM      4  O   UNL     1       3.276  -0.386   0.000  0.00  0.00    -0.273 OA
BRANCH   3   5
ATOM      5  C   UNL     1       3.990  -1.624   0.000  0.00  0.00    +0.107 C 
ATOM      6  C   UNL     1       4.076  -2.444   0.000  0.00  0.00    +0.096 C 
ATOM      7  C   UNL     1       4.883  -2.616   0.000  0.00  0.00    +0.226 C 
ATOM      8  O   UNL     1       5.219  -3.369   0.000  0.00  0.00    -0.275 OA
ATOM      9  N   UNL     1       5.296  -1.901   0.000  0.00  0.00    -0.277 N 
ATOM     10  C   UNL     1       6.116  -1.815   0.000  0.00  0.00    +0.115 C 
ATOM     11  C   UNL     1       4.744  -1.288   0.000  0.00  0.00    +0.103 C 
ENDBRANCH   3   5
ENDBRANCH   1   2
BRANCH   1  13
ATOM     12  C   UNL     1       1.132  -2.449   0.000  0.00  0.00    +0.007 C 
ATOM     13  C   UNL     1       1.132  -1.624   0.000  0.00  0.00    +0.048 C 
BRANCH  13  14
ATOM     14  C   UNL     1       0.418  -1.211   0.000  0.00  0.00    +0.029 A 
ATOM     15  C   UNL     1       0.331  -0.391   0.000  0.00  0.00    +0.150 A 
ATOM     16  C   UNL     1       0.944   0.161   0.000  0.00  0.00    +0.075 C 
ATOM     17  O   UNL     1      -0.476  -0.219   0.000  0.00  0.00    -0.358 OA
ATOM     18  N   UNL     1      -0.888  -0.934   0.000  0.00  0.00    -0.082 NA
ATOM     19  C   UNL     1      -0.336  -1.547   0.000  0.00  0.00    +0.097 A 
ATOM     20  C   UNL     1      -0.508  -2.354   0.000  0.00  0.00    +0.055 C 
ENDBRANCH  13  14
ENDBRANCH   1  13
TORSDOF 4
