REMARK  Name = 
REMARK  2 active torsions:
REMARK  status: ('A' for Active; 'I' for Inactive)
REMARK    1  A    between atoms: N_5  and  C_6
REMARK    2  A    between atoms: C_6  and  C_7
REMARK                            x       y       z     vdW  Elec       q    Type
REMARK                         _______ _______ _______ _____ _____    ______ ____
ROOT
ATOM      1  C   UNL     1       0.884  -2.150   0.000  0.00  0.00    +0.135 C 
ATOM      2  N   UNL     1       1.139  -1.365   0.000  0.00  0.00    -0.278 N 
ATOM      3  C   UNL     1       1.923  -1.110   0.000  0.00  0.00    +0.080 A 
ATOM      4  C   UNL     1       1.923  -0.285   0.000  0.00  0.00    +0.080 A 
ATOM      5  C   UNL     1       2.638   0.127   0.000  0.00  0.00    +0.019 A 
ATOM      6  C   UNL     1       3.352  -0.285   0.000  0.00  0.00    +0.002 A 
ATOM      7  C   UNL     1       3.352  -1.110   0.000  0.00  0.00    +0.002 A 
ATOM      8  N   UNL     1       1.139  -0.030   0.000  0.00  0.00    -0.277 N 
ATOM      9  C   UNL     1       2.638  -1.523   0.000  0.00  0.00    +0.019 A 
ATOM     10  C   UNL     1       0.654  -0.698   0.000  0.00  0.00    +0.332 A 
ATOM     11  O   UNL     1      -0.171  -0.698   0.000  0.00  0.00    -0.246 OA
ENDROOT
BRANCH   8  12
ATOM     12  C   UNL     1       0.884   0.754   0.000  0.00  0.00    +0.141 C 
BRANCH  12  13
ATOM     13  C   UNL     1       0.077   0.926   0.000  0.00  0.00    +0.147 C 
ATOM     14  C   UNL     1      -0.623   1.363   0.000  0.00  0.00    +0.032 C 
ATOM     15  C   UNL     1      -1.351   0.976   0.000  0.00  0.00    +0.003 C 
ATOM     16  C   UNL     1      -1.380   0.151   0.000  0.00  0.00    +0.000 C 
ATOM     17  C   UNL     1      -0.680  -0.286   0.000  0.00  0.00    +0.003 C 
ATOM     18  C   UNL     1       0.048   0.101   0.000  0.00  0.00    +0.032 C 
ATOM     19  O   UNL     1       0.386   1.691   0.000  0.00  0.00    -0.224 OA
ENDBRANCH  12  13
ENDBRANCH   8  12
TORSDOF 2
