REMARK  Name = 
REMARK  2 active torsions:
REMARK  status: ('A' for Active; 'I' for Inactive)
REMARK    1  A    between atoms: C_1  and  N_2
REMARK    2  A    between atoms: C_1  and  C_9
REMARK                            x       y       z     vdW  Elec       q    Type
REMARK                         _______ _______ _______ _____ _____    ______ ____
ROOT
ATOM      1  C   UNL     1       0.715  -1.238   0.000  0.00  0.00    +0.145 C 
ENDROOT
BRANCH   1   2
ATOM      2  N   UNL     1       1.429  -1.650   0.000  0.00  0.00    -0.216 NA
ATOM      3  C   UNL     1       1.429  -2.475   0.000  0.00  0.00    +0.169 A 
ATOM      4  N   UNL     1       0.715  -2.888   0.000  0.00  0.00    -0.131 NA
ATOM      5  N   UNL     1       0.715  -3.712   0.000  0.00  0.00    -0.145 NA
ATOM      6  C   UNL     1       1.429  -4.125   0.000  0.00  0.00    +0.122 A 
ATOM      7  C   UNL     1       2.143  -3.712   0.000  0.00  0.00    +0.025 A 
ATOM      8  C   UNL     1       2.143  -2.888   0.000  0.00  0.00    +0.039 A 
ENDBRANCH   1   2
BRANCH   1   9
ATOM      9  C   UNL     1       0.715  -0.412   0.000  0.00  0.00    +0.154 C 
ATOM     10  O   UNL     1       1.429   0.000   0.000  0.00  0.00    -0.351 OA
ATOM     11  C   UNL     1       1.429   0.825   0.000  0.00  0.00    +0.161 C 
ATOM     12  C   UNL     1       0.715   1.238   0.000  0.00  0.00    +0.121 C 
ATOM     13  N   UNL     1       0.000   0.825   0.000  0.00  0.00    -0.213 NA
ATOM     14  C   UNL     1       0.000   0.000   0.000  0.00  0.00    +0.120 C 
ENDBRANCH   1   9
TORSDOF 2
