REMARK  Name = 
REMARK  3 active torsions:
REMARK  status: ('A' for Active; 'I' for Inactive)
REMARK    1  A    between atoms: C_7  and  N_8
REMARK    2  A    between atoms: N_11  and  C_12
REMARK    3  A    between atoms: N_15  and  S_18
REMARK                            x       y       z     vdW  Elec       q    Type
REMARK                         _______ _______ _______ _____ _____    ______ ____
ROOT
ATOM      1  N   UNL     1       1.429  -2.475   0.000  0.00  0.00    -0.142 NA
ATOM      2  C   UNL     1       1.429  -1.650   0.000  0.00  0.00    +0.345 C 
ATOM      3  N   UNL     1       0.715  -1.238   0.000  0.00  0.00    -0.189 NA
ATOM      4  O   UNL     1       2.143  -1.238   0.000  0.00  0.00    -0.249 OA
ENDROOT
BRANCH   1   7
ATOM      5  C   UNL     1       2.858  -1.650   0.000  0.00  0.00    +0.034 C 
ATOM      6  C   UNL     1       2.858  -2.475   0.000  0.00  0.00    +0.012 A 
ATOM      7  C   UNL     1       2.143  -2.888   0.000  0.00  0.00    +0.152 A 
ATOM      8  N   UNL     1       2.143  -3.712   0.000  0.00  0.00    -0.228 NA
ATOM      9  C   UNL     1       2.858  -4.125   0.000  0.00  0.00    +0.100 A 
ATOM     10  C   UNL     1       3.572  -3.712   0.000  0.00  0.00    +0.020 A 
ATOM     11  C   UNL     1       3.572  -2.888   0.000  0.00  0.00    +0.000 A 
ENDBRANCH   1   7
BRANCH   3  12
ATOM     12  C   UNL     1       0.715  -0.412   0.000  0.00  0.00    +0.100 C 
ATOM     13  C   UNL     1       1.429   0.000   0.000  0.00  0.00    +0.041 C 
ATOM     14  C   UNL     1       1.429   0.825   0.000  0.00  0.00    +0.097 C 
ATOM     15  N   UNL     1       0.715   1.238   0.000  0.00  0.00    -0.159 NA
ATOM     16  C   UNL     1       0.000   0.825   0.000  0.00  0.00    +0.097 C 
ATOM     17  C   UNL     1       0.000   0.000   0.000  0.00  0.00    +0.041 C 
BRANCH  15  18
ATOM     18  S   UNL     1       0.715   2.062   0.000  0.00  0.00    +0.046 S 
ATOM     19  C   UNL     1      -0.111   2.062   0.000  0.00  0.00    +0.196 C 
ATOM     20  O   UNL     1       1.540   2.062   0.000  0.00  0.00    -0.157 OA
ATOM     21  O   UNL     1       0.715   2.888   0.000  0.00  0.00    -0.157 OA
ENDBRANCH  15  18
ENDBRANCH   3  12
TORSDOF 3
