REMARK  Name = 
REMARK  7 active torsions:
REMARK  status: ('A' for Active; 'I' for Inactive)
REMARK    1  A    between atoms: C_2  and  C_3
REMARK    2  A    between atoms: C_2  and  C_12
REMARK    3  A    between atoms: C_3  and  N_4
REMARK    4  A    between atoms: N_4  and  C_5
REMARK    5  A    between atoms: C_5  and  C_6
REMARK    6  A    between atoms: C_6  and  N_7
REMARK    7  A    between atoms: C_12  and  N_13
REMARK                            x       y       z     vdW  Elec       q    Type
REMARK                         _______ _______ _______ _____ _____    ______ ____
ROOT
ATOM      1  O   UNL     1       4.287  -4.950   0.000  0.00  0.00    -0.220 OA
ATOM      2  C   UNL     1       4.287  -4.125   0.000  0.00  0.00    +0.185 C 
ENDROOT
BRANCH   2   3
ATOM      3  C   UNL     1       3.572  -3.712   0.000  0.00  0.00    +0.123 C 
BRANCH   3   4
ATOM      4  N   UNL     1       2.858  -4.125   0.000  0.00  0.00    -0.213 NA
BRANCH   4   5
ATOM      5  C   UNL     1       2.143  -3.712   0.000  0.00  0.00    +0.115 C 
BRANCH   5   6
ATOM      6  C   UNL     1       1.429  -4.125   0.000  0.00  0.00    +0.146 C 
BRANCH   6   7
ATOM      7  N   UNL     1       0.715  -3.712   0.000  0.00  0.00    -0.248 N 
ATOM      8  N   UNL     1       0.628  -2.892   0.000  0.00  0.00    -0.168 NA
ATOM      9  C   UNL     1      -0.179  -2.720   0.000  0.00  0.00    +0.122 A 
ATOM     10  C   UNL     1      -0.591  -3.435   0.000  0.00  0.00    +0.043 A 
ATOM     11  C   UNL     1      -0.039  -4.048   0.000  0.00  0.00    +0.097 A 
ENDBRANCH   6   7
ENDBRANCH   5   6
ENDBRANCH   4   5
ENDBRANCH   3   4
ENDBRANCH   2   3
BRANCH   2  12
ATOM     12  C   UNL     1       5.001  -3.712   0.000  0.00  0.00    +0.107 C 
BRANCH  12  13
ATOM     13  N   UNL     1       5.716  -4.125   0.000  0.00  0.00    -0.266 NA
ATOM     14  C   UNL     1       5.716  -4.950   0.000  0.00  0.00    +0.105 C 
ATOM     15  C   UNL     1       6.430  -5.362   0.000  0.00  0.00    +0.159 C 
ATOM     16  O   UNL     1       7.145  -4.950   0.000  0.00  0.00    -0.351 OA
ATOM     17  C   UNL     1       7.145  -4.125   0.000  0.00  0.00    +0.159 C 
ATOM     18  C   UNL     1       6.430  -3.712   0.000  0.00  0.00    +0.105 C 
ENDBRANCH  12  13
ENDBRANCH   2  12
TORSDOF 7
