REMARK  Name = 
REMARK  4 active torsions:
REMARK  status: ('A' for Active; 'I' for Inactive)
REMARK    1  A    between atoms: C_2  and  N_3
REMARK    2  A    between atoms: C_7  and  C_8
REMARK    3  A    between atoms: C_8  and  N_9
REMARK    4  A    between atoms: C_13  and  C_14
REMARK                            x       y       z     vdW  Elec       q    Type
REMARK                         _______ _______ _______ _____ _____    ______ ____
ROOT
ATOM      1  C   UNL     1       0.000  -4.125   0.000  0.00  0.00    +0.145 C 
ENDROOT
BRANCH   1   2
ATOM      2  N   UNL     1       0.000  -4.950   0.000  0.00  0.00    -0.218 NA
ATOM      3  C   UNL     1      -0.715  -5.362   0.000  0.00  0.00    +0.148 A 
ATOM      4  N   UNL     1      -1.429  -4.950   0.000  0.00  0.00    -0.227 NA
ATOM      5  C   UNL     1      -2.143  -5.362   0.000  0.00  0.00    +0.111 A 
ATOM      6  C   UNL     1      -2.143  -6.188   0.000  0.00  0.00    +0.088 A 
ATOM      7  C   UNL     1      -1.429  -6.600   0.000  0.00  0.00    +0.015 A 
ATOM      8  C   UNL     1      -0.715  -6.188   0.000  0.00  0.00    +0.036 A 
BRANCH   6   9
ATOM      9  C   UNL     1      -2.858  -6.600   0.000  0.00  0.00    +0.102 C 
ATOM     10  N   UNL     1      -3.572  -7.013   0.000  0.00  0.00    -0.191 NA
ENDBRANCH   6   9
ENDBRANCH   1   2
BRANCH   1  13
ATOM     11  N   UNL     1       1.429  -2.475   0.000  0.00  0.00    -0.268 NA
ATOM     12  C   UNL     1       0.715  -2.888   0.000  0.00  0.00    +0.104 C 
ATOM     13  C   UNL     1       0.715  -3.712   0.000  0.00  0.00    +0.153 C 
ATOM     14  O   UNL     1       1.429  -4.125   0.000  0.00  0.00    -0.352 OA
ATOM     15  C   UNL     1       2.143  -3.712   0.000  0.00  0.00    +0.159 C 
ATOM     16  C   UNL     1       2.143  -2.888   0.000  0.00  0.00    +0.105 C 
BRANCH  11  18
ATOM     17  C   UNL     1       2.143  -1.238   0.000  0.00  0.00    +0.019 C 
ATOM     18  C   UNL     1       1.429  -1.650   0.000  0.00  0.00    +0.072 C 
ENDBRANCH  11  18
ENDBRANCH   1  13
TORSDOF 4
