REMARK  Name = 
REMARK  3 active torsions:
REMARK  status: ('A' for Active; 'I' for Inactive)
REMARK    1  A    between atoms: C_2  and  C_4
REMARK    2  A    between atoms: C_4  and  N_5
REMARK    3  A    between atoms: C_7  and  N_8
REMARK                            x       y       z     vdW  Elec       q    Type
REMARK                         _______ _______ _______ _____ _____    ______ ____
ROOT
ATOM      1  N   UNL     1       1.624  -4.604   0.000  0.00  0.00    -0.159 NA
ATOM      2  C   UNL     1       2.444  -4.517   0.000  0.00  0.00    +0.328 C 
ATOM      3  N   UNL     1       2.929  -5.185   0.000  0.00  0.00    -0.263 N 
ATOM      4  C   UNL     1       2.538  -5.911   0.000  0.00  0.00    +0.095 C 
ATOM      5  C   UNL     1       2.863  -6.670   0.000  0.00  0.00    +0.022 C 
ATOM      6  C   UNL     1       3.658  -6.889   0.000  0.00  0.00    +0.002 C 
ATOM      7  C   UNL     1       4.325  -6.404   0.000  0.00  0.00    +0.002 C 
ATOM      8  C   UNL     1       4.362  -5.580   0.000  0.00  0.00    +0.022 C 
ATOM      9  C   UNL     1       3.741  -5.037   0.000  0.00  0.00    +0.095 C 
ATOM     10  O   UNL     1       2.780  -3.764   0.000  0.00  0.00    -0.250 OA
ENDROOT
BRANCH   1  14
ATOM     11  N   UNL     1       0.727  -2.667   0.000  0.00  0.00    -0.239 N 
ATOM     12  N   UNL     1       0.059  -3.151   0.000  0.00  0.00    -0.166 NA
ATOM     13  C   UNL     1       0.314  -3.936   0.000  0.00  0.00    +0.138 A 
ATOM     14  C   UNL     1       1.139  -3.936   0.000  0.00  0.00    +0.114 A 
ATOM     15  C   UNL     1       1.394  -3.151   0.000  0.00  0.00    +0.114 A 
BRANCH  11  16
ATOM     16  C   UNL     1       0.727  -1.842   0.000  0.00  0.00    +0.215 C 
BRANCH  16  18
ATOM     17  N   UNL     1       0.012  -0.604   0.000  0.00  0.00    -0.086 NA
ATOM     18  C   UNL     1       0.012  -1.429   0.000  0.00  0.00    +0.286 C 
ATOM     19  O   UNL     1      -0.703  -1.842   0.000  0.00  0.00    -0.269 OA
ENDBRANCH  16  18
ENDBRANCH  11  16
ENDBRANCH   1  14
TORSDOF 3
