REMARK  Name = 
REMARK  3 active torsions:
REMARK  status: ('A' for Active; 'I' for Inactive)
REMARK    1  A    between atoms: C_3  and  C_5
REMARK    2  A    between atoms: C_5  and  C_6
REMARK    3  A    between atoms: C_9  and  C_11
REMARK                            x       y       z     vdW  Elec       q    Type
REMARK                         _______ _______ _______ _____ _____    ______ ____
ROOT
ATOM      1  C   UNL     1       0.305  -1.301   0.000  0.00  0.00    +0.190 A 
ATOM      2  N   UNL     1      -0.362  -1.786   0.000  0.00  0.00    -0.194 NA
ATOM      3  C   UNL     1      -0.107  -2.571   0.000  0.00  0.00    +0.236 A 
ATOM      4  O   UNL     1       0.718  -2.571   0.000  0.00  0.00    -0.337 OA
ATOM      5  N   UNL     1       0.973  -1.786   0.000  0.00  0.00    -0.060 NA
ENDROOT
BRANCH   3   6
ATOM      6  C   UNL     1      -0.592  -3.238   0.000  0.00  0.00    +0.079 C 
ATOM      7  C   UNL     1      -1.404  -3.091   0.000  0.00  0.00    +0.009 C 
ATOM      8  C   UNL     1      -2.025  -3.634   0.000  0.00  0.00    +0.000 C 
ATOM      9  C   UNL     1      -1.988  -4.458   0.000  0.00  0.00    +0.000 C 
ATOM     10  C   UNL     1      -1.321  -4.943   0.000  0.00  0.00    +0.000 C 
ATOM     11  C   UNL     1      -0.525  -4.723   0.000  0.00  0.00    +0.000 C 
ATOM     12  C   UNL     1      -0.201  -3.965   0.000  0.00  0.00    +0.009 C 
ENDBRANCH   3   6
BRANCH   1  13
ATOM     13  C   UNL     1       0.305  -0.476   0.000  0.00  0.00    +0.156 C 
BRANCH  13  16
ATOM     14  C   UNL     1       1.734   1.174   0.000  0.00  0.00    +0.139 C 
ATOM     15  N   UNL     1       1.020   0.761   0.000  0.00  0.00    -0.203 NA
ATOM     16  C   UNL     1       1.020  -0.064   0.000  0.00  0.00    +0.249 C 
ATOM     17  O   UNL     1       1.734  -0.476   0.000  0.00  0.00    -0.273 OA
ENDBRANCH  13  16
ENDBRANCH   1  13
TORSDOF 3
