REMARK  Name = 
REMARK  1 active torsions:
REMARK  status: ('A' for Active; 'I' for Inactive)
REMARK    1  A    between atoms: C_7  and  C_8
REMARK                            x       y       z     vdW  Elec       q    Type
REMARK                         _______ _______ _______ _____ _____    ______ ____
ROOT
ATOM      1  C   UNL     1       0.589  -1.490   0.000  0.00  0.00    +0.240 A 
ATOM      2  N   UNL     1       0.843  -2.275   0.000  0.00  0.00    -0.092 NA
ATOM      3  N   UNL     1       1.670  -2.275   0.000  0.00  0.00    -0.021 NA
ATOM      4  N   UNL     1       1.924  -1.490   0.000  0.00  0.00    -0.042 NA
ATOM      5  N   UNL     1       1.256  -1.006   0.000  0.00  0.00    -0.200 N 
ATOM      6  C   UNL     1       1.256  -0.179   0.000  0.00  0.00    +0.159 C 
ATOM      7  N   UNL     1      -0.196  -1.236   0.000  0.00  0.00    -0.266 N 
ATOM      8  C   UNL     1      -0.868  -1.720   0.000  0.00  0.00    +0.127 C 
ATOM      9  C   UNL     1      -1.536  -1.236   0.000  0.00  0.00    +0.174 C 
ATOM     10  C   UNL     1      -1.281  -0.451   0.000  0.00  0.00    +0.066 C 
ATOM     11  O   UNL     1      -2.321  -1.490   0.000  0.00  0.00    -0.221 OA
ATOM     12  C   UNL     1      -0.455  -0.451   0.000  0.00  0.00    +0.182 C 
ENDROOT
BRANCH  12  13
ATOM     13  C   UNL     1       0.033   0.221   0.000  0.00  0.00    +0.383 C 
ATOM     14  O   UNL     1      -0.305   0.973   0.000  0.00  0.00    -0.244 OA
ATOM     15  O   UNL     1       0.856   0.134   0.000  0.00  0.00    -0.244 OA
ENDBRANCH  12  13
TORSDOF 1
