REMARK  Name = 
REMARK  4 active torsions:
REMARK  status: ('A' for Active; 'I' for Inactive)
REMARK    1  A    between atoms: S_2  and  N_5
REMARK    2  A    between atoms: N_5  and  C_6
REMARK    3  A    between atoms: C_6  and  C_7
REMARK    4  A    between atoms: C_7  and  C_8
REMARK                            x       y       z     vdW  Elec       q    Type
REMARK                         _______ _______ _______ _____ _____    ______ ____
ROOT
ATOM      1  C   UNL     1       1.256  -1.005   0.000  0.00  0.00    +0.069 A 
ATOM      2  N   UNL     1       0.589  -1.490   0.000  0.00  0.00    -0.228 NA
ATOM      3  C   UNL     1       0.844  -2.275   0.000  0.00  0.00    +0.163 A 
ATOM      4  N   UNL     1       0.359  -2.942   0.000  0.00  0.00    -0.288 N 
ATOM      5  C   UNL     1      -0.466  -2.942   0.000  0.00  0.00    +0.093 C 
ATOM      6  C   UNL     1      -0.721  -3.727   0.000  0.00  0.00    +0.023 C 
ATOM      7  C   UNL     1      -0.053  -4.212   0.000  0.00  0.00    +0.023 C 
ATOM      8  C   UNL     1       0.614  -3.727   0.000  0.00  0.00    +0.093 C 
ATOM      9  S   UNL     1       1.669  -2.275   0.000  0.00  0.00    -0.051 S 
ATOM     10  C   UNL     1       1.924  -1.490   0.000  0.00  0.00    +0.053 A 
ENDROOT
BRANCH   1  11
ATOM     11  C   UNL     1       1.256  -0.180   0.000  0.00  0.00    +0.067 C 
BRANCH  11  12
ATOM     12  C   UNL     1       1.971   0.232   0.000  0.00  0.00    +0.121 C 
BRANCH  12  13
ATOM     13  N   UNL     1       1.971   1.057   0.000  0.00  0.00    -0.082 NA
BRANCH  13  15
ATOM     14  C   UNL     1       3.400   1.882   0.000  0.00  0.00    +0.197 C 
ATOM     15  S   UNL     1       2.685   1.470   0.000  0.00  0.00    +0.059 S 
ATOM     16  O   UNL     1       3.098   0.755   0.000  0.00  0.00    -0.156 OA
ATOM     17  O   UNL     1       2.273   2.184   0.000  0.00  0.00    -0.156 OA
ENDBRANCH  13  15
ENDBRANCH  12  13
ENDBRANCH  11  12
ENDBRANCH   1  11
TORSDOF 4
