REMARK  Name = 
REMARK  7 active torsions:
REMARK  status: ('A' for Active; 'I' for Inactive)
REMARK    1  A    between atoms: C_2  and  C_3
REMARK    2  A    between atoms: C_3  and  C_4
REMARK    3  A    between atoms: C_3  and  C_6
REMARK    4  A    between atoms: C_3  and  C_16
REMARK    5  A    between atoms: C_6  and  N_7
REMARK    6  A    between atoms: C_8  and  C_10
REMARK    7  A    between atoms: C_10  and  N_11
REMARK                            x       y       z     vdW  Elec       q    Type
REMARK                         _______ _______ _______ _____ _____    ______ ____
ROOT
ATOM      1  C   UNL     1      -0.861   3.589   0.000  0.00  0.00    +0.126 C 
ENDROOT
BRANCH   1   2
ATOM      2  N   UNL     1      -0.147   3.177   0.000  0.00  0.00    -0.203 NA
ATOM      3  C   UNL     1      -0.147   2.352   0.000  0.00  0.00    +0.266 C 
ATOM      4  O   UNL     1      -0.861   1.939   0.000  0.00  0.00    -0.271 OA
BRANCH   3   5
ATOM      5  C   UNL     1       0.568   1.939   0.000  0.00  0.00    +0.214 C 
BRANCH   5   6
ATOM      6  N   UNL     1       0.568   1.114   0.000  0.00  0.00    -0.240 N 
ATOM      7  N   UNL     1      -0.100   0.629   0.000  0.00  0.00    -0.167 NA
ATOM      8  C   UNL     1       0.155  -0.155   0.000  0.00  0.00    +0.122 A 
ATOM      9  C   UNL     1       0.980  -0.155   0.000  0.00  0.00    +0.043 A 
ATOM     10  C   UNL     1       1.235   0.629   0.000  0.00  0.00    +0.097 A 
ENDBRANCH   5   6
ENDBRANCH   3   5
ENDBRANCH   1   2
BRANCH   1  11
ATOM     11  C   UNL     1      -0.861   4.414   0.000  0.00  0.00    +0.114 C 
BRANCH  11  12
ATOM     12  C   UNL     1      -0.036   4.414   0.000  0.00  0.00    +0.365 C 
ATOM     13  O   UNL     1       0.376   5.129   0.000  0.00  0.00    -0.246 OA
ATOM     14  O   UNL     1       0.376   3.700   0.000  0.00  0.00    -0.246 OA
ENDBRANCH  11  12
BRANCH  11  16
ATOM     15  C   UNL     1      -1.576   5.652   0.000  0.00  0.00    +0.001 C 
ATOM     16  C   UNL     1      -0.861   5.239   0.000  0.00  0.00    +0.012 C 
ENDBRANCH  11  16
BRANCH  11  17
ATOM     17  C   UNL     1      -1.686   4.414   0.000  0.00  0.00    +0.012 C 
ATOM     18  C   UNL     1      -2.099   3.700   0.000  0.00  0.00    +0.001 C 
ENDBRANCH  11  17
ENDBRANCH   1  11
TORSDOF 7
