REMARK  Name = 
REMARK  6 active torsions:
REMARK  status: ('A' for Active; 'I' for Inactive)
REMARK    1  A    between atoms: N_7  and  C_8
REMARK    2  A    between atoms: C_8  and  C_9
REMARK    3  A    between atoms: C_9  and  C_10
REMARK    4  A    between atoms: C_10  and  N_11
REMARK    5  A    between atoms: C_12  and  C_14
REMARK    6  A    between atoms: C_14  and  N_15
REMARK                            x       y       z     vdW  Elec       q    Type
REMARK                         _______ _______ _______ _____ _____    ______ ____
ROOT
ATOM      1  C   UNL     1       3.572  -0.412   0.000  0.00  0.00    +0.117 C 
ENDROOT
BRANCH   1   2
ATOM      2  N   UNL     1       4.287   0.000   0.000  0.00  0.00    -0.204 NA
ATOM      3  C   UNL     1       5.001  -0.412   0.000  0.00  0.00    +0.266 C 
ATOM      4  O   UNL     1       5.001  -1.238   0.000  0.00  0.00    -0.271 OA
BRANCH   3   5
ATOM      5  C   UNL     1       5.716   0.000   0.000  0.00  0.00    +0.217 C 
BRANCH   5   6
ATOM      6  N   UNL     1       6.430  -0.412   0.000  0.00  0.00    -0.201 N 
ATOM      7  N   UNL     1       6.516  -1.233   0.000  0.00  0.00    -0.042 NA
ATOM      8  N   UNL     1       7.323  -1.405   0.000  0.00  0.00    -0.023 NA
ATOM      9  N   UNL     1       7.736  -0.690   0.000  0.00  0.00    -0.105 NA
ATOM     10  C   UNL     1       7.184  -0.077   0.000  0.00  0.00    +0.222 A 
ENDBRANCH   5   6
ENDBRANCH   3   5
ENDBRANCH   1   2
BRANCH   1  11
ATOM     11  C   UNL     1       2.858   0.000   0.000  0.00  0.00    +0.041 C 
BRANCH  11  12
ATOM     12  C   UNL     1       2.143  -0.412   0.000  0.00  0.00    +0.074 C 
BRANCH  12  15
ATOM     13  C   UNL     1       0.715  -1.238   0.000  0.00  0.00    +0.017 C 
ATOM     14  C   UNL     1       0.715  -0.412   0.000  0.00  0.00    +0.058 C 
ATOM     15  N   UNL     1       1.429   0.000   0.000  0.00  0.00    -0.274 NA
ATOM     16  C   UNL     1       1.429   0.825   0.000  0.00  0.00    +0.072 C 
ATOM     17  C   UNL     1       0.715   1.238   0.000  0.00  0.00    +0.017 C 
ATOM     18  C   UNL     1       0.000   0.825   0.000  0.00  0.00    +0.003 C 
ATOM     19  C   UNL     1       0.000   0.000   0.000  0.00  0.00    +0.016 C 
ENDBRANCH  12  15
ENDBRANCH  11  12
ENDBRANCH   1  11
TORSDOF 6
