REMARK  Name = 
REMARK  5 active torsions:
REMARK  status: ('A' for Active; 'I' for Inactive)
REMARK    1  A    between atoms: C_2  and  C_5
REMARK    2  A    between atoms: C_8  and  N_9
REMARK    3  A    between atoms: N_12  and  C_13
REMARK    4  A    between atoms: C_13  and  C_15
REMARK    5  A    between atoms: C_13  and  C_17
REMARK                            x       y       z     vdW  Elec       q    Type
REMARK                         _______ _______ _______ _____ _____    ______ ____
ROOT
ATOM      1  N   UNL     1       3.555   6.855   0.000  0.00  0.00    -0.158 NA
ATOM      2  C   UNL     1       2.730   6.855   0.000  0.00  0.00    +0.344 C 
ATOM      3  N   UNL     1       2.318   6.141   0.000  0.00  0.00    -0.188 NA
ATOM      4  O   UNL     1       2.318   7.570   0.000  0.00  0.00    -0.249 OA
ENDROOT
BRANCH   1   8
ATOM      5  C   UNL     1       4.793   8.999   0.000  0.00  0.00    +0.138 A 
ATOM      6  N   UNL     1       3.968   8.999   0.000  0.00  0.00    -0.228 NA
ATOM      7  C   UNL     1       3.555   8.284   0.000  0.00  0.00    +0.118 A 
ATOM      8  C   UNL     1       3.968   7.570   0.000  0.00  0.00    +0.113 A 
ATOM      9  C   UNL     1       4.793   7.570   0.000  0.00  0.00    +0.118 A 
ATOM     10  N   UNL     1       5.205   8.284   0.000  0.00  0.00    -0.228 NA
BRANCH   5  12
ATOM     11  C   UNL     1       5.618  10.428   0.000  0.00  0.00    +0.008 C 
ATOM     12  C   UNL     1       5.205   9.713   0.000  0.00  0.00    +0.052 C 
ATOM     13  C   UNL     1       5.920   9.301   0.000  0.00  0.00    +0.008 C 
ATOM     14  C   UNL     1       4.491  10.126   0.000  0.00  0.00    +0.008 C 
ENDBRANCH   5  12
ENDBRANCH   1   8
BRANCH   3  15
ATOM     15  C   UNL     1       1.493   6.141   0.000  0.00  0.00    +0.111 C 
ATOM     16  C   UNL     1       1.493   6.966   0.000  0.00  0.00    +0.024 C 
BRANCH  15  17
ATOM     17  C   UNL     1       1.493   5.316   0.000  0.00  0.00    +0.021 C 
ATOM     18  C   UNL     1       1.080   4.601   0.000  0.00  0.00    +0.002 C 
ATOM     19  C   UNL     1       1.905   4.601   0.000  0.00  0.00    +0.002 C 
ENDBRANCH  15  17
BRANCH  15  20
ATOM     20  C   UNL     1       0.668   6.141   0.000  0.00  0.00    +0.202 C 
ATOM     21  O   UNL     1       0.255   5.426   0.000  0.00  0.00    -0.219 OA
ENDBRANCH  15  20
ENDBRANCH   3  15
TORSDOF 5
