REMARK  Name = 
REMARK  6 active torsions:
REMARK  status: ('A' for Active; 'I' for Inactive)
REMARK    1  A    between atoms: C_2  and  C_3
REMARK    2  A    between atoms: C_2  and  N_7
REMARK    3  A    between atoms: C_3  and  C_4
REMARK    4  A    between atoms: N_7  and  C_8
REMARK    5  A    between atoms: C_8  and  C_9
REMARK    6  A    between atoms: C_9  and  N_10
REMARK                            x       y       z     vdW  Elec       q    Type
REMARK                         _______ _______ _______ _____ _____    ______ ____
ROOT
ATOM      1  C   UNL     1       5.307  -3.364   0.000  0.00  0.00    +0.115 C 
ENDROOT
BRANCH   1   2
ATOM      2  N   UNL     1       4.592  -2.952   0.000  0.00  0.00    -0.217 NA
BRANCH   2   4
ATOM      3  C   UNL     1       3.878  -4.189   0.000  0.00  0.00    +0.019 C 
ATOM      4  C   UNL     1       3.878  -3.364   0.000  0.00  0.00    +0.082 C 
BRANCH   4   5
ATOM      5  C   UNL     1       3.163  -2.952   0.000  0.00  0.00    +0.106 C 
BRANCH   5   6
ATOM      6  C   UNL     1       2.449  -3.364   0.000  0.00  0.00    +0.262 C 
ATOM      7  N   UNL     1       2.449  -4.189   0.000  0.00  0.00    -0.088 NA
ATOM      8  O   UNL     1       1.734  -2.952   0.000  0.00  0.00    -0.272 OA
ENDBRANCH   5   6
ENDBRANCH   4   5
ENDBRANCH   2   4
ENDBRANCH   1   2
BRANCH   1   9
ATOM      9  C   UNL     1       6.021  -2.952   0.000  0.00  0.00    +0.146 C 
BRANCH   9  10
ATOM     10  N   UNL     1       6.736  -3.364   0.000  0.00  0.00    -0.248 N 
ATOM     11  N   UNL     1       6.822  -4.185   0.000  0.00  0.00    -0.168 NA
ATOM     12  C   UNL     1       7.629  -4.356   0.000  0.00  0.00    +0.117 A 
ATOM     13  C   UNL     1       8.041  -3.642   0.000  0.00  0.00    +0.018 A 
ATOM     14  C   UNL     1       8.862  -3.556   0.000  0.00  0.00    +0.034 C 
ATOM     15  C   UNL     1       7.489  -3.029   0.000  0.00  0.00    +0.092 A 
ENDBRANCH   9  10
ENDBRANCH   1   9
TORSDOF 6
