REMARK  Name = 
REMARK  4 active torsions:
REMARK  status: ('A' for Active; 'I' for Inactive)
REMARK    1  A    between atoms: N_1  and  C_7
REMARK    2  A    between atoms: N_2  and  C_10
REMARK    3  A    between atoms: C_7  and  C_9
REMARK    4  A    between atoms: C_8  and  C_9
REMARK                            x       y       z     vdW  Elec       q    Type
REMARK                         _______ _______ _______ _____ _____    ______ ____
ROOT
ATOM      1  N   UNL     1       2.033   4.350   0.000  0.00  0.00    -0.244 N 
ATOM      2  C   UNL     1       2.750   4.763   0.000  0.00  0.00    +0.293 A 
ATOM      3  O   UNL     1       2.750   5.588   0.000  0.00  0.00    -0.264 OA
ATOM      4  C   UNL     1       3.462   4.350   0.000  0.00  0.00    +0.213 A 
ATOM      5  C   UNL     1       3.462   3.529   0.000  0.00  0.00    +0.116 A 
ATOM      6  N   UNL     1       2.750   3.117   0.000  0.00  0.00    -0.255 N 
ATOM      7  F   UNL     1       4.179   4.763   0.000  0.00  0.00    -0.198 F 
ATOM      8  C   UNL     1       2.033   3.529   0.000  0.00  0.00    +0.336 A 
ATOM      9  O   UNL     1       1.321   3.117   0.000  0.00  0.00    -0.246 OA
ENDROOT
BRANCH   6  10
ATOM     10  C   UNL     1       2.750   2.292   0.000  0.00  0.00    +0.208 C 
ATOM     11  C   UNL     1       3.417   1.808   0.000  0.00  0.00    +0.057 C 
ATOM     12  C   UNL     1       3.163   1.021   0.000  0.00  0.00    +0.037 C 
ATOM     13  C   UNL     1       2.337   1.021   0.000  0.00  0.00    +0.144 C 
ATOM     14  O   UNL     1       2.083   1.808   0.000  0.00  0.00    -0.335 OA
ENDBRANCH   6  10
BRANCH   1  15
ATOM     15  C   UNL     1       1.321   4.763   0.000  0.00  0.00    +0.155 C 
BRANCH  15  16
ATOM     16  C   UNL     1       1.321   5.588   0.000  0.00  0.00    +0.269 C 
ATOM     17  O   UNL     1       2.033   6.000   0.000  0.00  0.00    -0.212 OA
BRANCH  16  18
ATOM     18  C   UNL     1       0.604   6.000   0.000  0.00  0.00    +0.427 C 
ATOM     19  F   UNL     1       0.192   5.287   0.000  0.00  0.00    -0.167 F 
ATOM     20  F   UNL     1       1.017   6.717   0.000  0.00  0.00    -0.167 F 
ATOM     21  F   UNL     1      -0.108   6.412   0.000  0.00  0.00    -0.167 F 
ENDBRANCH  16  18
ENDBRANCH  15  16
ENDBRANCH   1  15
TORSDOF 4
