REMARK  Name = 
REMARK  6 active torsions:
REMARK  status: ('A' for Active; 'I' for Inactive)
REMARK    1  A    between atoms: O_2  and  C_3
REMARK    2  A    between atoms: C_3  and  C_4
REMARK    3  A    between atoms: C_4  and  O_5
REMARK    4  A    between atoms: O_5  and  C_6
REMARK    5  A    between atoms: C_9  and  N_10
REMARK    6  A    between atoms: C_11  and  C_13
REMARK                            x       y       z     vdW  Elec       q    Type
REMARK                         _______ _______ _______ _____ _____    ______ ____
ROOT
ATOM      1  C   UNL     1       3.572  -2.888   0.000  0.00  0.00    +0.225 A 
ATOM      2  N   UNL     1       3.572  -3.712   0.000  0.00  0.00    -0.209 NA
ATOM      3  C   UNL     1       4.287  -4.125   0.000  0.00  0.00    +0.119 A 
ATOM      4  C   UNL     1       5.001  -3.712   0.000  0.00  0.00    +0.093 A 
ATOM      5  C   UNL     1       5.001  -2.888   0.000  0.00  0.00    +0.023 A 
ATOM      6  C   UNL     1       4.287  -2.475   0.000  0.00  0.00    +0.059 A 
ENDROOT
BRANCH   4   7
ATOM      7  N   UNL     1       5.716  -4.125   0.000  0.00  0.00    -0.176 NA
ATOM      8  C   UNL     1       6.430  -3.712   0.000  0.00  0.00    +0.273 C 
ATOM      9  O   UNL     1       6.430  -2.888   0.000  0.00  0.00    -0.270 OA
BRANCH   8  10
ATOM     10  C   UNL     1       7.145  -4.125   0.000  0.00  0.00    +0.193 C 
ATOM     11  O   UNL     1       7.231  -4.946   0.000  0.00  0.00    -0.347 OA
ATOM     12  C   UNL     1       8.038  -5.117   0.000  0.00  0.00    +0.143 C 
ATOM     13  C   UNL     1       8.450  -4.402   0.000  0.00  0.00    +0.035 C 
ATOM     14  C   UNL     1       7.898  -3.789   0.000  0.00  0.00    +0.042 C 
ENDBRANCH   8  10
ENDBRANCH   4   7
BRANCH   1  15
ATOM     15  O   UNL     1       2.858  -2.475   0.000  0.00  0.00    -0.457 OA
BRANCH  15  16
ATOM     16  C   UNL     1       2.143  -2.888   0.000  0.00  0.00    +0.239 C 
BRANCH  16  17
ATOM     17  C   UNL     1       1.429  -2.475   0.000  0.00  0.00    +0.189 C 
BRANCH  17  19
ATOM     18  C   UNL     1       0.000  -2.475   0.000  0.00  0.00    +0.174 C 
ATOM     19  O   UNL     1       0.715  -2.888   0.000  0.00  0.00    -0.347 OA
ENDBRANCH  17  19
ENDBRANCH  16  17
ENDBRANCH  15  16
ENDBRANCH   1  15
TORSDOF 6
