REMARK  Name = 
REMARK  5 active torsions:
REMARK  status: ('A' for Active; 'I' for Inactive)
REMARK    1  A    between atoms: C_6  and  N_7
REMARK    2  A    between atoms: N_10  and  C_11
REMARK    3  A    between atoms: C_11  and  C_16
REMARK    4  A    between atoms: N_18  and  C_19
REMARK    5  A    between atoms: C_19  and  C_20
REMARK                            x       y       z     vdW  Elec       q    Type
REMARK                         _______ _______ _______ _____ _____    ______ ____
ROOT
ATOM      1  C   UNL     1       4.593   8.639   0.000  0.00  0.00    +0.150 C 
ATOM      2  C   UNL     1       5.206   9.191   0.000  0.00  0.00    +0.029 C 
ATOM      3  C   UNL     1       5.920   8.778   0.000  0.00  0.00    +0.002 C 
ATOM      4  C   UNL     1       5.749   7.971   0.000  0.00  0.00    +0.002 C 
ATOM      5  C   UNL     1       4.928   7.885   0.000  0.00  0.00    +0.029 C 
ENDROOT
BRANCH   1   8
ATOM      6  N   UNL     1       3.958  10.727   0.000  0.00  0.00    -0.159 NA
ATOM      7  C   UNL     1       4.443  10.060   0.000  0.00  0.00    +0.344 C 
ATOM      8  N   UNL     1       4.108   9.306   0.000  0.00  0.00    -0.181 NA
ATOM      9  O   UNL     1       5.264  10.146   0.000  0.00  0.00    -0.249 OA
BRANCH   6  13
ATOM     10  C   UNL     1       3.660  13.570   0.000  0.00  0.00    +0.033 C 
ATOM     11  C   UNL     1       4.144  12.902   0.000  0.00  0.00    -0.001 A 
ATOM     12  C   UNL     1       3.809  12.149   0.000  0.00  0.00    +0.016 A 
ATOM     13  C   UNL     1       4.294  11.481   0.000  0.00  0.00    +0.094 A 
ATOM     14  C   UNL     1       5.114  11.567   0.000  0.00  0.00    +0.115 A 
ATOM     15  N   UNL     1       5.450  12.321   0.000  0.00  0.00    -0.241 NA
ATOM     16  C   UNL     1       4.965  12.989   0.000  0.00  0.00    +0.095 A 
ENDBRANCH   6  13
ENDBRANCH   1   8
BRANCH   1  17
ATOM     17  C   UNL     1       3.878   8.226   0.000  0.00  0.00    +0.259 C 
ATOM     18  N   UNL     1       3.878   7.402   0.000  0.00  0.00    -0.204 NA
ATOM     19  O   UNL     1       3.164   8.639   0.000  0.00  0.00    -0.272 OA
BRANCH  18  20
ATOM     20  C   UNL     1       4.593   6.989   0.000  0.00  0.00    +0.115 C 
BRANCH  20  21
ATOM     21  C   UNL     1       4.593   6.164   0.000  0.00  0.00    +0.022 C 
ATOM     22  C   UNL     1       4.180   5.449   0.000  0.00  0.00    +0.002 C 
ATOM     23  C   UNL     1       5.005   5.449   0.000  0.00  0.00    +0.002 C 
ENDBRANCH  20  21
ENDBRANCH  18  20
ENDBRANCH   1  17
TORSDOF 5
