REMARK  Name = 
REMARK  4 active torsions:
REMARK  status: ('A' for Active; 'I' for Inactive)
REMARK    1  A    between atoms: C_2  and  C_3
REMARK    2  A    between atoms: C_2  and  N_9
REMARK    3  A    between atoms: C_3  and  N_4
REMARK    4  A    between atoms: C_10  and  C_12
REMARK                            x       y       z     vdW  Elec       q    Type
REMARK                         _______ _______ _______ _____ _____    ______ ____
ROOT
ATOM      1  N   UNL     1       0.715  -2.062   0.000  0.00  0.00    -0.205 NA
ATOM      2  C   UNL     1       1.429  -2.475   0.000  0.00  0.00    +0.243 C 
ATOM      3  O   UNL     1       1.429  -3.300   0.000  0.00  0.00    -0.273 OA
ENDROOT
BRANCH   2   4
ATOM      4  C   UNL     1       2.143  -2.062   0.000  0.00  0.00    +0.098 C 
ATOM      5  C   UNL     1       2.858  -2.475   0.000  0.00  0.00    +0.104 C 
ATOM      6  N   UNL     1       3.572  -2.062   0.000  0.00  0.00    -0.261 N 
ATOM      7  C   UNL     1       4.287  -2.475   0.000  0.00  0.00    +0.343 C 
ATOM      8  N   UNL     1       4.287  -3.300   0.000  0.00  0.00    -0.069 NA
ATOM      9  O   UNL     1       5.001  -2.062   0.000  0.00  0.00    -0.249 OA
ATOM     10  C   UNL     1       3.572  -1.238   0.000  0.00  0.00    +0.095 C 
ATOM     11  C   UNL     1       2.858  -0.825   0.000  0.00  0.00    +0.022 C 
ATOM     12  C   UNL     1       2.143  -1.238   0.000  0.00  0.00    +0.013 C 
ENDBRANCH   2   4
BRANCH   1  14
ATOM     13  C   UNL     1       0.000  -3.300   0.000  0.00  0.00    +0.026 C 
ATOM     14  C   UNL     1       0.000  -2.475   0.000  0.00  0.00    +0.120 C 
BRANCH  14  15
ATOM     15  C   UNL     1      -0.715  -2.062   0.000  0.00  0.00    +0.149 C 
BRANCH  15  16
ATOM     16  N   UNL     1      -1.429  -2.475   0.000  0.00  0.00    -0.248 N 
ATOM     17  N   UNL     1      -2.183  -2.139   0.000  0.00  0.00    -0.168 NA
ATOM     18  C   UNL     1      -2.735  -2.752   0.000  0.00  0.00    +0.122 A 
ATOM     19  C   UNL     1      -2.322  -3.467   0.000  0.00  0.00    +0.043 A 
ATOM     20  C   UNL     1      -1.515  -3.296   0.000  0.00  0.00    +0.097 A 
ENDBRANCH  15  16
ENDBRANCH  14  15
ENDBRANCH   1  14
TORSDOF 4
