REMARK  Name = 
REMARK  3 active torsions:
REMARK  status: ('A' for Active; 'I' for Inactive)
REMARK    1  A    between atoms: N_1  and  C_9
REMARK    2  A    between atoms: N_2  and  C_11
REMARK    3  A    between atoms: C_8  and  C_9
REMARK                            x       y       z     vdW  Elec       q    Type
REMARK                         _______ _______ _______ _____ _____    ______ ____
ROOT
ATOM      1  N   UNL     1      -0.179  -3.102   0.000  0.00  0.00    -0.238 N 
ATOM      2  C   UNL     1       0.371  -3.714   0.000  0.00  0.00    +0.294 A 
ATOM      3  O   UNL     1       1.178  -3.543   0.000  0.00  0.00    -0.264 OA
ATOM      4  C   UNL     1       0.117  -4.497   0.000  0.00  0.00    +0.213 A 
ATOM      5  F   UNL     1       0.670  -5.113   0.000  0.00  0.00    -0.198 F 
ATOM      6  C   UNL     1      -0.691  -4.672   0.000  0.00  0.00    +0.116 A 
ATOM      7  N   UNL     1      -1.241  -4.056   0.000  0.00  0.00    -0.255 N 
ATOM      8  C   UNL     1      -0.987  -3.273   0.000  0.00  0.00    +0.336 A 
ATOM      9  O   UNL     1      -1.536  -2.661   0.000  0.00  0.00    -0.246 OA
ENDROOT
BRANCH   7  10
ATOM     10  C   UNL     1      -2.049  -4.231   0.000  0.00  0.00    +0.208 C 
ATOM     11  C   UNL     1      -2.382  -4.984   0.000  0.00  0.00    +0.057 C 
ATOM     12  C   UNL     1      -3.202  -4.897   0.000  0.00  0.00    +0.037 C 
ATOM     13  C   UNL     1      -3.373  -4.089   0.000  0.00  0.00    +0.144 C 
ATOM     14  O   UNL     1      -2.661  -3.677   0.000  0.00  0.00    -0.335 OA
ENDBRANCH   7  10
BRANCH   1  15
ATOM     15  C   UNL     1       0.075  -2.319   0.000  0.00  0.00    +0.199 C 
BRANCH  15  16
ATOM     16  C   UNL     1       0.883  -2.149   0.000  0.00  0.00    +0.253 C 
ATOM     17  O   UNL     1       1.432  -2.761   0.000  0.00  0.00    -0.272 OA
ATOM     18  N   UNL     1       1.137  -1.362   0.000  0.00  0.00    -0.257 N 
ATOM     19  C   UNL     1       0.650  -0.695   0.000  0.00  0.00    +0.103 C 
ATOM     20  C   UNL     1       1.137  -0.029   0.000  0.00  0.00    +0.049 C 
ATOM     21  C   UNL     1       1.919  -0.283   0.000  0.00  0.00    -0.007 A 
ATOM     22  C   UNL     1       2.636   0.129   0.000  0.00  0.00    -0.003 A 
ATOM     23  C   UNL     1       3.348  -0.283   0.000  0.00  0.00    -0.000 A 
ATOM     24  C   UNL     1       3.348  -1.108   0.000  0.00  0.00    +0.001 A 
ATOM     25  C   UNL     1       2.636  -1.520   0.000  0.00  0.00    +0.015 A 
ATOM     26  C   UNL     1       1.919  -1.108   0.000  0.00  0.00    +0.050 A 
ENDBRANCH  15  16
ENDBRANCH   1  15
TORSDOF 3
