REMARK  Name = 
REMARK  4 active torsions:
REMARK  status: ('A' for Active; 'I' for Inactive)
REMARK    1  A    between atoms: N_1  and  C_8
REMARK    2  A    between atoms: C_6  and  N_10
REMARK    3  A    between atoms: N_10  and  C_13
REMARK    4  A    between atoms: C_13  and  C_14
REMARK                            x       y       z     vdW  Elec       q    Type
REMARK                         _______ _______ _______ _____ _____    ______ ____
ROOT
ATOM      1  N   UNL     1       1.779  -0.254   0.000  0.00  0.00    -0.272 N 
ATOM      2  C   UNL     1       1.292   0.412   0.000  0.00  0.00    +0.182 A 
ATOM      3  N   UNL     1       1.779   1.083   0.000  0.00  0.00    -0.219 NA
ATOM      4  C   UNL     1       2.562   0.825   0.000  0.00  0.00    +0.150 A 
ATOM      5  C   UNL     1       3.275   1.238   0.000  0.00  0.00    +0.170 A 
ATOM      6  N   UNL     1       3.992   0.825   0.000  0.00  0.00    -0.206 NA
ATOM      7  C   UNL     1       3.992   0.000   0.000  0.00  0.00    +0.202 A 
ATOM      8  N   UNL     1       3.275  -0.412   0.000  0.00  0.00    -0.205 NA
ATOM      9  C   UNL     1       2.562   0.000   0.000  0.00  0.00    +0.169 A 
ENDROOT
BRANCH   1  10
ATOM     10  C   UNL     1       1.521  -1.038   0.000  0.00  0.00    +0.207 C 
ATOM     11  C   UNL     1       2.075  -1.650   0.000  0.00  0.00    +0.054 C 
ATOM     12  C   UNL     1       1.821  -2.433   0.000  0.00  0.00    +0.007 C 
ATOM     13  C   UNL     1       1.012  -2.608   0.000  0.00  0.00    +0.032 C 
ATOM     14  C   UNL     1       0.463  -1.992   0.000  0.00  0.00    +0.144 C 
ATOM     15  O   UNL     1       0.717  -1.208   0.000  0.00  0.00    -0.335 OA
ENDBRANCH   1  10
BRANCH   5  16
ATOM     16  N   UNL     1       3.275   2.062   0.000  0.00  0.00    -0.214 NA
BRANCH  16  17
ATOM     17  C   UNL     1       2.562   2.475   0.000  0.00  0.00    +0.140 C 
BRANCH  17  18
ATOM     18  C   UNL     1       2.562   3.300   0.000  0.00  0.00    -0.001 A 
ATOM     19  C   UNL     1       3.275   3.712   0.000  0.00  0.00    -0.003 A 
ATOM     20  C   UNL     1       3.275   4.533   0.000  0.00  0.00    -0.000 A 
ATOM     21  C   UNL     1       2.562   4.950   0.000  0.00  0.00    -0.000 A 
ATOM     22  C   UNL     1       1.850   4.533   0.000  0.00  0.00    -0.000 A 
ATOM     23  C   UNL     1       1.850   3.712   0.000  0.00  0.00    -0.003 A 
ENDBRANCH  17  18
ENDBRANCH  16  17
ENDBRANCH   5  16
TORSDOF 4
