REMARK  Name = 
REMARK  2 active torsions:
REMARK  status: ('A' for Active; 'I' for Inactive)
REMARK    1  A    between atoms: C_7  and  N_8
REMARK    2  A    between atoms: C_9  and  C_11
REMARK                            x       y       z     vdW  Elec       q    Type
REMARK                         _______ _______ _______ _____ _____    ______ ____
ROOT
ATOM      1  N   UNL     1       3.466   1.176   0.000  0.00  0.00    -0.155 NA
ATOM      2  C   UNL     1       4.180   0.763   0.000  0.00  0.00    +0.274 C 
ATOM      3  O   UNL     1       4.895   1.176   0.000  0.00  0.00    -0.270 OA
ENDROOT
BRANCH   1   6
ATOM      4  O   UNL     1       2.037   2.001   0.000  0.00  0.00    -0.284 OA
ATOM      5  C   UNL     1       2.751   2.413   0.000  0.00  0.00    +0.229 A 
ATOM      6  C   UNL     1       3.466   2.001   0.000  0.00  0.00    +0.194 A 
ATOM      7  N   UNL     1       4.180   2.413   0.000  0.00  0.00    -0.224 NA
ATOM      8  C   UNL     1       4.180   3.238   0.000  0.00  0.00    +0.101 A 
ATOM      9  C   UNL     1       3.466   3.651   0.000  0.00  0.00    +0.024 A 
ATOM     10  C   UNL     1       2.751   3.238   0.000  0.00  0.00    +0.047 A 
ENDBRANCH   1   6
BRANCH   2  11
ATOM     11  C   UNL     1       4.180  -0.062   0.000  0.00  0.00    +0.193 C 
ATOM     12  O   UNL     1       3.513  -0.546   0.000  0.00  0.00    -0.347 OA
ATOM     13  C   UNL     1       3.768  -1.331   0.000  0.00  0.00    +0.143 C 
ATOM     14  C   UNL     1       4.593  -1.331   0.000  0.00  0.00    +0.035 C 
ATOM     15  C   UNL     1       4.848  -0.546   0.000  0.00  0.00    +0.042 C 
ENDBRANCH   2  11
TORSDOF 2
