REMARK  Name = 
REMARK  5 active torsions:
REMARK  status: ('A' for Active; 'I' for Inactive)
REMARK    1  A    between atoms: C_2  and  C_4
REMARK    2  A    between atoms: N_10  and  C_11
REMARK    3  A    between atoms: C_11  and  C_12
REMARK    4  A    between atoms: C_12  and  O_13
REMARK    5  A    between atoms: O_13  and  C_14
REMARK                            x       y       z     vdW  Elec       q    Type
REMARK                         _______ _______ _______ _____ _____    ______ ____
ROOT
ATOM      1  C   UNL     1       2.858  -2.475   0.000  0.00  0.00    +0.143 A 
ATOM      2  N   UNL     1       2.143  -2.888   0.000  0.00  0.00    -0.286 N 
ATOM      3  C   UNL     1       2.143  -3.712   0.000  0.00  0.00    +0.261 A 
ATOM      4  O   UNL     1       1.429  -4.125   0.000  0.00  0.00    -0.267 OA
ATOM      5  C   UNL     1       2.858  -4.125   0.000  0.00  0.00    +0.061 A 
ATOM      6  C   UNL     1       3.572  -3.712   0.000  0.00  0.00    +0.007 A 
ATOM      7  C   UNL     1       3.572  -2.888   0.000  0.00  0.00    +0.024 A 
ENDROOT
BRANCH   1   9
ATOM      8  O   UNL     1       3.572  -1.238   0.000  0.00  0.00    -0.239 OA
ATOM      9  C   UNL     1       2.858  -1.650   0.000  0.00  0.00    +0.403 C 
ATOM     10  O   UNL     1       2.143  -1.238   0.000  0.00  0.00    -0.239 OA
ENDBRANCH   1   9
BRANCH   2  11
ATOM     11  C   UNL     1       1.429  -2.475   0.000  0.00  0.00    +0.156 C 
BRANCH  11  12
ATOM     12  C   UNL     1       1.429  -1.650   0.000  0.00  0.00    +0.230 C 
BRANCH  12  13
ATOM     13  O   UNL     1       0.715  -1.238   0.000  0.00  0.00    -0.473 OA
BRANCH  13  14
ATOM     14  C   UNL     1       0.715  -0.412   0.000  0.00  0.00    +0.149 A 
ATOM     15  C   UNL     1       1.429   0.000   0.000  0.00  0.00    +0.092 A 
ATOM     16 CL   UNL     1       2.143  -0.412   0.000  0.00  0.00    -0.079 Cl
ATOM     17  C   UNL     1       1.429   0.825   0.000  0.00  0.00    +0.014 A 
ATOM     18  C   UNL     1       0.715   1.238   0.000  0.00  0.00    +0.001 A 
ATOM     19  C   UNL     1       0.000   0.825   0.000  0.00  0.00    +0.003 A 
ATOM     20  C   UNL     1       0.000   0.000   0.000  0.00  0.00    +0.038 A 
ENDBRANCH  13  14
ENDBRANCH  12  13
ENDBRANCH  11  12
ENDBRANCH   2  11
TORSDOF 5
