REMARK  Name = 
REMARK  6 active torsions:
REMARK  status: ('A' for Active; 'I' for Inactive)
REMARK    1  A    between atoms: C_2  and  C_4
REMARK    2  A    between atoms: C_4  and  C_5
REMARK    3  A    between atoms: C_5  and  C_6
REMARK    4  A    between atoms: C_10  and  N_11
REMARK    5  A    between atoms: C_12  and  C_14
REMARK    6  A    between atoms: C_14  and  N_15
REMARK                            x       y       z     vdW  Elec       q    Type
REMARK                         _______ _______ _______ _____ _____    ______ ____
ROOT
ATOM      1  C   UNL     1      -1.341  -1.914   0.000  0.00  0.00    +0.020 C 
ATOM      2  C   UNL     1      -2.009  -2.399   0.000  0.00  0.00    +0.095 C 
ATOM      3  C   UNL     1      -1.754  -3.183   0.000  0.00  0.00    +0.022 C 
ATOM      4  C   UNL     1      -0.929  -3.183   0.000  0.00  0.00    +0.002 C 
ATOM      5  C   UNL     1      -0.674  -2.399   0.000  0.00  0.00    +0.002 C 
ENDROOT
BRANCH   2   6
ATOM      6  N   UNL     1      -2.793  -2.144   0.000  0.00  0.00    -0.206 NA
ATOM      7  C   UNL     1      -2.965  -1.337   0.000  0.00  0.00    +0.265 C 
ATOM      8  O   UNL     1      -2.352  -0.785   0.000  0.00  0.00    -0.271 OA
BRANCH   7   9
ATOM      9  C   UNL     1      -3.749  -1.082   0.000  0.00  0.00    +0.199 C 
BRANCH   9  10
ATOM     10  N   UNL     1      -4.362  -1.634   0.000  0.00  0.00    -0.251 N 
ATOM     11  C   UNL     1      -5.169  -1.462   0.000  0.00  0.00    +0.369 A 
ATOM     12  O   UNL     1      -5.505  -0.709   0.000  0.00  0.00    -0.243 OA
ATOM     13  N   UNL     1      -5.582  -2.177   0.000  0.00  0.00    -0.088 NA
ATOM     14  N   UNL     1      -5.030  -2.790   0.000  0.00  0.00    -0.123 NA
ATOM     15  C   UNL     1      -4.276  -2.455   0.000  0.00  0.00    +0.206 A 
ENDBRANCH   9  10
ENDBRANCH   7   9
ENDBRANCH   2   6
BRANCH   1  16
ATOM     16  C   UNL     1      -1.341  -1.089   0.000  0.00  0.00    +0.002 C 
BRANCH  16  17
ATOM     17  C   UNL     1      -0.627  -0.676   0.000  0.00  0.00    +0.000 C 
BRANCH  17  19
ATOM     18  C   UNL     1       0.088   0.561   0.000  0.00  0.00    +0.000 C 
ATOM     19  C   UNL     1      -0.627   0.148   0.000  0.00  0.00    +0.000 C 
ATOM     20  C   UNL     1      -1.341   0.561   0.000  0.00  0.00    +0.000 C 
ENDBRANCH  17  19
ENDBRANCH  16  17
ENDBRANCH   1  16
TORSDOF 6
