REMARK  Name = 
REMARK  2 active torsions:
REMARK  status: ('A' for Active; 'I' for Inactive)
REMARK    1  A    between atoms: C_4  and  C_5
REMARK    2  A    between atoms: C_5  and  C_6
REMARK                            x       y       z     vdW  Elec       q    Type
REMARK                         _______ _______ _______ _____ _____    ______ ____
ROOT
ATOM      1 CL   UNL     1       0.000   0.000   0.000  0.00  0.00    +0.000 Cl
ENDROOT
TORSDOF 0
REMARK  Name = 
REMARK  2 active torsions:
REMARK  status: ('A' for Active; 'I' for Inactive)
REMARK    1  A    between atoms: C_4  and  C_5
REMARK    2  A    between atoms: C_5  and  C_6
REMARK                            x       y       z     vdW  Elec       q    Type
REMARK                         _______ _______ _______ _____ _____    ______ ____
ROOT
ATOM      1 CL   UNL     1       2.004   0.000   0.000  0.00  0.00    +0.000 Cl
ENDROOT
TORSDOF 0
REMARK  Name = 
REMARK  2 active torsions:
REMARK  status: ('A' for Active; 'I' for Inactive)
REMARK    1  A    between atoms: C_4  and  C_5
REMARK    2  A    between atoms: C_5  and  C_6
REMARK                            x       y       z     vdW  Elec       q    Type
REMARK                         _______ _______ _______ _____ _____    ______ ____
ROOT
ATOM      1  O   UNL     1       0.516  -3.976   0.000  0.00  0.00    -0.225 OA
ATOM      2  C   UNL     1      -0.015  -4.608   0.000  0.00  0.00    +0.133 C 
ATOM      3  C   UNL     1      -0.729  -5.020   0.000  0.00  0.00    +0.050 C 
ATOM      4  C   UNL     1      -0.729  -5.845   0.000  0.00  0.00    +0.091 C 
ATOM      5  N   UNL     1      -0.015  -6.258   0.000  0.00  0.00    -0.218 NA
ATOM      6  C   UNL     1       0.700  -5.845   0.000  0.00  0.00    +0.091 C 
ATOM      7  C   UNL     1       0.700  -5.020   0.000  0.00  0.00    +0.050 C 
ENDROOT
BRANCH   2   8
ATOM      8  C   UNL     1      -0.545  -3.976   0.000  0.00  0.00    +0.057 C 
BRANCH   8   9
ATOM      9  C   UNL     1      -0.263  -3.200   0.000  0.00  0.00    -0.017 A 
ATOM     10  C   UNL     1       0.550  -3.057   0.000  0.00  0.00    +0.016 A 
ATOM     11  C   UNL     1       0.832  -2.282   0.000  0.00  0.00    +0.099 A 
ATOM     12  N   UNL     1       0.302  -1.650   0.000  0.00  0.00    -0.242 NA
ATOM     13  C   UNL     1      -0.511  -1.793   0.000  0.00  0.00    +0.099 A 
ATOM     14  C   UNL     1      -0.793  -2.568   0.000  0.00  0.00    +0.016 A 
ENDBRANCH   8   9
ENDBRANCH   2   8
TORSDOF 2
