REMARK  Name = 
REMARK  4 active torsions:
REMARK  status: ('A' for Active; 'I' for Inactive)
REMARK    1  A    between atoms: N_2  and  C_4
REMARK    2  A    between atoms: N_9  and  C_10
REMARK    3  A    between atoms: C_10  and  C_11
REMARK    4  A    between atoms: N_13  and  C_14
REMARK                            x       y       z     vdW  Elec       q    Type
REMARK                         _______ _______ _______ _____ _____    ______ ____
ROOT
ATOM      1  C   UNL     1       2.858  -2.475   0.000  0.00  0.00    +0.307 A 
ATOM      2  C   UNL     1       2.143  -2.888   0.000  0.00  0.00    +0.155 A 
ATOM      3  N   UNL     1       2.143  -3.712   0.000  0.00  0.00    -0.280 N 
ATOM      4  C   UNL     1       2.858  -4.125   0.000  0.00  0.00    +0.262 A 
ATOM      5  O   UNL     1       2.858  -4.950   0.000  0.00  0.00    -0.267 OA
ATOM      6  C   UNL     1       3.572  -3.712   0.000  0.00  0.00    +0.067 A 
ATOM      7  C   UNL     1       3.572  -2.888   0.000  0.00  0.00    +0.082 A 
ENDROOT
BRANCH   1   9
ATOM      8  O   UNL     1       3.572  -1.238   0.000  0.00  0.00    -0.576 OA
ATOM      9  N   UNL     1       2.858  -1.650   0.000  0.00  0.00    +0.082 N 
ATOM     10  O   UNL     1       2.143  -1.238   0.000  0.00  0.00    +0.042 OA
ENDBRANCH   1   9
BRANCH   3  11
ATOM     11  C   UNL     1       1.429  -4.125   0.000  0.00  0.00    +0.196 C 
BRANCH  11  12
ATOM     12  C   UNL     1       0.715  -3.712   0.000  0.00  0.00    +0.264 C 
ATOM     13  N   UNL     1       0.000  -4.125   0.000  0.00  0.00    -0.206 NA
ATOM     14  O   UNL     1       0.715  -2.888   0.000  0.00  0.00    -0.271 OA
BRANCH  13  15
ATOM     15  C   UNL     1      -0.715  -3.712   0.000  0.00  0.00    +0.095 C 
ATOM     16  C   UNL     1      -0.715  -2.888   0.000  0.00  0.00    +0.022 C 
ATOM     17  C   UNL     1      -1.429  -2.475   0.000  0.00  0.00    +0.002 C 
ATOM     18  C   UNL     1      -2.143  -2.888   0.000  0.00  0.00    +0.000 C 
ATOM     19  C   UNL     1      -2.143  -3.712   0.000  0.00  0.00    +0.002 C 
ATOM     20  C   UNL     1      -1.429  -4.125   0.000  0.00  0.00    +0.022 C 
ENDBRANCH  13  15
ENDBRANCH  11  12
ENDBRANCH   3  11
TORSDOF 4
