REMARK  Name = 
REMARK  4 active torsions:
REMARK  status: ('A' for Active; 'I' for Inactive)
REMARK    1  A    between atoms: O_2  and  C_3
REMARK    2  A    between atoms: C_3  and  C_4
REMARK    3  A    between atoms: C_4  and  N_5
REMARK    4  A    between atoms: C_7  and  C_12
REMARK                            x       y       z     vdW  Elec       q    Type
REMARK                         _______ _______ _______ _____ _____    ______ ____
ROOT
ATOM      1  N   UNL     1      -2.751   5.590   0.000  0.00  0.00    -0.214 N 
ATOM      2  C   UNL     1      -3.466   6.003   0.000  0.00  0.00    +0.277 A 
ATOM      3  O   UNL     1      -3.466   6.828   0.000  0.00  0.00    -0.266 OA
ATOM      4  C   UNL     1      -4.180   5.590   0.000  0.00  0.00    +0.064 A 
ATOM      5  C   UNL     1      -4.180   4.765   0.000  0.00  0.00    +0.030 A 
ATOM      6  C   UNL     1      -3.466   4.353   0.000  0.00  0.00    +0.156 A 
ATOM      7  N   UNL     1      -2.751   4.765   0.000  0.00  0.00    -0.162 NA
ENDROOT
BRANCH   6   8
ATOM      8  C   UNL     1      -3.466   3.528   0.000  0.00  0.00    +0.290 C 
ATOM      9  N   UNL     1      -2.751   3.115   0.000  0.00  0.00    -0.150 NA
ATOM     10  C   UNL     1      -2.751   2.290   0.000  0.00  0.00    +0.178 C 
ATOM     11  S   UNL     1      -3.419   1.805   0.000  0.00  0.00    -0.076 S 
ATOM     12  C   UNL     1      -3.164   1.021   0.000  0.00  0.00    +0.091 C 
ATOM     13  C   UNL     1      -2.339   1.021   0.000  0.00  0.00    +0.140 C 
ATOM     14  N   UNL     1      -2.084   1.805   0.000  0.00  0.00    -0.248 NA
ATOM     15  O   UNL     1      -4.180   3.115   0.000  0.00  0.00    -0.266 OA
ENDBRANCH   6   8
BRANCH   1  16
ATOM     16  C   UNL     1      -2.037   6.003   0.000  0.00  0.00    +0.163 C 
BRANCH  16  17
ATOM     17  C   UNL     1      -2.037   6.828   0.000  0.00  0.00    +0.169 C 
BRANCH  17  19
ATOM     18  C   UNL     1      -1.322   8.065   0.000  0.00  0.00    +0.174 C 
ATOM     19  O   UNL     1      -1.322   7.240   0.000  0.00  0.00    -0.349 OA
ENDBRANCH  17  19
ENDBRANCH  16  17
ENDBRANCH   1  16
TORSDOF 4
