REMARK  Name = 
REMARK  6 active torsions:
REMARK  status: ('A' for Active; 'I' for Inactive)
REMARK    1  A    between atoms: C_2  and  CA_4
REMARK    2  A    between atoms: CA_4  and  C_5
REMARK    3  A    between atoms: CA_4  and  N_15
REMARK    4  A    between atoms: C_5  and  N_6
REMARK    5  A    between atoms: C_9  and  C_11
REMARK    6  A    between atoms: N_15  and  C_16
REMARK                            x       y       z     vdW  Elec       q    Type
REMARK                         _______ _______ _______ _____ _____    ______ ____
ROOT
ATOM      1  C   UNL     1      -2.151   1.058   0.000  0.00  0.00    +0.156 C 
ENDROOT
BRANCH   1   2
ATOM      2  N   UNL     1      -2.151   0.233   0.000  0.00  0.00    -0.247 N 
ATOM      3  N   UNL     1      -2.818  -0.252   0.000  0.00  0.00    -0.165 NA
ATOM      4  C   UNL     1      -2.563  -1.037   0.000  0.00  0.00    +0.174 A 
ATOM      5  C   UNL     1      -1.738  -1.037   0.000  0.00  0.00    +0.045 A 
ATOM      6  C   UNL     1      -1.483  -0.252   0.000  0.00  0.00    +0.097 A 
BRANCH   4   7
ATOM      7  C   UNL     1      -3.048  -1.704   0.000  0.00  0.00    +0.437 C 
ATOM      8  F   UNL     1      -3.715  -1.219   0.000  0.00  0.00    -0.164 F 
ATOM      9  F   UNL     1      -2.381  -2.189   0.000  0.00  0.00    -0.164 F 
ATOM     10  F   UNL     1      -3.533  -2.372   0.000  0.00  0.00    -0.164 F 
ENDBRANCH   4   7
ENDBRANCH   1   2
BRANCH   1  11
ATOM     11  CA  UNL     1      -1.436   1.470   0.000  0.00  0.00    +0.200 C 
BRANCH  11  13
ATOM     12  O   UNL     1      -2.151   2.708   0.000  0.00  0.00    -0.244 OA
ATOM     13  C   UNL     1      -1.436   2.295   0.000  0.00  0.00    +0.382 C 
ATOM     14  OXT UNL     1      -0.722   2.708   0.000  0.00  0.00    -0.244 OA
ENDBRANCH  11  13
BRANCH  11  15
ATOM     15  N   UNL     1      -0.722   1.058   0.000  0.00  0.00    -0.208 NA
BRANCH  15  16
ATOM     16  C   UNL     1      -0.722   0.233   0.000  0.00  0.00    +0.073 C 
ATOM     17  C   UNL     1      -1.134  -0.482   0.000  0.00  0.00    +0.019 C 
ATOM     18  C   UNL     1      -0.309  -0.482   0.000  0.00  0.00    +0.019 C 
ENDBRANCH  15  16
ENDBRANCH  11  15
ENDBRANCH   1  11
TORSDOF 6
