REMARK  Name = 
REMARK  2 active torsions:
REMARK  status: ('A' for Active; 'I' for Inactive)
REMARK    1  A    between atoms: C_4  and  C_5
REMARK    2  A    between atoms: C_5  and  C_6
REMARK                            x       y       z     vdW  Elec       q    Type
REMARK                         _______ _______ _______ _____ _____    ______ ____
ROOT
ATOM      1 CL   UNL     1       0.000   0.000   0.000  0.00  0.00    +0.000 Cl
ENDROOT
TORSDOF 0
REMARK  Name = 
REMARK  2 active torsions:
REMARK  status: ('A' for Active; 'I' for Inactive)
REMARK    1  A    between atoms: C_4  and  C_5
REMARK    2  A    between atoms: C_5  and  C_6
REMARK                            x       y       z     vdW  Elec       q    Type
REMARK                         _______ _______ _______ _____ _____    ______ ____
ROOT
ATOM      1 CL   UNL     1       2.004   0.000   0.000  0.00  0.00    +0.000 Cl
ENDROOT
TORSDOF 0
REMARK  Name = 
REMARK  2 active torsions:
REMARK  status: ('A' for Active; 'I' for Inactive)
REMARK    1  A    between atoms: C_4  and  C_5
REMARK    2  A    between atoms: C_5  and  C_6
REMARK                            x       y       z     vdW  Elec       q    Type
REMARK                         _______ _______ _______ _____ _____    ______ ____
ROOT
ATOM      1  C   UNL     1      -0.059  -3.712   0.000  0.00  0.00    +0.229 A 
ATOM      2  O   UNL     1      -0.727  -4.197   0.000  0.00  0.00    -0.407 OA
ATOM      3  C   UNL     1      -0.472  -4.982   0.000  0.00  0.00    +0.349 A 
ATOM      4  N   UNL     1      -0.957  -5.649   0.000  0.00  0.00    -0.067 NA
ATOM      5  N   UNL     1       0.353  -4.982   0.000  0.00  0.00    -0.090 NA
ATOM      6  N   UNL     1       0.608  -4.197   0.000  0.00  0.00    -0.110 NA
ENDROOT
BRANCH   1   7
ATOM      7  C   UNL     1      -0.059  -2.888   0.000  0.00  0.00    +0.107 C 
BRANCH   7   9
ATOM      8  N   UNL     1       0.655  -1.650   0.000  0.00  0.00    -0.131 NA
ATOM      9  C   UNL     1       0.655  -2.475   0.000  0.00  0.00    +0.119 C 
ENDBRANCH   7   9
ENDBRANCH   1   7
TORSDOF 2
