REMARK  Name = 
REMARK  4 active torsions:
REMARK  status: ('A' for Active; 'I' for Inactive)
REMARK    1  A    between atoms: C_2  and  C_3
REMARK    2  A    between atoms: C_3  and  C_4
REMARK    3  A    between atoms: C_3  and  N_15
REMARK    4  A    between atoms: C_4  and  N_5
REMARK                            x       y       z     vdW  Elec       q    Type
REMARK                         _______ _______ _______ _____ _____    ______ ____
ROOT
ATOM      1  N   UNL     1       2.469  -1.040   0.000  0.00  0.00    -0.185 NA
ATOM      2  C   UNL     1       3.183  -0.627   0.000  0.00  0.00    +0.345 C 
ATOM      3  N   UNL     1       3.897  -1.040   0.000  0.00  0.00    -0.134 NA
ATOM      4  C   UNL     1       4.612  -0.627   0.000  0.00  0.00    +0.209 A 
ATOM      5  S   UNL     1       5.366  -0.963   0.000  0.00  0.00    -0.033 S 
ATOM      6  C   UNL     1       5.918  -0.349   0.000  0.00  0.00    +0.113 A 
ATOM      7  C   UNL     1       6.738  -0.436   0.000  0.00  0.00    +0.061 C 
ATOM      8  N   UNL     1       5.505   0.365   0.000  0.00  0.00    -0.144 NA
ATOM      9  N   UNL     1       4.698   0.193   0.000  0.00  0.00    -0.124 NA
ATOM     10  O   UNL     1       3.183   0.198   0.000  0.00  0.00    -0.249 OA
ENDROOT
BRANCH   1  11
ATOM     11  C   UNL     1       1.754  -0.627   0.000  0.00  0.00    +0.133 C 
BRANCH  11  12
ATOM     12  C   UNL     1       1.040  -1.040   0.000  0.00  0.00    +0.079 C 
BRANCH  12  13
ATOM     13  N   UNL     1       0.325  -0.627   0.000  0.00  0.00    -0.272 NA
ATOM     14  C   UNL     1       0.239   0.193   0.000  0.00  0.00    +0.072 C 
ATOM     15  C   UNL     1      -0.568   0.365   0.000  0.00  0.00    +0.019 C 
ATOM     16  C   UNL     1      -0.981  -0.349   0.000  0.00  0.00    +0.019 C 
ATOM     17  C   UNL     1      -0.429  -0.963   0.000  0.00  0.00    +0.072 C 
ENDBRANCH  12  13
BRANCH  12  19
ATOM     18  C   UNL     1       0.325  -2.277   0.000  0.00  0.00    +0.001 C 
ATOM     19  C   UNL     1       1.040  -1.865   0.000  0.00  0.00    +0.018 C 
ENDBRANCH  12  19
ENDBRANCH  11  12
ENDBRANCH   1  11
TORSDOF 4
