REMARK  Name = 
REMARK  5 active torsions:
REMARK  status: ('A' for Active; 'I' for Inactive)
REMARK    1  A    between atoms: C_2  and  C_3
REMARK    2  A    between atoms: C_3  and  C_4
REMARK    3  A    between atoms: N_6  and  C_7
REMARK    4  A    between atoms: C_7  and  C_8
REMARK    5  A    between atoms: C_8  and  C_14
REMARK                            x       y       z     vdW  Elec       q    Type
REMARK                         _______ _______ _______ _____ _____    ______ ____
ROOT
ATOM      1  C   UNL     1       0.789  -2.484   0.000  0.00  0.00    +0.039 C 
ATOM      2  C   UNL     1       0.259  -3.116   0.000  0.00  0.00    +0.006 C 
ATOM      3  C   UNL     1       0.541  -3.891   0.000  0.00  0.00    +0.000 C 
ATOM      4  C   UNL     1       1.353  -4.035   0.000  0.00  0.00    +0.000 C 
ATOM      5  C   UNL     1       1.883  -3.403   0.000  0.00  0.00    +0.000 C 
ATOM      6  C   UNL     1       1.601  -2.627   0.000  0.00  0.00    +0.006 C 
ENDROOT
BRANCH   1   7
ATOM      7  C   UNL     1       1.071  -1.709   0.000  0.00  0.00    -0.018 A 
ATOM      8  C   UNL     1       1.883  -1.566   0.000  0.00  0.00    +0.016 A 
ATOM      9  C   UNL     1       2.166  -0.790   0.000  0.00  0.00    +0.099 A 
ATOM     10  N   UNL     1       1.635  -0.159   0.000  0.00  0.00    -0.242 NA
ATOM     11  C   UNL     1       0.823  -0.302   0.000  0.00  0.00    +0.099 A 
ATOM     12  C   UNL     1       0.541  -1.077   0.000  0.00  0.00    +0.016 A 
ENDBRANCH   1   7
BRANCH   1  13
ATOM     13  C   UNL     1       0.074  -2.072   0.000  0.00  0.00    +0.119 C 
BRANCH  13  16
ATOM     14  O   UNL     1      -1.355  -1.247   0.000  0.00  0.00    -0.272 OA
ATOM     15  C   UNL     1      -1.355  -2.072   0.000  0.00  0.00    +0.257 C 
ATOM     16  N   UNL     1      -0.640  -2.484   0.000  0.00  0.00    -0.204 NA
BRANCH  15  17
ATOM     17  C   UNL     1      -2.069  -2.484   0.000  0.00  0.00    +0.192 C 
BRANCH  17  18
ATOM     18  C   UNL     1      -2.784  -2.072   0.000  0.00  0.00    +0.083 C 
ATOM     19  N   UNL     1      -3.498  -1.659   0.000  0.00  0.00    -0.195 NA
ENDBRANCH  17  18
ENDBRANCH  15  17
ENDBRANCH  13  16
ENDBRANCH   1  13
TORSDOF 5
