REMARK  Name = 
REMARK  6 active torsions:
REMARK  status: ('A' for Active; 'I' for Inactive)
REMARK    1  A    between atoms: C_2  and  C_4
REMARK    2  A    between atoms: C_4  and  C_5
REMARK    3  A    between atoms: C_5  and  C_6
REMARK    4  A    between atoms: C_6  and  N_8
REMARK    5  A    between atoms: C_9  and  C_11
REMARK    6  A    between atoms: C_11  and  C_12
REMARK                            x       y       z     vdW  Elec       q    Type
REMARK                         _______ _______ _______ _____ _____    ______ ____
ROOT
ATOM      1  N   UNL     1       5.716  -4.950   0.000  0.00  0.00    -0.207 NA
ATOM      2  C   UNL     1       6.430  -5.362   0.000  0.00  0.00    +0.246 C 
ATOM      3  O   UNL     1       6.430  -6.188   0.000  0.00  0.00    -0.273 OA
ENDROOT
BRANCH   1   4
ATOM      4  C   UNL     1       5.001  -5.362   0.000  0.00  0.00    +0.095 C 
ATOM      5  C   UNL     1       5.001  -6.188   0.000  0.00  0.00    +0.023 C 
BRANCH   4   6
ATOM      6  C   UNL     1       4.287  -4.950   0.000  0.00  0.00    +0.022 C 
BRANCH   6   7
ATOM      7  C   UNL     1       3.572  -5.362   0.000  0.00  0.00    +0.002 C 
BRANCH   7   9
ATOM      8  C   UNL     1       2.143  -5.362   0.000  0.00  0.00    +0.000 C 
ATOM      9  C   UNL     1       2.858  -4.950   0.000  0.00  0.00    +0.000 C 
ATOM     10  C   UNL     1       2.858  -4.125   0.000  0.00  0.00    +0.000 C 
ENDBRANCH   7   9
ENDBRANCH   6   7
ENDBRANCH   4   6
ENDBRANCH   1   4
BRANCH   2  11
ATOM     11  C   UNL     1       7.145  -4.950   0.000  0.00  0.00    +0.119 C 
BRANCH  11  12
ATOM     12  C   UNL     1       7.859  -5.362   0.000  0.00  0.00    +0.058 A 
ATOM     13  C   UNL     1       7.859  -6.188   0.000  0.00  0.00    +0.278 A 
ATOM     14  O   UNL     1       7.145  -6.600   0.000  0.00  0.00    -0.265 OA
ATOM     15  N   UNL     1       8.574  -6.600   0.000  0.00  0.00    -0.193 NA
ATOM     16  C   UNL     1       9.288  -6.188   0.000  0.00  0.00    +0.142 A 
ATOM     17  C   UNL     1      10.003  -6.600   0.000  0.00  0.00    +0.074 C 
ATOM     18  N   UNL     1       9.288  -5.362   0.000  0.00  0.00    -0.235 NA
ATOM     19  C   UNL     1       8.574  -4.950   0.000  0.00  0.00    +0.062 A 
ATOM     20  C   UNL     1       8.574  -4.125   0.000  0.00  0.00    +0.052 C 
ENDBRANCH  11  12
ENDBRANCH   2  11
TORSDOF 6
