REMARK  Name = 
REMARK  3 active torsions:
REMARK  status: ('A' for Active; 'I' for Inactive)
REMARK    1  A    between atoms: S_2  and  N_5
REMARK    2  A    between atoms: C_8  and  N_11
REMARK    3  A    between atoms: N_14  and  C_15
REMARK                            x       y       z     vdW  Elec       q    Type
REMARK                         _______ _______ _______ _____ _____    ______ ____
ROOT
ATOM      1  N   UNL     1       2.858  -2.475   0.000  0.00  0.00    -0.159 NA
ATOM      2  C   UNL     1       2.143  -2.888   0.000  0.00  0.00    +0.097 C 
ATOM      3  C   UNL     1       2.143  -3.712   0.000  0.00  0.00    +0.041 C 
ATOM      4  C   UNL     1       2.858  -4.125   0.000  0.00  0.00    +0.100 C 
ATOM      5  C   UNL     1       3.572  -3.712   0.000  0.00  0.00    +0.041 C 
ATOM      6  C   UNL     1       3.572  -2.888   0.000  0.00  0.00    +0.097 C 
ENDROOT
BRANCH   1   8
ATOM      7  C   UNL     1       2.858  -0.825   0.000  0.00  0.00    +0.196 C 
ATOM      8  S   UNL     1       2.858  -1.650   0.000  0.00  0.00    +0.046 S 
ATOM      9  O   UNL     1       3.683  -1.650   0.000  0.00  0.00    -0.157 OA
ATOM     10  O   UNL     1       2.033  -1.650   0.000  0.00  0.00    -0.157 OA
ENDBRANCH   1   8
BRANCH   4  11
ATOM     11  N   UNL     1       2.858  -4.950   0.000  0.00  0.00    -0.189 NA
ATOM     12  C   UNL     1       2.143  -5.362   0.000  0.00  0.00    +0.343 C 
ATOM     13  N   UNL     1       2.143  -6.188   0.000  0.00  0.00    -0.159 NA
ATOM     14  O   UNL     1       1.429  -4.950   0.000  0.00  0.00    -0.249 OA
BRANCH  13  15
ATOM     15  C   UNL     1       1.429  -6.600   0.000  0.00  0.00    +0.094 A 
ATOM     16  C   UNL     1       0.715  -6.188   0.000  0.00  0.00    +0.115 A 
ATOM     17  N   UNL     1       0.000  -6.600   0.000  0.00  0.00    -0.241 NA
ATOM     18  C   UNL     1       0.000  -7.425   0.000  0.00  0.00    +0.099 A 
ATOM     19  C   UNL     1       0.715  -7.838   0.000  0.00  0.00    +0.022 A 
ATOM     20  C   UNL     1       1.429  -7.425   0.000  0.00  0.00    +0.020 A 
ENDBRANCH  13  15
ENDBRANCH   4  11
TORSDOF 3
