REMARK  Name = 
REMARK  5 active torsions:
REMARK  status: ('A' for Active; 'I' for Inactive)
REMARK    1  A    between atoms: N_3  and  C_4
REMARK    2  A    between atoms: C_4  and  C_5
REMARK    3  A    between atoms: C_5  and  N_6
REMARK    4  A    between atoms: N_14  and  C_15
REMARK    5  A    between atoms: C_20  and  N_21
REMARK                            x       y       z     vdW  Elec       q    Type
REMARK                         _______ _______ _______ _____ _____    ______ ____
ROOT
ATOM      1  O   UNL     1       2.605  -0.081   0.000  0.00  0.00    -0.249 OA
ATOM      2  C   UNL     1       2.605  -0.906   0.000  0.00  0.00    +0.344 C 
ATOM      3  N   UNL     1       3.319  -1.319   0.000  0.00  0.00    -0.158 NA
ATOM      4  N   UNL     1       1.890  -1.319   0.000  0.00  0.00    -0.185 NA
ENDROOT
BRANCH   3   5
ATOM      5  C   UNL     1       4.034  -0.906   0.000  0.00  0.00    +0.106 A 
ATOM      6  C   UNL     1       4.748  -1.319   0.000  0.00  0.00    +0.147 A 
ATOM      7  N   UNL     1       5.463  -0.906   0.000  0.00  0.00    -0.228 NA
ATOM      8  C   UNL     1       5.463  -0.081   0.000  0.00  0.00    +0.100 A 
ATOM      9  C   UNL     1       4.748   0.331   0.000  0.00  0.00    +0.022 A 
ATOM     10  C   UNL     1       4.034  -0.081   0.000  0.00  0.00    +0.021 A 
BRANCH   6  11
ATOM     11  N   UNL     1       4.748  -2.144   0.000  0.00  0.00    -0.292 N 
ATOM     12  C   UNL     1       4.081  -2.629   0.000  0.00  0.00    +0.092 C 
ATOM     13  C   UNL     1       4.336  -3.413   0.000  0.00  0.00    +0.023 C 
ATOM     14  C   UNL     1       5.161  -3.413   0.000  0.00  0.00    +0.023 C 
ATOM     15  C   UNL     1       5.416  -2.629   0.000  0.00  0.00    +0.092 C 
ENDBRANCH   6  11
ENDBRANCH   3   5
BRANCH   4  16
ATOM     16  C   UNL     1       1.176  -0.906   0.000  0.00  0.00    +0.138 C 
BRANCH  16  17
ATOM     17  C   UNL     1       0.461  -1.319   0.000  0.00  0.00    +0.117 C 
BRANCH  17  18
ATOM     18  N   UNL     1      -0.253  -0.906   0.000  0.00  0.00    -0.278 N 
ATOM     19  C   UNL     1      -0.191  -0.084   0.000  0.00  0.00    +0.226 C 
ATOM     20  O   UNL     1       0.577   0.218   0.000  0.00  0.00    -0.275 OA
ATOM     21  C   UNL     1      -0.796   0.478   0.000  0.00  0.00    +0.085 C 
ATOM     22  C   UNL     1      -1.612   0.355   0.000  0.00  0.00    +0.010 C 
ATOM     23  C   UNL     1      -2.024  -0.360   0.000  0.00  0.00    +0.002 C 
ATOM     24  C   UNL     1      -1.723  -1.128   0.000  0.00  0.00    +0.022 C 
ATOM     25  C   UNL     1      -0.935  -1.371   0.000  0.00  0.00    +0.093 C 
ENDBRANCH  17  18
ENDBRANCH  16  17
ENDBRANCH   4  16
TORSDOF 5
