REMARK  Name = 
REMARK  6 active torsions:
REMARK  status: ('A' for Active; 'I' for Inactive)
REMARK    1  A    between atoms: C_2  and  C_4
REMARK    2  A    between atoms: C_4  and  N_5
REMARK    3  A    between atoms: C_6  and  S_7
REMARK    4  A    between atoms: S_7  and  C_8
REMARK    5  A    between atoms: C_8  and  C_9
REMARK    6  A    between atoms: C_14  and  C_15
REMARK                            x       y       z     vdW  Elec       q    Type
REMARK                         _______ _______ _______ _____ _____    ______ ____
ROOT
ATOM      1  N   UNL     1       1.903   2.199   0.000  0.00  0.00    -0.285 N 
ATOM      2  C   UNL     1       2.571   1.714   0.000  0.00  0.00    +0.144 A 
ATOM      3  N   UNL     1       3.238   2.199   0.000  0.00  0.00    -0.133 NA
ATOM      4  N   UNL     1       2.983   2.983   0.000  0.00  0.00    -0.122 NA
ATOM      5  C   UNL     1       2.158   2.983   0.000  0.00  0.00    +0.194 A 
ENDROOT
BRANCH   2   6
ATOM      6  C   UNL     1       2.571   0.889   0.000  0.00  0.00    +0.059 C 
ATOM      7  C   UNL     1       2.158   0.174   0.000  0.00  0.00    +0.008 C 
ATOM      8  C   UNL     1       2.983   0.174   0.000  0.00  0.00    +0.008 C 
ENDBRANCH   2   6
BRANCH   1   9
ATOM      9  C   UNL     1       1.119   1.944   0.000  0.00  0.00    +0.198 C 
BRANCH   9  11
ATOM     10  N   UNL     1       0.163   0.882   0.000  0.00  0.00    -0.086 NA
ATOM     11  C   UNL     1       0.947   1.137   0.000  0.00  0.00    +0.284 C 
ATOM     12  O   UNL     1       1.560   0.585   0.000  0.00  0.00    -0.270 OA
ENDBRANCH   9  11
ENDBRANCH   1   9
BRANCH   5  13
ATOM     13  S   UNL     1       1.673   3.651   0.000  0.00  0.00    -0.070 S 
BRANCH  13  14
ATOM     14  C   UNL     1       0.853   3.565   0.000  0.00  0.00    +0.103 C 
BRANCH  14  15
ATOM     15  C   UNL     1       0.368   4.232   0.000  0.00  0.00    +0.047 C 
ATOM     16 CL   UNL     1       0.704   4.986   0.000  0.00  0.00    -0.086 Cl
ATOM     17  C   UNL     1      -0.452   4.146   0.000  0.00  0.00    +0.008 C 
ENDBRANCH  14  15
ENDBRANCH  13  14
ENDBRANCH   5  13
TORSDOF 6
