REMARK  Name = 
REMARK  6 active torsions:
REMARK  status: ('A' for Active; 'I' for Inactive)
REMARK    1  A    between atoms: O_2  and  C_3
REMARK    2  A    between atoms: C_3  and  C_4
REMARK    3  A    between atoms: C_4  and  O_5
REMARK    4  A    between atoms: O_5  and  C_6
REMARK    5  A    between atoms: C_6  and  C_7
REMARK    6  A    between atoms: N_9  and  C_10
REMARK                            x       y       z     vdW  Elec       q    Type
REMARK                         _______ _______ _______ _____ _____    ______ ____
ROOT
ATOM      1  C   UNL     1       6.430  -5.362   0.000  0.00  0.00    +0.276 C 
ATOM      2  N   UNL     1       7.145  -4.950   0.000  0.00  0.00    -0.172 NA
ATOM      3  O   UNL     1       6.430  -6.188   0.000  0.00  0.00    -0.270 OA
ENDROOT
BRANCH   2   4
ATOM      4  C   UNL     1       7.859  -5.362   0.000  0.00  0.00    +0.131 A 
ATOM      5  C   UNL     1       7.859  -6.188   0.000  0.00  0.00    +0.295 A 
ATOM      6  O   UNL     1       7.145  -6.600   0.000  0.00  0.00    -0.264 OA
ATOM      7  N   UNL     1       8.574  -6.600   0.000  0.00  0.00    -0.205 NA
ATOM      8  C   UNL     1       9.288  -6.188   0.000  0.00  0.00    +0.102 A 
ATOM      9  C   UNL     1       9.288  -5.362   0.000  0.00  0.00    +0.022 A 
ATOM     10  C   UNL     1       8.574  -4.950   0.000  0.00  0.00    +0.023 A 
ENDBRANCH   2   4
BRANCH   1  11
ATOM     11  C   UNL     1       5.716  -4.950   0.000  0.00  0.00    +0.229 C 
BRANCH  11  12
ATOM     12  O   UNL     1       5.001  -5.362   0.000  0.00  0.00    -0.342 OA
BRANCH  12  13
ATOM     13  C   UNL     1       4.287  -4.950   0.000  0.00  0.00    +0.175 C 
BRANCH  13  14
ATOM     14  C   UNL     1       3.572  -5.362   0.000  0.00  0.00    +0.174 C 
BRANCH  14  16
ATOM     15  C   UNL     1       2.143  -5.362   0.000  0.00  0.00    +0.174 C 
ATOM     16  O   UNL     1       2.858  -4.950   0.000  0.00  0.00    -0.348 OA
ENDBRANCH  14  16
ENDBRANCH  13  14
ENDBRANCH  12  13
ENDBRANCH  11  12
ENDBRANCH   1  11
TORSDOF 6
