REMARK  Name = 
REMARK  7 active torsions:
REMARK  status: ('A' for Active; 'I' for Inactive)
REMARK    1  A    between atoms: C_2  and  S_3
REMARK    2  A    between atoms: S_3  and  N_6
REMARK    3  A    between atoms: C_9  and  N_12
REMARK    4  A    between atoms: C_13  and  C_15
REMARK    5  A    between atoms: N_20  and  C_21
REMARK    6  A    between atoms: C_21  and  C_22
REMARK    7  A    between atoms: C_22  and  O_23
REMARK                            x       y       z     vdW  Elec       q    Type
REMARK                         _______ _______ _______ _____ _____    ______ ____
ROOT
ATOM      1  N   UNL     1       0.000  -4.950   0.000  0.00  0.00    -0.202 NA
ATOM      2  C   UNL     1      -0.715  -5.362   0.000  0.00  0.00    +0.284 C 
ATOM      3  O   UNL     1      -1.429  -4.950   0.000  0.00  0.00    -0.267 OA
ENDROOT
BRANCH   2   4
ATOM      4  C   UNL     1      -0.715  -6.188   0.000  0.00  0.00    +0.156 A 
ATOM      5  N   UNL     1      -1.429  -6.600   0.000  0.00  0.00    -0.162 NA
ATOM      6  N   UNL     1      -1.429  -7.425   0.000  0.00  0.00    -0.214 N 
ATOM      7  C   UNL     1      -0.715  -7.838   0.000  0.00  0.00    +0.277 A 
ATOM      8  O   UNL     1      -0.715  -8.662   0.000  0.00  0.00    -0.266 OA
ATOM      9  C   UNL     1       0.000  -7.425   0.000  0.00  0.00    +0.064 A 
ATOM     10  C   UNL     1       0.000  -6.600   0.000  0.00  0.00    +0.030 A 
BRANCH   6  11
ATOM     11  C   UNL     1      -2.143  -7.838   0.000  0.00  0.00    +0.163 C 
BRANCH  11  12
ATOM     12  C   UNL     1      -2.143  -8.662   0.000  0.00  0.00    +0.169 C 
BRANCH  12  13
ATOM     13  O   UNL     1      -2.858  -9.075   0.000  0.00  0.00    -0.349 OA
ATOM     14  C   UNL     1      -2.858  -9.900   0.000  0.00  0.00    +0.174 C 
ENDBRANCH  12  13
ENDBRANCH  11  12
ENDBRANCH   6  11
ENDBRANCH   2   4
BRANCH   1  18
ATOM     15  N   UNL     1       0.000  -2.475   0.000  0.00  0.00    -0.159 NA
ATOM     16  C   UNL     1      -0.715  -2.888   0.000  0.00  0.00    +0.097 C 
ATOM     17  C   UNL     1      -0.715  -3.712   0.000  0.00  0.00    +0.041 C 
ATOM     18  C   UNL     1       0.000  -4.125   0.000  0.00  0.00    +0.099 C 
ATOM     19  C   UNL     1       0.715  -3.712   0.000  0.00  0.00    +0.041 C 
ATOM     20  C   UNL     1       0.715  -2.888   0.000  0.00  0.00    +0.097 C 
BRANCH  15  21
ATOM     21  S   UNL     1       0.000  -1.650   0.000  0.00  0.00    +0.044 S 
ATOM     22  O   UNL     1       0.825  -1.650   0.000  0.00  0.00    -0.157 OA
ATOM     23  O   UNL     1      -0.825  -1.650   0.000  0.00  0.00    -0.157 OA
BRANCH  21  25
ATOM     24  C   UNL     1      -0.715  -0.412   0.000  0.00  0.00    +0.029 C 
ATOM     25  C   UNL     1       0.000  -0.825   0.000  0.00  0.00    +0.169 C 
ENDBRANCH  21  25
ENDBRANCH  15  21
ENDBRANCH   1  18
TORSDOF 7
