REMARK  Name = 
REMARK  5 active torsions:
REMARK  status: ('A' for Active; 'I' for Inactive)
REMARK    1  A    between atoms: C_2  and  O_3
REMARK    2  A    between atoms: C_2  and  C_11
REMARK    3  A    between atoms: O_3  and  C_4
REMARK    4  A    between atoms: C_4  and  C_5
REMARK    5  A    between atoms: C_18  and  C_20
REMARK                            x       y       z     vdW  Elec       q    Type
REMARK                         _______ _______ _______ _____ _____    ______ ____
ROOT
ATOM      1  C   UNL     1       1.429  -3.300   0.000  0.00  0.00    +0.274 C 
ATOM      2  N   UNL     1       2.143  -3.712   0.000  0.00  0.00    -0.158 NA
ATOM      3  C   UNL     1       2.858  -3.300   0.000  0.00  0.00    +0.154 A 
ATOM      4  N   UNL     1       3.572  -3.712   0.000  0.00  0.00    -0.225 NA
ATOM      5  C   UNL     1       4.287  -3.300   0.000  0.00  0.00    +0.154 A 
ATOM      6  C   UNL     1       4.287  -2.475   0.000  0.00  0.00    +0.023 A 
ATOM      7  C   UNL     1       3.572  -2.062   0.000  0.00  0.00    +0.004 A 
ATOM      8  C   UNL     1       2.858  -2.475   0.000  0.00  0.00    +0.036 A 
ATOM      9  O   UNL     1       1.429  -2.475   0.000  0.00  0.00    -0.270 OA
ENDROOT
BRANCH   5  10
ATOM     10  C   UNL     1       5.001  -3.712   0.000  0.00  0.00    +0.435 C 
ATOM     11  F   UNL     1       5.414  -2.998   0.000  0.00  0.00    -0.164 F 
ATOM     12  F   UNL     1       4.589  -4.427   0.000  0.00  0.00    -0.164 F 
ATOM     13  F   UNL     1       5.716  -4.125   0.000  0.00  0.00    -0.164 F 
ENDBRANCH   5  10
BRANCH   1  15
ATOM     14  C   UNL     1       0.715  -4.537   0.000  0.00  0.00    +0.042 C 
ATOM     15  C   UNL     1       0.715  -3.712   0.000  0.00  0.00    +0.193 C 
BRANCH  15  16
ATOM     16  O   UNL     1       0.000  -3.300   0.000  0.00  0.00    -0.344 OA
BRANCH  16  17
ATOM     17  C   UNL     1      -0.715  -3.712   0.000  0.00  0.00    +0.172 C 
BRANCH  17  18
ATOM     18  C   UNL     1      -1.429  -3.300   0.000  0.00  0.00    +0.145 C 
ATOM     19  O   UNL     1      -1.429  -2.475   0.000  0.00  0.00    -0.354 OA
ATOM     20  C   UNL     1      -2.143  -2.062   0.000  0.00  0.00    +0.142 C 
ATOM     21  C   UNL     1      -2.858  -2.475   0.000  0.00  0.00    +0.032 C 
ATOM     22  C   UNL     1      -2.858  -3.300   0.000  0.00  0.00    +0.005 C 
ATOM     23  C   UNL     1      -2.143  -3.712   0.000  0.00  0.00    +0.032 C 
ENDBRANCH  17  18
ENDBRANCH  16  17
ENDBRANCH  15  16
ENDBRANCH   1  15
TORSDOF 5
