REMARK  Name = 
REMARK  6 active torsions:
REMARK  status: ('A' for Active; 'I' for Inactive)
REMARK    1  A    between atoms: C_2  and  N_3
REMARK    2  A    between atoms: C_4  and  C_6
REMARK    3  A    between atoms: C_6  and  N_7
REMARK    4  A    between atoms: C_12  and  C_14
REMARK    5  A    between atoms: C_14  and  O_15
REMARK    6  A    between atoms: O_15  and  C_16
REMARK                            x       y       z     vdW  Elec       q    Type
REMARK                         _______ _______ _______ _____ _____    ______ ____
ROOT
ATOM      1  N   UNL     1      -0.981   2.555   0.000  0.00  0.00    -0.239 N 
ATOM      2  N   UNL     1      -0.429   1.942   0.000  0.00  0.00    -0.152 NA
ATOM      3  C   UNL     1       0.325   2.277   0.000  0.00  0.00    +0.176 A 
ATOM      4  N   UNL     1       1.040   1.865   0.000  0.00  0.00    -0.156 NA
ATOM      5  C   UNL     1       1.754   2.277   0.000  0.00  0.00    +0.277 C 
ATOM      6  O   UNL     1       1.754   3.102   0.000  0.00  0.00    -0.270 OA
ATOM      7  C   UNL     1       0.239   3.098   0.000  0.00  0.00    +0.058 A 
ATOM      8  C   UNL     1      -0.568   3.269   0.000  0.00  0.00    +0.099 A 
ENDROOT
BRANCH   1   9
ATOM      9  C   UNL     1      -1.801   2.468   0.000  0.00  0.00    +0.214 C 
BRANCH   9  11
ATOM     10  N   UNL     1      -3.107   3.050   0.000  0.00  0.00    -0.204 NA
ATOM     11  C   UNL     1      -2.286   3.136   0.000  0.00  0.00    +0.266 C 
ATOM     12  O   UNL     1      -1.950   3.889   0.000  0.00  0.00    -0.271 OA
BRANCH  10  14
ATOM     13  C   UNL     1      -4.412   3.631   0.000  0.00  0.00    +0.025 C 
ATOM     14  C   UNL     1      -3.591   3.717   0.000  0.00  0.00    +0.115 C 
ENDBRANCH  10  14
ENDBRANCH   9  11
ENDBRANCH   1   9
BRANCH   5  15
ATOM     15  C   UNL     1       2.469   1.865   0.000  0.00  0.00    +0.229 C 
BRANCH  15  16
ATOM     16  O   UNL     1       3.183   2.277   0.000  0.00  0.00    -0.344 OA
BRANCH  16  17
ATOM     17  C   UNL     1       3.897   1.865   0.000  0.00  0.00    +0.143 C 
ATOM     18  C   UNL     1       4.612   2.277   0.000  0.00  0.00    +0.035 C 
ENDBRANCH  16  17
ENDBRANCH  15  16
ENDBRANCH   5  15
TORSDOF 6
