REMARK  Name = 
REMARK  3 active torsions:
REMARK  status: ('A' for Active; 'I' for Inactive)
REMARK    1  A    between atoms: N_10  and  C_11
REMARK    2  A    between atoms: C_11  and  C_12
REMARK    3  A    between atoms: C_12  and  C_16
REMARK                            x       y       z     vdW  Elec       q    Type
REMARK                         _______ _______ _______ _____ _____    ______ ____
ROOT
ATOM      1  C   UNL     1       0.715  -1.238   0.000  0.00  0.00    +0.134 C 
ATOM      2  N   UNL     1       0.715  -0.412   0.000  0.00  0.00    -0.288 N 
ATOM      3  C   UNL     1       1.429   0.000   0.000  0.00  0.00    +0.295 A 
ATOM      4  O   UNL     1       2.143  -0.412   0.000  0.00  0.00    -0.264 OA
ATOM      5  C   UNL     1       1.429   0.825   0.000  0.00  0.00    +0.213 A 
ATOM      6  N   UNL     1       2.143   1.238   0.000  0.00  0.00    -0.137 NA
ATOM      7  C   UNL     1       2.858   0.825   0.000  0.00  0.00    +0.345 C 
ATOM      8  N   UNL     1       3.572   1.238   0.000  0.00  0.00    -0.187 NA
ATOM      9  O   UNL     1       2.858   0.000   0.000  0.00  0.00    -0.249 OA
ATOM     10  N   UNL     1       0.715   1.238   0.000  0.00  0.00    -0.221 NA
ATOM     11  C   UNL     1       0.000   0.825   0.000  0.00  0.00    +0.119 A 
ATOM     12  C   UNL     1       0.000   0.000   0.000  0.00  0.00    +0.099 A 
ENDROOT
BRANCH   8  13
ATOM     13  C   UNL     1       4.287   0.825   0.000  0.00  0.00    +0.117 C 
BRANCH  13  14
ATOM     14  C   UNL     1       5.001   1.238   0.000  0.00  0.00    +0.020 C 
ATOM     15  C   UNL     1       5.414   0.523   0.000  0.00  0.00    +0.002 C 
ATOM     16  C   UNL     1       6.128   0.935   0.000  0.00  0.00    +0.000 C 
ATOM     17  C   UNL     1       5.716   1.650   0.000  0.00  0.00    +0.002 C 
BRANCH  14  18
ATOM     18  C   UNL     1       4.589   1.952   0.000  0.00  0.00    +0.002 C 
ATOM     19  C   UNL     1       4.589   2.777   0.000  0.00  0.00    +0.000 C 
ATOM     20  C   UNL     1       3.874   2.365   0.000  0.00  0.00    +0.000 C 
ENDBRANCH  14  18
ENDBRANCH  13  14
ENDBRANCH   8  13
TORSDOF 3
