REMARK  Name = 
REMARK  4 active torsions:
REMARK  status: ('A' for Active; 'I' for Inactive)
REMARK    1  A    between atoms: N_10  and  C_11
REMARK    2  A    between atoms: C_11  and  C_12
REMARK    3  A    between atoms: C_12  and  C_13
REMARK    4  A    between atoms: N_17  and  C_18
REMARK                            x       y       z     vdW  Elec       q    Type
REMARK                         _______ _______ _______ _____ _____    ______ ____
ROOT
ATOM      1  C   UNL     1       0.715  -1.238   0.000  0.00  0.00    +0.002 C 
ATOM      2  C   UNL     1       0.715  -0.412   0.000  0.00  0.00    +0.020 C 
ATOM      3  C   UNL     1       1.429   0.000   0.000  0.00  0.00    +0.095 C 
ATOM      4  N   UNL     1       1.429   0.825   0.000  0.00  0.00    -0.263 N 
ATOM      5  C   UNL     1       2.143   1.238   0.000  0.00  0.00    +0.323 C 
ATOM      6  N   UNL     1       2.858   0.825   0.000  0.00  0.00    -0.188 NA
ATOM      7  O   UNL     1       2.143   2.062   0.000  0.00  0.00    -0.251 OA
ATOM      8  C   UNL     1       0.715   1.238   0.000  0.00  0.00    +0.095 C 
ATOM      9  C   UNL     1       0.000   0.825   0.000  0.00  0.00    +0.022 C 
ATOM     10  C   UNL     1       0.000   0.000   0.000  0.00  0.00    +0.003 C 
ENDROOT
BRANCH   6  11
ATOM     11  C   UNL     1       3.572   1.238   0.000  0.00  0.00    +0.125 C 
BRANCH  11  12
ATOM     12  C   UNL     1       4.287   0.825   0.000  0.00  0.00    +0.088 C 
BRANCH  12  13
ATOM     13  C   UNL     1       5.001   1.238   0.000  0.00  0.00    +0.126 A 
ATOM     14  N   UNL     1       5.755   0.902   0.000  0.00  0.00    -0.259 N 
ATOM     15  C   UNL     1       6.307   1.515   0.000  0.00  0.00    +0.102 A 
ATOM     16  C   UNL     1       5.894   2.229   0.000  0.00  0.00    +0.119 A 
ATOM     17  N   UNL     1       5.088   2.058   0.000  0.00  0.00    -0.229 NA
BRANCH  14  18
ATOM     18  C   UNL     1       5.926   0.095   0.000  0.00  0.00    +0.415 C 
ATOM     19  F   UNL     1       5.313  -0.457   0.000  0.00  0.00    -0.172 F 
ATOM     20  F   UNL     1       6.711  -0.160   0.000  0.00  0.00    -0.172 F 
ENDBRANCH  14  18
ENDBRANCH  12  13
ENDBRANCH  11  12
ENDBRANCH   6  11
TORSDOF 4
