REMARK  Name = 
REMARK  3 active torsions:
REMARK  status: ('A' for Active; 'I' for Inactive)
REMARK    1  A    between atoms: C_4  and  N_5
REMARK    2  A    between atoms: C_7  and  N_11
REMARK    3  A    between atoms: N_14  and  C_15
REMARK                            x       y       z     vdW  Elec       q    Type
REMARK                         _______ _______ _______ _____ _____    ______ ____
ROOT
ATOM      1  N   UNL     1       2.439  -5.719   0.000  0.00  0.00    -0.279 N 
ATOM      2  C   UNL     1       1.685  -5.383   0.000  0.00  0.00    +0.227 C 
ATOM      3  O   UNL     1       1.514  -4.576   0.000  0.00  0.00    -0.275 OA
ATOM      4  C   UNL     1       1.133  -5.997   0.000  0.00  0.00    +0.109 C 
ATOM      5  C   UNL     1       1.546  -6.711   0.000  0.00  0.00    +0.126 C 
ATOM      6  C   UNL     1       2.353  -6.540   0.000  0.00  0.00    +0.115 C 
ENDROOT
BRANCH   1   9
ATOM      7  C   UNL     1       3.566  -3.767   0.000  0.00  0.00    +0.002 C 
ATOM      8  C   UNL     1       3.566  -4.592   0.000  0.00  0.00    +0.020 C 
ATOM      9  C   UNL     1       3.153  -5.306   0.000  0.00  0.00    +0.075 C 
ATOM     10  C   UNL     1       3.978  -5.306   0.000  0.00  0.00    +0.021 C 
ENDBRANCH   1   9
BRANCH   5  11
ATOM     11  N   UNL     1       1.210  -7.465   0.000  0.00  0.00    -0.186 NA
ATOM     12  C   UNL     1       0.390  -7.551   0.000  0.00  0.00    +0.344 C 
ATOM     13  N   UNL     1       0.054  -8.305   0.000  0.00  0.00    -0.159 NA
ATOM     14  O   UNL     1      -0.095  -6.883   0.000  0.00  0.00    -0.249 OA
BRANCH  13  15
ATOM     15  C   UNL     1      -0.766  -8.391   0.000  0.00  0.00    +0.094 A 
ATOM     16  C   UNL     1      -1.251  -7.723   0.000  0.00  0.00    +0.115 A 
ATOM     17  N   UNL     1      -2.072  -7.810   0.000  0.00  0.00    -0.241 NA
ATOM     18  C   UNL     1      -2.407  -8.563   0.000  0.00  0.00    +0.099 A 
ATOM     19  C   UNL     1      -1.922  -9.231   0.000  0.00  0.00    +0.022 A 
ATOM     20  C   UNL     1      -1.102  -9.145   0.000  0.00  0.00    +0.020 A 
ENDBRANCH  13  15
ENDBRANCH   5  11
TORSDOF 3
