REMARK  Name = 
REMARK  3 active torsions:
REMARK  status: ('A' for Active; 'I' for Inactive)
REMARK    1  A    between atoms: C_7  and  C_8
REMARK    2  A    between atoms: C_8  and  C_9
REMARK    3  A    between atoms: N_11  and  C_12
REMARK                            x       y       z     vdW  Elec       q    Type
REMARK                         _______ _______ _______ _____ _____    ______ ____
ROOT
ATOM      1  C   UNL     1       0.378  -2.444   0.000  0.00  0.00    +0.246 C 
ATOM      2  N   UNL     1      -0.406  -2.189   0.000  0.00  0.00    -0.197 NA
ATOM      3  O   UNL     1       0.991  -1.892   0.000  0.00  0.00    -0.273 OA
ENDROOT
BRANCH   2   4
ATOM      4  C   UNL     1      -0.578  -1.382   0.000  0.00  0.00    +0.173 C 
ATOM      5  C   UNL     1       0.075  -0.877   0.000  0.00  0.00    +0.261 C 
ATOM      6  O   UNL     1       0.813  -1.246   0.000  0.00  0.00    -0.271 OA
ATOM      7  N   UNL     1       0.087  -0.052   0.000  0.00  0.00    -0.204 NA
ATOM      8  C   UNL     1      -0.550   0.472   0.000  0.00  0.00    +0.115 C 
ATOM      9  C   UNL     1      -1.357   0.300   0.000  0.00  0.00    +0.024 C 
ATOM     10  C   UNL     1      -1.726  -0.438   0.000  0.00  0.00    +0.004 C 
ATOM     11  C   UNL     1      -1.379  -1.186   0.000  0.00  0.00    +0.031 C 
ENDBRANCH   2   4
BRANCH   1  12
ATOM     12  C   UNL     1       0.550  -3.251   0.000  0.00  0.00    +0.117 C 
BRANCH  12  15
ATOM     13  C   UNL     1       2.002  -2.196   0.000  0.00  0.00    +0.055 C 
ATOM     14  C   UNL     1       2.002  -3.021   0.000  0.00  0.00    +0.097 A 
ATOM     15  C   UNL     1       1.334  -3.506   0.000  0.00  0.00    +0.037 A 
ATOM     16  C   UNL     1       1.589  -4.290   0.000  0.00  0.00    +0.151 A 
ATOM     17  C   UNL     1       1.104  -4.958   0.000  0.00  0.00    +0.075 C 
ATOM     18  O   UNL     1       2.414  -4.290   0.000  0.00  0.00    -0.358 OA
ATOM     19  N   UNL     1       2.669  -3.506   0.000  0.00  0.00    -0.082 NA
ENDBRANCH  12  15
ENDBRANCH   1  12
TORSDOF 3
