REMARK  Name = 
REMARK  3 active torsions:
REMARK  status: ('A' for Active; 'I' for Inactive)
REMARK    1  A    between atoms: C_5  and  N_6
REMARK    2  A    between atoms: N_9  and  C_10
REMARK    3  A    between atoms: C_13  and  C_16
REMARK                            x       y       z     vdW  Elec       q    Type
REMARK                         _______ _______ _______ _____ _____    ______ ____
ROOT
ATOM      1  N   UNL     1       0.000   7.553   0.000  0.00  0.00    -0.186 NA
ATOM      2  C   UNL     1       0.000   6.728   0.000  0.00  0.00    +0.344 C 
ATOM      3  N   UNL     1       0.715   6.315   0.000  0.00  0.00    -0.158 NA
ATOM      4  O   UNL     1      -0.715   6.315   0.000  0.00  0.00    -0.249 OA
ENDROOT
BRANCH   1  11
ATOM      5  C   UNL     1      -1.353   9.742   0.000  0.00  0.00    +0.030 C 
ATOM      6  C   UNL     1      -1.608   8.957   0.000  0.00  0.00    +0.095 C 
ATOM      7  O   UNL     1      -2.020   8.243   0.000  0.00  0.00    -0.362 OA
ATOM      8  C   UNL     1      -1.468   7.630   0.000  0.00  0.00    +0.111 C 
ATOM      9  C   UNL     1      -2.136   7.145   0.000  0.00  0.00    +0.031 C 
ATOM     10  C   UNL     1      -1.056   6.915   0.000  0.00  0.00    +0.031 C 
ATOM     11  C   UNL     1      -0.715   7.965   0.000  0.00  0.00    +0.124 C 
ATOM     12  C   UNL     1      -0.801   8.786   0.000  0.00  0.00    +0.051 C 
ATOM     13  C   UNL     1      -2.361   9.293   0.000  0.00  0.00    +0.030 C 
ENDBRANCH   1  11
BRANCH   3  14
ATOM     14  C   UNL     1       0.715   5.490   0.000  0.00  0.00    +0.113 A 
ATOM     15  C   UNL     1       0.000   5.078   0.000  0.00  0.00    +0.118 A 
ATOM     16  N   UNL     1       0.000   4.253   0.000  0.00  0.00    -0.228 NA
ATOM     17  C   UNL     1       0.715   3.840   0.000  0.00  0.00    +0.139 A 
ATOM     18  N   UNL     1       1.429   4.253   0.000  0.00  0.00    -0.228 NA
ATOM     19  C   UNL     1       1.429   5.078   0.000  0.00  0.00    +0.118 A 
BRANCH  17  20
ATOM     20  C   UNL     1       0.715   3.015   0.000  0.00  0.00    +0.059 C 
ATOM     21  C   UNL     1       0.302   2.301   0.000  0.00  0.00    +0.008 C 
ATOM     22  C   UNL     1       1.127   2.301   0.000  0.00  0.00    +0.008 C 
ENDBRANCH  17  20
ENDBRANCH   3  14
TORSDOF 3
