REMARK  Name = 
REMARK  7 active torsions:
REMARK  status: ('A' for Active; 'I' for Inactive)
REMARK    1  A    between atoms: C_2  and  C_3
REMARK    2  A    between atoms: C_3  and  N_4
REMARK    3  A    between atoms: N_4  and  C_5
REMARK    4  A    between atoms: N_8  and  C_9
REMARK    5  A    between atoms: C_9  and  C_10
REMARK    6  A    between atoms: C_10  and  O_11
REMARK    7  A    between atoms: O_11  and  C_12
REMARK                            x       y       z     vdW  Elec       q    Type
REMARK                         _______ _______ _______ _____ _____    ______ ____
ROOT
ATOM      1  C   UNL     1      -2.143  -1.238   0.000  0.00  0.00    +0.101 A 
ATOM      2  C   UNL     1      -2.858  -1.650   0.000  0.00  0.00    +0.131 A 
ATOM      3 CL   UNL     1      -3.572  -1.238   0.000  0.00  0.00    -0.076 Cl
ATOM      4  C   UNL     1      -2.858  -2.475   0.000  0.00  0.00    +0.288 A 
ATOM      5  O   UNL     1      -3.572  -2.888   0.000  0.00  0.00    -0.265 OA
ATOM      6  N   UNL     1      -2.143  -2.888   0.000  0.00  0.00    -0.212 N 
ATOM      7  N   UNL     1      -1.429  -2.475   0.000  0.00  0.00    -0.164 NA
ATOM      8  C   UNL     1      -1.429  -1.650   0.000  0.00  0.00    +0.137 A 
ENDROOT
BRANCH   1   9
ATOM      9  N   UNL     1      -2.143  -0.412   0.000  0.00  0.00    -0.232 NA
BRANCH   9  10
ATOM     10  C   UNL     1      -2.858   0.000   0.000  0.00  0.00    +0.148 C 
BRANCH  10  12
ATOM     11  O   UNL     1      -3.572   1.238   0.000  0.00  0.00    -0.218 OA
ATOM     12  C   UNL     1      -2.858   0.825   0.000  0.00  0.00    +0.205 C 
ENDBRANCH  10  12
ENDBRANCH   9  10
ENDBRANCH   1   9
BRANCH   6  13
ATOM     13  C   UNL     1      -2.143  -3.712   0.000  0.00  0.00    +0.178 C 
BRANCH  13  14
ATOM     14  C   UNL     1      -2.858  -4.125   0.000  0.00  0.00    +0.232 C 
BRANCH  14  15
ATOM     15  O   UNL     1      -2.858  -4.950   0.000  0.00  0.00    -0.473 OA
BRANCH  15  16
ATOM     16  C   UNL     1      -2.143  -5.362   0.000  0.00  0.00    +0.139 A 
ATOM     17  C   UNL     1      -2.143  -6.188   0.000  0.00  0.00    +0.038 A 
ATOM     18  C   UNL     1      -1.429  -6.600   0.000  0.00  0.00    +0.015 A 
ATOM     19  C   UNL     1      -0.715  -6.188   0.000  0.00  0.00    +0.058 A 
ATOM     20 CL   UNL     1       0.000  -6.600   0.000  0.00  0.00    -0.082 Cl
ATOM     21  C   UNL     1      -0.715  -5.362   0.000  0.00  0.00    +0.015 A 
ATOM     22  C   UNL     1      -1.429  -4.950   0.000  0.00  0.00    +0.038 A 
ENDBRANCH  15  16
ENDBRANCH  14  15
ENDBRANCH  13  14
ENDBRANCH   6  13
TORSDOF 7
