REMARK  Name = 
REMARK  7 active torsions:
REMARK  status: ('A' for Active; 'I' for Inactive)
REMARK    1  A    between atoms: C_2  and  N_3
REMARK    2  A    between atoms: C_2  and  C_14
REMARK    3  A    between atoms: N_3  and  C_4
REMARK    4  A    between atoms: C_4  and  C_5
REMARK    5  A    between atoms: C_5  and  C_7
REMARK    6  A    between atoms: C_7  and  N_8
REMARK    7  A    between atoms: C_14  and  N_16
REMARK                            x       y       z     vdW  Elec       q    Type
REMARK                         _______ _______ _______ _____ _____    ______ ____
ROOT
ATOM      1  N   UNL     1       2.858  -1.650   0.000  0.00  0.00    -0.215 NA
ENDROOT
BRANCH   1   3
ATOM      2  C   UNL     1       3.572  -2.888   0.000  0.00  0.00    +0.021 C 
ATOM      3  C   UNL     1       3.572  -2.062   0.000  0.00  0.00    +0.095 C 
BRANCH   3   4
ATOM      4  C   UNL     1       4.287  -1.650   0.000  0.00  0.00    +0.121 C 
ATOM      5  C   UNL     1       4.287  -0.825   0.000  0.00  0.00    +0.028 C 
BRANCH   4   6
ATOM      6  N   UNL     1       5.001  -2.062   0.000  0.00  0.00    -0.250 N 
ATOM      7  N   UNL     1       5.088  -2.883   0.000  0.00  0.00    -0.168 NA
ATOM      8  C   UNL     1       5.894  -3.054   0.000  0.00  0.00    +0.117 A 
ATOM      9  C   UNL     1       6.307  -2.340   0.000  0.00  0.00    +0.018 A 
ATOM     10  C   UNL     1       7.128  -2.254   0.000  0.00  0.00    +0.034 C 
ATOM     11  C   UNL     1       5.755  -1.727   0.000  0.00  0.00    +0.092 A 
ENDBRANCH   4   6
ENDBRANCH   3   4
ENDBRANCH   1   3
BRANCH   1  12
ATOM     12  C   UNL     1       2.143  -2.062   0.000  0.00  0.00    +0.123 C 
BRANCH  12  13
ATOM     13  C   UNL     1       1.429  -1.650   0.000  0.00  0.00    +0.185 C 
ATOM     14  O   UNL     1       1.429  -0.825   0.000  0.00  0.00    -0.220 OA
BRANCH  13  15
ATOM     15  C   UNL     1       0.715  -2.062   0.000  0.00  0.00    +0.107 C 
BRANCH  15  16
ATOM     16  N   UNL     1       0.000  -1.650   0.000  0.00  0.00    -0.266 NA
ATOM     17  C   UNL     1       0.000  -0.825   0.000  0.00  0.00    +0.105 C 
ATOM     18  C   UNL     1      -0.715  -0.412   0.000  0.00  0.00    +0.159 C 
ATOM     19  O   UNL     1      -1.429  -0.825   0.000  0.00  0.00    -0.351 OA
ATOM     20  C   UNL     1      -1.429  -1.650   0.000  0.00  0.00    +0.159 C 
ATOM     21  C   UNL     1      -0.715  -2.062   0.000  0.00  0.00    +0.105 C 
ENDBRANCH  15  16
ENDBRANCH  13  15
ENDBRANCH  12  13
ENDBRANCH   1  12
TORSDOF 7
