REMARK  Name = 
REMARK  4 active torsions:
REMARK  status: ('A' for Active; 'I' for Inactive)
REMARK    1  A    between atoms: N_4  and  C_5
REMARK    2  A    between atoms: C_5  and  C_6
REMARK    3  A    between atoms: C_6  and  N_7
REMARK    4  A    between atoms: N_10  and  C_11
REMARK                            x       y       z     vdW  Elec       q    Type
REMARK                         _______ _______ _______ _____ _____    ______ ____
ROOT
ATOM      1  C   UNL     1       0.000   0.825   0.000  0.00  0.00    +0.134 C 
ENDROOT
BRANCH   1   2
ATOM      2  N   UNL     1       0.715   1.238   0.000  0.00  0.00    -0.185 NA
ATOM      3  C   UNL     1       1.429   0.825   0.000  0.00  0.00    +0.344 C 
ATOM      4  N   UNL     1       2.143   1.238   0.000  0.00  0.00    -0.158 NA
ATOM      5  O   UNL     1       1.429   0.000   0.000  0.00  0.00    -0.249 OA
BRANCH   4   6
ATOM      6  C   UNL     1       2.858   0.825   0.000  0.00  0.00    +0.117 A 
ATOM      7  C   UNL     1       2.944   0.004   0.000  0.00  0.00    +0.140 A 
ATOM      8  N   UNL     1       3.751  -0.167   0.000  0.00  0.00    -0.145 NA
ATOM      9  N   UNL     1       4.164   0.547   0.000  0.00  0.00    -0.145 NA
ATOM     10  C   UNL     1       3.612   1.161   0.000  0.00  0.00    +0.140 A 
ENDBRANCH   4   6
ENDBRANCH   1   2
BRANCH   1  11
ATOM     11  C   UNL     1      -0.715   1.238   0.000  0.00  0.00    +0.096 C 
BRANCH  11  18
ATOM     12  C   UNL     1      -3.572   1.238   0.000  0.00  0.00    +0.034 C 
ATOM     13  C   UNL     1      -2.858   0.825   0.000  0.00  0.00    +0.131 C 
ATOM     14  O   UNL     1      -2.858   0.000   0.000  0.00  0.00    -0.356 OA
ATOM     15  C   UNL     1      -2.143  -0.412   0.000  0.00  0.00    +0.131 C 
ATOM     16  C   UNL     1      -2.143  -1.238   0.000  0.00  0.00    +0.034 C 
ATOM     17  C   UNL     1      -1.429   0.000   0.000  0.00  0.00    +0.102 C 
ATOM     18  N   UNL     1      -1.429   0.825   0.000  0.00  0.00    -0.267 NA
ATOM     19  C   UNL     1      -2.143   1.238   0.000  0.00  0.00    +0.102 C 
ENDBRANCH  11  18
ENDBRANCH   1  11
TORSDOF 4
