REMARK  Name = 
REMARK  4 active torsions:
REMARK  status: ('A' for Active; 'I' for Inactive)
REMARK    1  A    between atoms: C_4  and  C_5
REMARK    2  A    between atoms: C_5  and  N_6
REMARK    3  A    between atoms: C_7  and  C_9
REMARK    4  A    between atoms: C_9  and  N_10
REMARK                            x       y       z     vdW  Elec       q    Type
REMARK                         _______ _______ _______ _____ _____    ______ ____
ROOT
ATOM      1  C   UNL     1       2.858  -2.475   0.000  0.00  0.00    +0.197 C 
ENDROOT
BRANCH   1   2
ATOM      2  N   UNL     1       3.572  -2.888   0.000  0.00  0.00    -0.269 N 
ATOM      3  C   UNL     1       3.572  -3.712   0.000  0.00  0.00    +0.353 A 
ATOM      4  O   UNL     1       2.858  -4.125   0.000  0.00  0.00    -0.244 OA
ATOM      5  N   UNL     1       4.287  -4.125   0.000  0.00  0.00    -0.153 NA
ATOM      6  C   UNL     1       5.001  -3.712   0.000  0.00  0.00    +0.285 A 
ATOM      7  O   UNL     1       5.716  -4.125   0.000  0.00  0.00    -0.265 OA
ATOM      8  C   UNL     1       5.001  -2.888   0.000  0.00  0.00    +0.081 A 
ATOM      9  C   UNL     1       4.287  -2.475   0.000  0.00  0.00    +0.085 A 
ENDBRANCH   1   2
BRANCH   1  11
ATOM     10  N   UNL     1       1.429  -2.475   0.000  0.00  0.00    -0.204 NA
ATOM     11  C   UNL     1       2.143  -2.888   0.000  0.00  0.00    +0.265 C 
ATOM     12  O   UNL     1       2.143  -3.712   0.000  0.00  0.00    -0.271 OA
BRANCH  10  13
ATOM     13  C   UNL     1       0.715  -2.888   0.000  0.00  0.00    +0.115 C 
BRANCH  13  16
ATOM     14  C   UNL     1      -1.540  -2.888   0.000  0.00  0.00    +0.000 C 
ATOM     15  C   UNL     1      -0.825  -2.475   0.000  0.00  0.00    +0.002 C 
ATOM     16  C   UNL     1       0.000  -2.475   0.000  0.00  0.00    +0.022 C 
ATOM     17  C   UNL     1      -0.412  -1.760   0.000  0.00  0.00    +0.002 C 
ENDBRANCH  13  16
ENDBRANCH  10  13
ENDBRANCH   1  11
TORSDOF 4
