REMARK  Name = 
REMARK  5 active torsions:
REMARK  status: ('A' for Active; 'I' for Inactive)
REMARK    1  A    between atoms: C_2  and  N_4
REMARK    2  A    between atoms: C_7  and  N_10
REMARK    3  A    between atoms: N_10  and  C_11
REMARK    4  A    between atoms: C_11  and  C_12
REMARK    5  A    between atoms: C_12  and  C_13
REMARK                            x       y       z     vdW  Elec       q    Type
REMARK                         _______ _______ _______ _____ _____    ______ ____
ROOT
ATOM      1  N   UNL     1       2.858  -4.950   0.000  0.00  0.00    -0.219 NA
ENDROOT
BRANCH   1   5
ATOM      2  N   UNL     1       2.858  -2.475   0.000  0.00  0.00    -0.274 NA
ATOM      3  C   UNL     1       2.143  -2.888   0.000  0.00  0.00    +0.073 C 
ATOM      4  C   UNL     1       2.143  -3.712   0.000  0.00  0.00    +0.035 C 
ATOM      5  C   UNL     1       2.858  -4.125   0.000  0.00  0.00    +0.076 C 
ATOM      6  C   UNL     1       3.572  -3.712   0.000  0.00  0.00    +0.035 C 
ATOM      7  C   UNL     1       3.572  -2.888   0.000  0.00  0.00    +0.073 C 
BRANCH   2   9
ATOM      8  C   UNL     1       2.143  -1.238   0.000  0.00  0.00    +0.017 C 
ATOM      9  C   UNL     1       2.858  -1.650   0.000  0.00  0.00    +0.058 C 
ATOM     10  C   UNL     1       3.572  -1.238   0.000  0.00  0.00    +0.017 C 
ENDBRANCH   2   9
ENDBRANCH   1   5
BRANCH   1  11
ATOM     11  C   UNL     1       2.143  -5.362   0.000  0.00  0.00    +0.093 C 
BRANCH  11  12
ATOM     12  C   UNL     1       2.143  -6.188   0.000  0.00  0.00    +0.045 C 
BRANCH  12  13
ATOM     13  C   UNL     1       1.429  -6.600   0.000  0.00  0.00    -0.022 A 
ATOM     14  C   UNL     1       0.715  -6.188   0.000  0.00  0.00    -0.007 A 
ATOM     15  C   UNL     1       0.715  -5.362   0.000  0.00  0.00    +0.032 C 
ATOM     16  C   UNL     1       0.000  -6.600   0.000  0.00  0.00    +0.094 A 
ATOM     17  N   UNL     1       0.000  -7.425   0.000  0.00  0.00    -0.243 NA
ATOM     18  C   UNL     1       0.715  -7.838   0.000  0.00  0.00    +0.099 A 
ATOM     19  C   UNL     1       1.429  -7.425   0.000  0.00  0.00    +0.016 A 
ENDBRANCH  12  13
ENDBRANCH  11  12
ENDBRANCH   1  11
TORSDOF 5
