REMARK  Name = 
REMARK  1 active torsions:
REMARK  status: ('A' for Active; 'I' for Inactive)
REMARK    1  A    between atoms: C_2  and  C_3
REMARK                            x       y       z     vdW  Elec       q    Type
REMARK                         _______ _______ _______ _____ _____    ______ ____
ROOT
ATOM      1  C   UNL     1       0.715  -1.238   0.000  0.00  0.00    +0.001 A 
ATOM      2  C   UNL     1       0.000  -1.650   0.000  0.00  0.00    +0.032 A 
ATOM      3  C   UNL     1       0.000  -2.475   0.000  0.00  0.00    +0.132 A 
ATOM      4  N   UNL     1      -0.715  -2.888   0.000  0.00  0.00    -0.288 N 
ATOM      5  C   UNL     1      -1.429  -2.475   0.000  0.00  0.00    +0.124 C 
ATOM      6  C   UNL     1      -2.143  -2.888   0.000  0.00  0.00    +0.164 C 
ATOM      7  O   UNL     1      -2.143  -3.712   0.000  0.00  0.00    -0.350 OA
ATOM      8  C   UNL     1      -1.429  -4.125   0.000  0.00  0.00    +0.164 C 
ATOM      9  C   UNL     1      -0.715  -3.712   0.000  0.00  0.00    +0.124 C 
ATOM     10  N   UNL     1       0.715  -2.888   0.000  0.00  0.00    -0.229 NA
ATOM     11  C   UNL     1       1.429  -2.475   0.000  0.00  0.00    +0.100 A 
ATOM     12  C   UNL     1       1.429  -1.650   0.000  0.00  0.00    +0.018 A 
ENDROOT
BRANCH   1  14
ATOM     13  N   UNL     1       1.429   0.000   0.000  0.00  0.00    -0.126 NA
ATOM     14  C   UNL     1       0.715  -0.412   0.000  0.00  0.00    +0.136 C 
ENDBRANCH   1  14
TORSDOF 1
