REMARK  Name = 
REMARK  3 active torsions:
REMARK  status: ('A' for Active; 'I' for Inactive)
REMARK    1  A    between atoms: C_2  and  C_3
REMARK    2  A    between atoms: C_3  and  N_4
REMARK    3  A    between atoms: N_11  and  C_12
REMARK                            x       y       z     vdW  Elec       q    Type
REMARK                         _______ _______ _______ _____ _____    ______ ____
ROOT
ATOM      1  O   UNL     1       3.521  -2.156   0.000  0.00  0.00    -0.271 OA
ATOM      2  C   UNL     1       2.807  -1.744   0.000  0.00  0.00    +0.265 C 
ATOM      3  N   UNL     1       2.807  -0.919   0.000  0.00  0.00    -0.196 NA
ENDROOT
BRANCH   3   4
ATOM      4  C   UNL     1       3.521  -0.506   0.000  0.00  0.00    +0.173 C 
ATOM      5  C   UNL     1       4.203  -0.971   0.000  0.00  0.00    +0.261 C 
ATOM      6  O   UNL     1       4.080  -1.787   0.000  0.00  0.00    -0.271 OA
ATOM      7  N   UNL     1       4.991  -0.728   0.000  0.00  0.00    -0.204 NA
ATOM      8  C   UNL     1       5.293   0.040   0.000  0.00  0.00    +0.115 C 
ATOM      9  C   UNL     1       4.880   0.754   0.000  0.00  0.00    +0.024 C 
ATOM     10  C   UNL     1       4.064   0.877   0.000  0.00  0.00    +0.004 C 
ATOM     11  C   UNL     1       3.459   0.316   0.000  0.00  0.00    +0.031 C 
ENDBRANCH   3   4
BRANCH   2  12
ATOM     12  C   UNL     1       2.092  -2.156   0.000  0.00  0.00    +0.196 C 
BRANCH  12  13
ATOM     13  N   UNL     1       2.092  -2.981   0.000  0.00  0.00    -0.285 N 
ATOM     14  C   UNL     1       1.378  -3.394   0.000  0.00  0.00    +0.261 A 
ATOM     15  O   UNL     1       0.663  -2.981   0.000  0.00  0.00    -0.267 OA
ATOM     16  C   UNL     1       1.378  -4.219   0.000  0.00  0.00    +0.061 A 
ATOM     17  C   UNL     1       2.092  -4.631   0.000  0.00  0.00    +0.006 A 
ATOM     18  C   UNL     1       2.807  -4.219   0.000  0.00  0.00    +0.019 A 
ATOM     19  C   UNL     1       2.807  -3.394   0.000  0.00  0.00    +0.079 A 
ENDBRANCH  12  13
ENDBRANCH   2  12
TORSDOF 3
