REMARK  Name = 
REMARK  2 active torsions:
REMARK  status: ('A' for Active; 'I' for Inactive)
REMARK    1  A    between atoms: C_2  and  N_4
REMARK    2  A    between atoms: C_7  and  N_8
REMARK                            x       y       z     vdW  Elec       q    Type
REMARK                         _______ _______ _______ _____ _____    ______ ____
ROOT
ATOM      1  N   UNL     1       3.595  -1.611   0.000  0.00  0.00    -0.280 N 
ATOM      2  C   UNL     1       2.928  -2.096   0.000  0.00  0.00    +0.246 C 
ATOM      3  O   UNL     1       2.143  -1.841   0.000  0.00  0.00    -0.273 OA
ATOM      4  C   UNL     1       3.182  -2.881   0.000  0.00  0.00    +0.175 C 
ATOM      5  C   UNL     1       4.007  -2.881   0.000  0.00  0.00    +0.053 C 
ATOM      6  C   UNL     1       4.262  -2.096   0.000  0.00  0.00    +0.096 C 
ENDROOT
BRANCH   4   7
ATOM      7  N   UNL     1       2.697  -3.548   0.000  0.00  0.00    -0.179 NA
ATOM      8  C   UNL     1       1.877  -3.462   0.000  0.00  0.00    +0.348 C 
ATOM      9  N   UNL     1       1.392  -4.130   0.000  0.00  0.00    -0.108 NA
ATOM     10  C   UNL     1       0.572  -4.043   0.000  0.00  0.00    +0.317 A 
ATOM     11  O   UNL     1       0.159  -3.329   0.000  0.00  0.00    -0.419 OA
ATOM     12  C   UNL     1      -0.648  -3.500   0.000  0.00  0.00    +0.204 A 
ATOM     13  C   UNL     1      -0.734  -4.321   0.000  0.00  0.00    +0.144 A 
ATOM     14  N   UNL     1       0.020  -4.656   0.000  0.00  0.00    -0.191 NA
ATOM     15  O   UNL     1       1.541  -2.708   0.000  0.00  0.00    -0.249 OA
ENDBRANCH   4   7
BRANCH   1  17
ATOM     16  C   UNL     1       4.309  -0.374   0.000  0.00  0.00    +0.022 C 
ATOM     17  C   UNL     1       3.595  -0.786   0.000  0.00  0.00    +0.075 C 
ATOM     18  C   UNL     1       2.880  -0.374   0.000  0.00  0.00    +0.022 C 
ENDBRANCH   1  17
TORSDOF 2
