REMARK  Name = 
REMARK  7 active torsions:
REMARK  status: ('A' for Active; 'I' for Inactive)
REMARK    1  A    between atoms: C_2  and  C_3
REMARK    2  A    between atoms: C_3  and  C_4
REMARK    3  A    between atoms: C_4  and  C_5
REMARK    4  A    between atoms: C_5  and  C_6
REMARK    5  A    between atoms: C_6  and  C_7
REMARK    6  A    between atoms: N_9  and  C_10
REMARK    7  A    between atoms: C_15  and  N_16
REMARK                            x       y       z     vdW  Elec       q    Type
REMARK                         _______ _______ _______ _____ _____    ______ ____
ROOT
ATOM      1  C   UNL     1      11.431  -0.825   0.000  0.00  0.00    +0.106 A 
ATOM      2  C   UNL     1      12.146  -1.238   0.000  0.00  0.00    +0.067 A 
ATOM      3  C   UNL     1      12.861  -0.825   0.000  0.00  0.00    +0.037 A 
ATOM      4  C   UNL     1      12.861   0.000   0.000  0.00  0.00    +0.100 A 
ATOM      5  N   UNL     1      12.146   0.412   0.000  0.00  0.00    -0.241 NA
ATOM      6  C   UNL     1      11.431   0.000   0.000  0.00  0.00    +0.117 A 
ENDROOT
BRANCH   2   7
ATOM      7  N   UNL     1      12.146  -2.062   0.000  0.00  0.00    -0.302 N 
ATOM      8  C   UNL     1      11.431  -2.475   0.000  0.00  0.00    +0.123 C 
ATOM      9  C   UNL     1      11.431  -3.300   0.000  0.00  0.00    +0.164 C 
ATOM     10  O   UNL     1      12.146  -3.712   0.000  0.00  0.00    -0.350 OA
ATOM     11  C   UNL     1      12.861  -3.300   0.000  0.00  0.00    +0.164 C 
ATOM     12  C   UNL     1      12.861  -2.475   0.000  0.00  0.00    +0.123 C 
ENDBRANCH   2   7
BRANCH   1  15
ATOM     13  O   UNL     1      10.003   0.000   0.000  0.00  0.00    -0.273 OA
ATOM     14  C   UNL     1      10.003  -0.825   0.000  0.00  0.00    +0.246 C 
ATOM     15  N   UNL     1      10.717  -1.238   0.000  0.00  0.00    -0.176 NA
BRANCH  14  16
ATOM     16  C   UNL     1       9.288  -1.238   0.000  0.00  0.00    +0.087 C 
BRANCH  16  17
ATOM     17  C   UNL     1       8.574  -0.825   0.000  0.00  0.00    +0.011 C 
BRANCH  17  18
ATOM     18  C   UNL     1       7.859  -1.238   0.000  0.00  0.00    +0.014 C 
BRANCH  18  19
ATOM     19  C   UNL     1       7.145  -0.825   0.000  0.00  0.00    +0.077 C 
BRANCH  19  20
ATOM     20  C   UNL     1       6.430  -1.238   0.000  0.00  0.00    -0.078 C 
ATOM     21  C   UNL     1       5.716  -1.650   0.000  0.00  0.00    -0.014 C 
ENDBRANCH  19  20
ENDBRANCH  18  19
ENDBRANCH  17  18
ENDBRANCH  16  17
ENDBRANCH  14  16
ENDBRANCH   1  15
TORSDOF 7
