REMARK  Name = 
REMARK  4 active torsions:
REMARK  status: ('A' for Active; 'I' for Inactive)
REMARK    1  A    between atoms: C_2  and  C_4
REMARK    2  A    between atoms: C_7  and  C_8
REMARK    3  A    between atoms: C_8  and  C_9
REMARK    4  A    between atoms: C_9  and  N_10
REMARK                            x       y       z     vdW  Elec       q    Type
REMARK                         _______ _______ _______ _____ _____    ______ ____
ROOT
ATOM      1  N   UNL     1       2.143  -2.888   0.000  0.00  0.00    -0.188 NA
ATOM      2  C   UNL     1       2.858  -2.475   0.000  0.00  0.00    +0.323 C 
ATOM      3  N   UNL     1       3.572  -2.888   0.000  0.00  0.00    -0.264 N 
ATOM      4  C   UNL     1       3.572  -3.712   0.000  0.00  0.00    +0.077 C 
ATOM      5  C   UNL     1       2.858  -4.125   0.000  0.00  0.00    +0.022 C 
ATOM      6  C   UNL     1       4.287  -4.125   0.000  0.00  0.00    +0.020 C 
ATOM      7  C   UNL     1       5.001  -3.712   0.000  0.00  0.00    +0.003 C 
ATOM      8  C   UNL     1       5.716  -4.125   0.000  0.00  0.00    +0.000 C 
ATOM      9  C   UNL     1       5.001  -2.888   0.000  0.00  0.00    +0.022 C 
ATOM     10  C   UNL     1       4.287  -2.475   0.000  0.00  0.00    +0.095 C 
ATOM     11  O   UNL     1       2.858  -1.650   0.000  0.00  0.00    -0.251 OA
ENDROOT
BRANCH   1  12
ATOM     12  C   UNL     1       1.429  -2.475   0.000  0.00  0.00    +0.127 C 
BRANCH  12  13
ATOM     13  C   UNL     1       0.715  -2.888   0.000  0.00  0.00    +0.111 C 
BRANCH  13  16
ATOM     14  C   UNL     1      -1.306  -2.197   0.000  0.00  0.00    +0.180 A 
ATOM     15  N   UNL     1      -0.754  -2.811   0.000  0.00  0.00    -0.195 NA
ATOM     16  C   UNL     1       0.000  -2.475   0.000  0.00  0.00    +0.238 A 
ATOM     17  O   UNL     1      -0.086  -1.655   0.000  0.00  0.00    -0.337 OA
ATOM     18  N   UNL     1      -0.893  -1.483   0.000  0.00  0.00    -0.061 NA
BRANCH  14  20
ATOM     19  C   UNL     1      -2.611  -1.616   0.000  0.00  0.00    +0.008 C 
ATOM     20  C   UNL     1      -2.126  -2.284   0.000  0.00  0.00    +0.062 C 
ATOM     21  C   UNL     1      -2.462  -3.037   0.000  0.00  0.00    +0.008 C 
ENDBRANCH  14  20
ENDBRANCH  13  16
ENDBRANCH  12  13
ENDBRANCH   1  12
TORSDOF 4
