REMARK  Name = 
REMARK  7 active torsions:
REMARK  status: ('A' for Active; 'I' for Inactive)
REMARK    1  A    between atoms: O_2  and  C_3
REMARK    2  A    between atoms: C_3  and  C_4
REMARK    3  A    between atoms: C_4  and  O_5
REMARK    4  A    between atoms: O_5  and  C_6
REMARK    5  A    between atoms: C_9  and  N_10
REMARK    6  A    between atoms: C_11  and  C_13
REMARK    7  A    between atoms: N_15  and  C_16
REMARK                            x       y       z     vdW  Elec       q    Type
REMARK                         _______ _______ _______ _____ _____    ______ ____
ROOT
ATOM      1  N   UNL     1       5.716  -4.125   0.000  0.00  0.00    -0.178 NA
ATOM      2  C   UNL     1       6.430  -3.712   0.000  0.00  0.00    +0.247 C 
ATOM      3  O   UNL     1       6.430  -2.888   0.000  0.00  0.00    -0.273 OA
ENDROOT
BRANCH   1   7
ATOM      4  C   UNL     1       3.572  -2.888   0.000  0.00  0.00    +0.225 A 
ATOM      5  N   UNL     1       3.572  -3.712   0.000  0.00  0.00    -0.209 NA
ATOM      6  C   UNL     1       4.287  -4.125   0.000  0.00  0.00    +0.119 A 
ATOM      7  C   UNL     1       5.001  -3.712   0.000  0.00  0.00    +0.093 A 
ATOM      8  C   UNL     1       5.001  -2.888   0.000  0.00  0.00    +0.023 A 
ATOM      9  C   UNL     1       4.287  -2.475   0.000  0.00  0.00    +0.059 A 
BRANCH   4  10
ATOM     10  O   UNL     1       2.858  -2.475   0.000  0.00  0.00    -0.457 OA
BRANCH  10  11
ATOM     11  C   UNL     1       2.143  -2.888   0.000  0.00  0.00    +0.239 C 
BRANCH  11  12
ATOM     12  C   UNL     1       1.429  -2.475   0.000  0.00  0.00    +0.189 C 
BRANCH  12  14
ATOM     13  C   UNL     1       0.000  -2.475   0.000  0.00  0.00    +0.174 C 
ATOM     14  O   UNL     1       0.715  -2.888   0.000  0.00  0.00    -0.347 OA
ENDBRANCH  12  14
ENDBRANCH  11  12
ENDBRANCH  10  11
ENDBRANCH   4  10
ENDBRANCH   1   7
BRANCH   2  15
ATOM     15  C   UNL     1       7.145  -4.125   0.000  0.00  0.00    +0.107 C 
ATOM     16  C   UNL     1       7.231  -4.946   0.000  0.00  0.00    +0.096 C 
ATOM     17  C   UNL     1       8.038  -5.117   0.000  0.00  0.00    +0.226 C 
ATOM     18  O   UNL     1       8.373  -5.871   0.000  0.00  0.00    -0.275 OA
ATOM     19  N   UNL     1       8.450  -4.402   0.000  0.00  0.00    -0.281 N 
ATOM     20  C   UNL     1       7.898  -3.789   0.000  0.00  0.00    +0.103 C 
BRANCH  19  21
ATOM     21  C   UNL     1       9.271  -4.316   0.000  0.00  0.00    +0.075 C 
ATOM     22  C   UNL     1       9.756  -4.984   0.000  0.00  0.00    +0.022 C 
ATOM     23  C   UNL     1       9.607  -3.563   0.000  0.00  0.00    +0.022 C 
ENDBRANCH  19  21
ENDBRANCH   2  15
TORSDOF 7
