REMARK  Name = 
REMARK  2 active torsions:
REMARK  status: ('A' for Active; 'I' for Inactive)
REMARK    1  A    between atoms: C_2  and  CA_4
REMARK    2  A    between atoms: C_9  and  N_10
REMARK                            x       y       z     vdW  Elec       q    Type
REMARK                         _______ _______ _______ _____ _____    ______ ____
ROOT
ATOM      1  CA  UNL     1       0.715  -1.238   0.000  0.00  0.00    +0.173 A 
ATOM      2  C   UNL     1       0.000  -1.650   0.000  0.00  0.00    +0.096 A 
ATOM      3 CL   UNL     1      -0.715  -1.238   0.000  0.00  0.00    -0.079 Cl
ATOM      4  C   UNL     1       0.000  -2.475   0.000  0.00  0.00    +0.073 A 
ATOM      5  C   UNL     1       0.715  -2.888   0.000  0.00  0.00    +0.091 A 
ATOM      6 CL   UNL     1       0.715  -3.712   0.000  0.00  0.00    -0.079 Cl
ATOM      7  C   UNL     1       1.429  -2.475   0.000  0.00  0.00    +0.112 A 
ATOM      8  N   UNL     1       1.429  -1.650   0.000  0.00  0.00    -0.235 NA
ENDROOT
BRANCH   4   9
ATOM      9  N   UNL     1      -0.715  -2.888   0.000  0.00  0.00    -0.301 N 
ATOM     10  C   UNL     1      -1.429  -2.475   0.000  0.00  0.00    +0.123 C 
ATOM     11  C   UNL     1      -2.143  -2.888   0.000  0.00  0.00    +0.164 C 
ATOM     12  O   UNL     1      -2.143  -3.712   0.000  0.00  0.00    -0.350 OA
ATOM     13  C   UNL     1      -1.429  -4.125   0.000  0.00  0.00    +0.164 C 
ATOM     14  C   UNL     1      -0.715  -3.712   0.000  0.00  0.00    +0.123 C 
ENDBRANCH   4   9
BRANCH   1  16
ATOM     15  O   UNL     1       1.429   0.000   0.000  0.00  0.00    -0.239 OA
ATOM     16  C   UNL     1       0.715  -0.412   0.000  0.00  0.00    +0.406 C 
ATOM     17  OXT UNL     1       0.000   0.000   0.000  0.00  0.00    -0.239 OA
ENDBRANCH   1  16
TORSDOF 2
