REMARK  Name = 
REMARK  2 active torsions:
REMARK  status: ('A' for Active; 'I' for Inactive)
REMARK    1  A    between atoms: N_8  and  C_9
REMARK    2  A    between atoms: N_12  and  C_14
REMARK                            x       y       z     vdW  Elec       q    Type
REMARK                         _______ _______ _______ _____ _____    ______ ____
ROOT
ATOM      1  C   UNL     1       2.083   9.135   0.000  0.00  0.00    +0.075 C 
ATOM      2  C   UNL     1       1.369   8.723   0.000  0.00  0.00    +0.156 A 
ATOM      3  O   UNL     1       0.615   9.058   0.000  0.00  0.00    -0.356 OA
ATOM      4  N   UNL     1       0.063   8.445   0.000  0.00  0.00    -0.060 NA
ATOM      5  C   UNL     1       0.475   7.731   0.000  0.00  0.00    +0.197 A 
ATOM      6  N   UNL     1       0.140   6.977   0.000  0.00  0.00    -0.139 NA
ATOM      7  C   UNL     1       0.625   6.309   0.000  0.00  0.00    +0.345 C 
ATOM      8  N   UNL     1       0.289   5.556   0.000  0.00  0.00    -0.187 NA
ATOM      9  O   UNL     1       1.445   6.396   0.000  0.00  0.00    -0.249 OA
ATOM     10  C   UNL     1       1.282   7.902   0.000  0.00  0.00    +0.075 A 
ENDROOT
BRANCH   8  11
ATOM     11  C   UNL     1       0.774   4.888   0.000  0.00  0.00    +0.114 C 
ATOM     12  C   UNL     1       0.519   4.104   0.000  0.00  0.00    +0.094 C 
ATOM     13  N   UNL     1       1.187   3.619   0.000  0.00  0.00    -0.272 NA
ATOM     14  C   UNL     1       1.854   4.104   0.000  0.00  0.00    +0.074 C 
ATOM     15  C   UNL     1       1.599   4.888   0.000  0.00  0.00    +0.040 C 
BRANCH  13  16
ATOM     16  C   UNL     1       1.187   2.794   0.000  0.00  0.00    +0.058 C 
ATOM     17  C   UNL     1       0.774   2.079   0.000  0.00  0.00    +0.017 C 
ATOM     18  C   UNL     1       1.599   2.079   0.000  0.00  0.00    +0.017 C 
ENDBRANCH  13  16
ENDBRANCH   8  11
TORSDOF 2
