REMARK  Name = 
REMARK  5 active torsions:
REMARK  status: ('A' for Active; 'I' for Inactive)
REMARK    1  A    between atoms: C_2  and  N_4
REMARK    2  A    between atoms: C_9  and  C_10
REMARK    3  A    between atoms: N_12  and  C_13
REMARK    4  A    between atoms: C_13  and  C_14
REMARK    5  A    between atoms: C_14  and  C_15
REMARK                            x       y       z     vdW  Elec       q    Type
REMARK                         _______ _______ _______ _____ _____    ______ ____
ROOT
ATOM      1  C   UNL     1       1.429  -0.825   0.000  0.00  0.00    +0.256 C 
ATOM      2  N   UNL     1       2.143  -1.238   0.000  0.00  0.00    -0.204 NA
ATOM      3  O   UNL     1       1.429   0.000   0.000  0.00  0.00    -0.272 OA
ENDROOT
BRANCH   1   5
ATOM      4  N   UNL     1       0.715  -2.062   0.000  0.00  0.00    -0.268 NA
ATOM      5  C   UNL     1       0.715  -1.238   0.000  0.00  0.00    +0.136 C 
ATOM      6  C   UNL     1       0.000  -0.825   0.000  0.00  0.00    +0.025 C 
ATOM      7  C   UNL     1      -0.715  -1.238   0.000  0.00  0.00    +0.003 C 
ATOM      8  C   UNL     1      -0.715  -2.062   0.000  0.00  0.00    +0.017 C 
ATOM      9  C   UNL     1       0.000  -2.475   0.000  0.00  0.00    +0.072 C 
BRANCH   4  11
ATOM     10  C   UNL     1       1.429  -3.300   0.000  0.00  0.00    +0.017 C 
ATOM     11  C   UNL     1       1.429  -2.475   0.000  0.00  0.00    +0.058 C 
ATOM     12  C   UNL     1       2.143  -2.062   0.000  0.00  0.00    +0.017 C 
ENDBRANCH   4  11
ENDBRANCH   1   5
BRANCH   2  13
ATOM     13  C   UNL     1       2.858  -0.825   0.000  0.00  0.00    +0.120 C 
BRANCH  13  14
ATOM     14  C   UNL     1       3.572  -1.238   0.000  0.00  0.00    +0.053 C 
BRANCH  14  15
ATOM     15  C   UNL     1       4.287  -0.825   0.000  0.00  0.00    +0.019 A 
ATOM     16  C   UNL     1       5.040  -1.161   0.000  0.00  0.00    +0.092 A 
ATOM     17  N   UNL     1       5.593  -0.547   0.000  0.00  0.00    -0.248 N 
ATOM     18  C   UNL     1       6.413  -0.634   0.000  0.00  0.00    +0.154 C 
ATOM     19  N   UNL     1       5.180   0.167   0.000  0.00  0.00    -0.168 NA
ATOM     20  C   UNL     1       4.373  -0.004   0.000  0.00  0.00    +0.117 A 
ENDBRANCH  14  15
ENDBRANCH  13  14
ENDBRANCH   2  13
TORSDOF 5
