REMARK  Name = 
REMARK  4 active torsions:
REMARK  status: ('A' for Active; 'I' for Inactive)
REMARK    1  A    between atoms: C_5  and  N_8
REMARK    2  A    between atoms: C_9  and  C_11
REMARK    3  A    between atoms: C_11  and  N_12
REMARK    4  A    between atoms: C_15  and  C_17
REMARK                            x       y       z     vdW  Elec       q    Type
REMARK                         _______ _______ _______ _____ _____    ______ ____
ROOT
ATOM      1  N   UNL     1      -0.608   6.828   0.000  0.00  0.00    -0.206 NA
ATOM      2  C   UNL     1      -0.608   6.003   0.000  0.00  0.00    +0.266 C 
ATOM      3  O   UNL     1       0.107   5.590   0.000  0.00  0.00    -0.271 OA
ENDROOT
BRANCH   1   8
ATOM      4  C   UNL     1       2.250   8.478   0.000  0.00  0.00    +0.000 C 
ATOM      5  C   UNL     1       1.536   8.065   0.000  0.00  0.00    +0.000 C 
ATOM      6  C   UNL     1       0.821   8.478   0.000  0.00  0.00    +0.002 C 
ATOM      7  C   UNL     1       0.107   8.065   0.000  0.00  0.00    +0.022 C 
ATOM      8  C   UNL     1       0.107   7.240   0.000  0.00  0.00    +0.095 C 
ATOM      9  C   UNL     1       0.821   6.828   0.000  0.00  0.00    +0.022 C 
ATOM     10  C   UNL     1       1.536   7.240   0.000  0.00  0.00    +0.002 C 
ENDBRANCH   1   8
BRANCH   2  11
ATOM     11  C   UNL     1      -1.322   5.590   0.000  0.00  0.00    +0.214 C 
BRANCH  11  12
ATOM     12  N   UNL     1      -1.322   4.765   0.000  0.00  0.00    -0.240 N 
ATOM     13  N   UNL     1      -1.990   4.280   0.000  0.00  0.00    -0.165 NA
ATOM     14  C   UNL     1      -1.735   3.496   0.000  0.00  0.00    +0.174 A 
ATOM     15  C   UNL     1      -0.910   3.496   0.000  0.00  0.00    +0.045 A 
ATOM     16  C   UNL     1      -0.655   4.280   0.000  0.00  0.00    +0.097 A 
BRANCH  14  17
ATOM     17  C   UNL     1      -2.220   2.828   0.000  0.00  0.00    +0.437 C 
ATOM     18  F   UNL     1      -1.552   2.343   0.000  0.00  0.00    -0.164 F 
ATOM     19  F   UNL     1      -2.887   3.313   0.000  0.00  0.00    -0.164 F 
ATOM     20  F   UNL     1      -2.705   2.161   0.000  0.00  0.00    -0.164 F 
ENDBRANCH  14  17
ENDBRANCH  11  12
ENDBRANCH   2  11
TORSDOF 4
