REMARK  Name = 
REMARK  4 active torsions:
REMARK  status: ('A' for Active; 'I' for Inactive)
REMARK    1  A    between atoms: N_10  and  C_11
REMARK    2  A    between atoms: C_11  and  C_12
REMARK    3  A    between atoms: C_12  and  C_14
REMARK    4  A    between atoms: C_14  and  N_15
REMARK                            x       y       z     vdW  Elec       q    Type
REMARK                         _______ _______ _______ _____ _____    ______ ____
ROOT
ATOM      1  C   UNL     1      -0.171  -0.698   0.000  0.00  0.00    +0.072 C 
ATOM      2  C   UNL     1       0.654  -0.698   0.000  0.00  0.00    +0.121 A 
ATOM      3  N   UNL     1       1.139  -1.365   0.000  0.00  0.00    -0.312 N 
ATOM      4  C   UNL     1       1.923  -1.110   0.000  0.00  0.00    +0.079 A 
ATOM      5  C   UNL     1       1.923  -0.285   0.000  0.00  0.00    +0.098 A 
ATOM      6  C   UNL     1       2.638   0.127   0.000  0.00  0.00    +0.021 A 
ATOM      7  C   UNL     1       3.352  -0.285   0.000  0.00  0.00    +0.002 A 
ATOM      8  C   UNL     1       3.352  -1.110   0.000  0.00  0.00    +0.002 A 
ATOM      9  C   UNL     1       2.638  -1.523   0.000  0.00  0.00    +0.019 A 
ATOM     10  N   UNL     1       1.139  -0.030   0.000  0.00  0.00    -0.231 NA
ENDROOT
BRANCH   3  11
ATOM     11  C   UNL     1       0.884  -2.150   0.000  0.00  0.00    +0.141 C 
BRANCH  11  12
ATOM     12  C   UNL     1       0.077  -2.321   0.000  0.00  0.00    +0.190 C 
ATOM     13  O   UNL     1      -0.475  -1.708   0.000  0.00  0.00    -0.220 OA
BRANCH  12  14
ATOM     14  C   UNL     1      -0.178  -3.106   0.000  0.00  0.00    +0.108 C 
BRANCH  14  15
ATOM     15  N   UNL     1      -0.985  -3.278   0.000  0.00  0.00    -0.266 NA
ATOM     16  C   UNL     1      -1.537  -2.665   0.000  0.00  0.00    +0.105 C 
ATOM     17  C   UNL     1      -2.344  -2.836   0.000  0.00  0.00    +0.159 C 
ATOM     18  O   UNL     1      -2.599  -3.621   0.000  0.00  0.00    -0.351 OA
ATOM     19  C   UNL     1      -2.047  -4.234   0.000  0.00  0.00    +0.159 C 
ATOM     20  C   UNL     1      -1.240  -4.062   0.000  0.00  0.00    +0.105 C 
ENDBRANCH  14  15
ENDBRANCH  12  14
ENDBRANCH  11  12
ENDBRANCH   3  11
TORSDOF 4
