REMARK  Name = 
REMARK  2 active torsions:
REMARK  status: ('A' for Active; 'I' for Inactive)
REMARK    1  A    between atoms: C_6  and  N_7
REMARK    2  A    between atoms: N_10  and  C_11
REMARK                            x       y       z     vdW  Elec       q    Type
REMARK                         _______ _______ _______ _____ _____    ______ ____
ROOT
ATOM      1  N   UNL     1       1.429  -4.125   0.000  0.00  0.00    -0.156 NA
ATOM      2  C   UNL     1       0.715  -3.712   0.000  0.00  0.00    +0.344 C 
ATOM      3  N   UNL     1       0.000  -4.125   0.000  0.00  0.00    -0.189 NA
ATOM      4  O   UNL     1       0.715  -2.888   0.000  0.00  0.00    -0.249 OA
ENDROOT
BRANCH   1   9
ATOM      5  C   UNL     1       2.858  -1.650   0.000  0.00  0.00    +0.134 C 
ATOM      6  N   UNL     1       2.858  -2.475   0.000  0.00  0.00    -0.291 N 
ATOM      7  C   UNL     1       2.143  -2.888   0.000  0.00  0.00    +0.276 A 
ATOM      8  O   UNL     1       1.429  -2.475   0.000  0.00  0.00    -0.266 OA
ATOM      9  C   UNL     1       2.143  -3.712   0.000  0.00  0.00    +0.131 A 
ATOM     10  C   UNL     1       2.858  -4.125   0.000  0.00  0.00    +0.023 A 
ATOM     11  C   UNL     1       3.572  -3.712   0.000  0.00  0.00    +0.020 A 
ATOM     12  C   UNL     1       3.572  -2.888   0.000  0.00  0.00    +0.078 A 
ENDBRANCH   1   9
BRANCH   3  13
ATOM     13  C   UNL     1      -0.715  -3.712   0.000  0.00  0.00    +0.097 C 
ATOM     14  C   UNL     1      -0.715  -2.888   0.000  0.00  0.00    +0.022 C 
ATOM     15  C   UNL     1      -1.429  -2.475   0.000  0.00  0.00    +0.002 C 
ATOM     16  C   UNL     1      -2.143  -2.888   0.000  0.00  0.00    +0.000 C 
ATOM     17  C   UNL     1      -2.426  -2.112   0.000  0.00  0.00    +0.000 C 
ATOM     18  C   UNL     1      -2.956  -3.031   0.000  0.00  0.00    +0.000 C 
ATOM     19  C   UNL     1      -2.143  -3.712   0.000  0.00  0.00    +0.002 C 
ATOM     20  C   UNL     1      -1.429  -4.125   0.000  0.00  0.00    +0.022 C 
ENDBRANCH   3  13
TORSDOF 2
