REMARK  Name = 
REMARK  3 active torsions:
REMARK  status: ('A' for Active; 'I' for Inactive)
REMARK    1  A    between atoms: N_6  and  C_7
REMARK    2  A    between atoms: C_7  and  C_8
REMARK    3  A    between atoms: C_15  and  C_16
REMARK                            x       y       z     vdW  Elec       q    Type
REMARK                         _______ _______ _______ _____ _____    ______ ____
ROOT
ATOM      1  C   UNL     1      -0.821   6.003   0.000  0.00  0.00    +0.032 C 
ATOM      2  C   UNL     1      -0.107   5.590   0.000  0.00  0.00    -0.003 A 
ATOM      3  C   UNL     1      -0.107   4.765   0.000  0.00  0.00    +0.121 A 
ATOM      4  C   UNL     1       0.608   4.353   0.000  0.00  0.00    +0.273 A 
ATOM      5  O   UNL     1       0.608   3.528   0.000  0.00  0.00    -0.266 OA
ATOM      6  N   UNL     1       1.322   4.765   0.000  0.00  0.00    -0.260 N 
ATOM      7  C   UNL     1       1.322   5.590   0.000  0.00  0.00    +0.263 A 
ATOM      8  O   UNL     1       2.037   6.003   0.000  0.00  0.00    -0.267 OA
ATOM      9  C   UNL     1       0.608   6.003   0.000  0.00  0.00    +0.057 A 
ENDROOT
BRANCH   3  10
ATOM     10  C   UNL     1      -0.821   4.353   0.000  0.00  0.00    +0.105 C 
ATOM     11  N   UNL     1      -1.536   3.940   0.000  0.00  0.00    -0.191 NA
ENDBRANCH   3  10
BRANCH   6  12
ATOM     12  C   UNL     1       2.037   4.353   0.000  0.00  0.00    +0.141 C 
BRANCH  12  13
ATOM     13  C   UNL     1       2.037   3.528   0.000  0.00  0.00    +0.138 C 
ATOM     14  O   UNL     1       1.369   3.043   0.000  0.00  0.00    -0.354 OA
ATOM     15  C   UNL     1       1.624   2.258   0.000  0.00  0.00    +0.142 C 
ATOM     16  C   UNL     1       2.449   2.258   0.000  0.00  0.00    +0.035 C 
ATOM     17  C   UNL     1       2.704   3.043   0.000  0.00  0.00    +0.034 C 
ENDBRANCH  12  13
ENDBRANCH   6  12
TORSDOF 3
