REMARK  Name = 
REMARK  7 active torsions:
REMARK  status: ('A' for Active; 'I' for Inactive)
REMARK    1  A    between atoms: C_2  and  N_3
REMARK    2  A    between atoms: C_2  and  C_18
REMARK    3  A    between atoms: N_3  and  C_4
REMARK    4  A    between atoms: C_4  and  C_5
REMARK    5  A    between atoms: N_14  and  C_15
REMARK    6  A    between atoms: C_15  and  C_16
REMARK    7  A    between atoms: C_18  and  N_20
REMARK                            x       y       z     vdW  Elec       q    Type
REMARK                         _______ _______ _______ _____ _____    ______ ____
ROOT
ATOM      1  C   UNL     1       1.515  -2.020   0.000  0.00  0.00    +0.138 A 
ATOM      2  N   UNL     1       1.429  -1.200   0.000  0.00  0.00    -0.311 N 
ATOM      3  C   UNL     1       0.622  -1.028   0.000  0.00  0.00    +0.079 A 
ATOM      4  C   UNL     1       0.209  -1.743   0.000  0.00  0.00    +0.099 A 
ATOM      5  C   UNL     1      -0.616  -1.743   0.000  0.00  0.00    +0.032 A 
ATOM      6  C   UNL     1      -1.028  -1.028   0.000  0.00  0.00    +0.059 A 
ATOM      7  C   UNL     1      -0.616  -0.314   0.000  0.00  0.00    +0.013 A 
ATOM      8 CL   UNL     1      -1.853  -1.028   0.000  0.00  0.00    -0.082 Cl
ATOM      9  C   UNL     1       0.209  -0.314   0.000  0.00  0.00    +0.020 A 
ATOM     10  N   UNL     1       0.761  -2.356   0.000  0.00  0.00    -0.229 NA
ENDROOT
BRANCH   2  11
ATOM     11  C   UNL     1       2.042  -0.648   0.000  0.00  0.00    +0.143 C 
BRANCH  11  12
ATOM     12  C   UNL     1       1.870   0.159   0.000  0.00  0.00    +0.206 C 
ATOM     13  O   UNL     1       2.483   0.711   0.000  0.00  0.00    -0.218 OA
ENDBRANCH  11  12
ENDBRANCH   2  11
BRANCH   1  14
ATOM     14  C   UNL     1       2.229  -2.433   0.000  0.00  0.00    +0.152 C 
BRANCH  14  15
ATOM     15  N   UNL     1       2.944  -2.020   0.000  0.00  0.00    -0.209 NA
BRANCH  15  17
ATOM     16  C   UNL     1       3.658  -3.258   0.000  0.00  0.00    +0.021 C 
ATOM     17  C   UNL     1       3.658  -2.433   0.000  0.00  0.00    +0.096 C 
BRANCH  17  18
ATOM     18  C   UNL     1       4.373  -2.020   0.000  0.00  0.00    +0.121 C 
ATOM     19  C   UNL     1       4.373  -1.195   0.000  0.00  0.00    +0.028 C 
BRANCH  18  20
ATOM     20  N   UNL     1       5.087  -2.433   0.000  0.00  0.00    -0.250 N 
ATOM     21  N   UNL     1       5.174  -3.253   0.000  0.00  0.00    -0.168 NA
ATOM     22  C   UNL     1       5.981  -3.425   0.000  0.00  0.00    +0.122 A 
ATOM     23  C   UNL     1       6.393  -2.710   0.000  0.00  0.00    +0.043 A 
ATOM     24  C   UNL     1       5.841  -2.097   0.000  0.00  0.00    +0.097 A 
ENDBRANCH  18  20
ENDBRANCH  17  18
ENDBRANCH  15  17
ENDBRANCH  14  15
ENDBRANCH   1  14
TORSDOF 7
