REMARK  Name = 
REMARK  3 active torsions:
REMARK  status: ('A' for Active; 'I' for Inactive)
REMARK    1  A    between atoms: O_2  and  C_3
REMARK    2  A    between atoms: C_3  and  C_4
REMARK    3  A    between atoms: C_4  and  N_5
REMARK                            x       y       z     vdW  Elec       q    Type
REMARK                         _______ _______ _______ _____ _____    ______ ____
ROOT
ATOM      1  N   UNL     1       1.139  -1.365   0.000  0.00  0.00    -0.292 N 
ATOM      2  C   UNL     1       1.923  -1.110   0.000  0.00  0.00    +0.155 A 
ATOM      3  C   UNL     1       1.923  -0.285   0.000  0.00  0.00    +0.171 A 
ATOM      4  N   UNL     1       2.638   0.127   0.000  0.00  0.00    -0.261 N 
ATOM      5  C   UNL     1       3.352  -0.285   0.000  0.00  0.00    +0.354 A 
ATOM      6  N   UNL     1       3.352  -1.110   0.000  0.00  0.00    -0.152 NA
ATOM      7  O   UNL     1       4.067   0.127   0.000  0.00  0.00    -0.244 OA
ATOM      8  C   UNL     1       2.638   0.952   0.000  0.00  0.00    +0.137 C 
ATOM      9  N   UNL     1       1.139  -0.030   0.000  0.00  0.00    -0.196 NA
ATOM     10  C   UNL     1       2.638  -1.523   0.000  0.00  0.00    +0.302 A 
ATOM     11  O   UNL     1       2.638  -2.348   0.000  0.00  0.00    -0.263 OA
ATOM     12  C   UNL     1       0.654  -0.698   0.000  0.00  0.00    +0.203 A 
ATOM     13  N   UNL     1      -0.171  -0.698   0.000  0.00  0.00    -0.279 N 
ATOM     14  C   UNL     1      -0.584   0.017   0.000  0.00  0.00    +0.094 C 
ATOM     15  C   UNL     1      -1.409   0.017   0.000  0.00  0.00    +0.022 C 
ATOM     16  C   UNL     1      -1.821  -0.698   0.000  0.00  0.00    +0.004 C 
ATOM     17  C   UNL     1      -1.409  -1.412   0.000  0.00  0.00    +0.022 C 
ATOM     18  C   UNL     1      -0.584  -1.412   0.000  0.00  0.00    +0.094 C 
ENDROOT
BRANCH   1  19
ATOM     19  C   UNL     1       0.884  -2.150   0.000  0.00  0.00    +0.141 C 
BRANCH  19  20
ATOM     20  C   UNL     1       0.077  -2.321   0.000  0.00  0.00    +0.167 C 
BRANCH  20  22
ATOM     21  C   UNL     1      -0.985  -3.278   0.000  0.00  0.00    +0.174 C 
ATOM     22  O   UNL     1      -0.178  -3.106   0.000  0.00  0.00    -0.349 OA
ENDBRANCH  20  22
ENDBRANCH  19  20
ENDBRANCH   1  19
TORSDOF 3
