REMARK  Name = 
REMARK  3 active torsions:
REMARK  status: ('A' for Active; 'I' for Inactive)
REMARK    1  A    between atoms: N_11  and  C_12
REMARK    2  A    between atoms: C_12  and  C_13
REMARK    3  A    between atoms: C_13  and  C_14
REMARK                            x       y       z     vdW  Elec       q    Type
REMARK                         _______ _______ _______ _____ _____    ______ ____
ROOT
ATOM      1  C   UNL     1      -3.572   3.712   0.000  0.00  0.00    +0.000 C 
ATOM      2  C   UNL     1      -2.858   3.300   0.000  0.00  0.00    +0.003 C 
ATOM      3  C   UNL     1      -2.858   2.475   0.000  0.00  0.00    +0.020 C 
ATOM      4  C   UNL     1      -2.143   2.062   0.000  0.00  0.00    +0.077 C 
ATOM      5  C   UNL     1      -2.143   1.238   0.000  0.00  0.00    +0.022 C 
ATOM      6  N   UNL     1      -1.429   2.475   0.000  0.00  0.00    -0.264 N 
ATOM      7  C   UNL     1      -0.715   2.062   0.000  0.00  0.00    +0.323 C 
ATOM      8  N   UNL     1       0.000   2.475   0.000  0.00  0.00    -0.188 NA
ATOM      9  O   UNL     1      -0.715   1.238   0.000  0.00  0.00    -0.251 OA
ATOM     10  C   UNL     1      -1.429   3.300   0.000  0.00  0.00    +0.095 C 
ATOM     11  C   UNL     1      -2.143   3.712   0.000  0.00  0.00    +0.022 C 
ENDROOT
BRANCH   8  12
ATOM     12  C   UNL     1       0.715   2.062   0.000  0.00  0.00    +0.127 C 
BRANCH  12  13
ATOM     13  C   UNL     1       1.429   2.475   0.000  0.00  0.00    +0.111 C 
BRANCH  13  14
ATOM     14  C   UNL     1       2.143   2.062   0.000  0.00  0.00    +0.238 A 
ATOM     15  O   UNL     1       2.230   1.242   0.000  0.00  0.00    -0.337 OA
ATOM     16  N   UNL     1       3.037   1.071   0.000  0.00  0.00    -0.061 NA
ATOM     17  C   UNL     1       3.449   1.785   0.000  0.00  0.00    +0.181 A 
ATOM     18  C   UNL     1       4.270   1.871   0.000  0.00  0.00    +0.077 C 
ATOM     19  N   UNL     1       2.897   2.398   0.000  0.00  0.00    -0.195 NA
ENDBRANCH  13  14
ENDBRANCH  12  13
ENDBRANCH   8  12
TORSDOF 3
