REMARK  Name = 
REMARK  3 active torsions:
REMARK  status: ('A' for Active; 'I' for Inactive)
REMARK    1  A    between atoms: N_4  and  C_5
REMARK    2  A    between atoms: C_5  and  C_7
REMARK    3  A    between atoms: C_5  and  C_10
REMARK                            x       y       z     vdW  Elec       q    Type
REMARK                         _______ _______ _______ _____ _____    ______ ____
ROOT
ATOM      1 CL   UNL     1       0.000   0.000   0.000  0.00  0.00    +0.000 Cl
ENDROOT
TORSDOF 0
REMARK  Name = 
REMARK  3 active torsions:
REMARK  status: ('A' for Active; 'I' for Inactive)
REMARK    1  A    between atoms: N_4  and  C_5
REMARK    2  A    between atoms: C_5  and  C_7
REMARK    3  A    between atoms: C_5  and  C_10
REMARK                            x       y       z     vdW  Elec       q    Type
REMARK                         _______ _______ _______ _____ _____    ______ ____
ROOT
ATOM      1 CL   UNL     1       2.004   0.000   0.000  0.00  0.00    +0.000 Cl
ENDROOT
TORSDOF 0
REMARK  Name = 
REMARK  3 active torsions:
REMARK  status: ('A' for Active; 'I' for Inactive)
REMARK    1  A    between atoms: N_4  and  C_5
REMARK    2  A    between atoms: C_5  and  C_7
REMARK    3  A    between atoms: C_5  and  C_10
REMARK                            x       y       z     vdW  Elec       q    Type
REMARK                         _______ _______ _______ _____ _____    ______ ____
ROOT
ATOM      1  C   UNL     1      -0.135  -2.888   0.000  0.00  0.00    +0.150 C 
ATOM      2  C   UNL     1      -0.960  -2.888   0.000  0.00  0.00    +0.031 C 
ENDROOT
BRANCH   1   3
ATOM      3  C   UNL     1      -0.135  -3.712   0.000  0.00  0.00    +0.003 A 
ATOM      4  C   UNL     1      -0.850  -4.125   0.000  0.00  0.00    +0.018 A 
ATOM      5  C   UNL     1      -0.850  -4.950   0.000  0.00  0.00    +0.099 A 
ATOM      6  N   UNL     1      -0.135  -5.362   0.000  0.00  0.00    -0.242 NA
ATOM      7  C   UNL     1       0.579  -4.950   0.000  0.00  0.00    +0.099 A 
ATOM      8  C   UNL     1       0.579  -4.125   0.000  0.00  0.00    +0.018 A 
ENDBRANCH   1   3
BRANCH   1   9
ATOM      9  C   UNL     1       0.690  -2.888   0.000  0.00  0.00    +0.279 C 
ATOM     10  N   UNL     1       1.102  -2.173   0.000  0.00  0.00    -0.086 NA
ATOM     11  O   UNL     1       1.102  -3.602   0.000  0.00  0.00    -0.270 OA
ENDBRANCH   1   9
BRANCH   1  13
ATOM     12  C   UNL     1      -0.850  -1.650   0.000  0.00  0.00    +0.108 C 
ATOM     13  N   UNL     1      -0.135  -2.062   0.000  0.00  0.00    -0.206 NA
ENDBRANCH   1  13
TORSDOF 3
