REMARK  Name = 
REMARK  7 active torsions:
REMARK  status: ('A' for Active; 'I' for Inactive)
REMARK    1  A    between atoms: C_2  and  C_3
REMARK    2  A    between atoms: C_2  and  N_9
REMARK    3  A    between atoms: C_3  and  N_4
REMARK    4  A    between atoms: N_9  and  C_10
REMARK    5  A    between atoms: C_10  and  C_11
REMARK    6  A    between atoms: C_11  and  O_12
REMARK    7  A    between atoms: O_12  and  C_13
REMARK                            x       y       z     vdW  Elec       q    Type
REMARK                         _______ _______ _______ _____ _____    ______ ____
ROOT
ATOM      1  C   UNL     1       3.572  -3.712   0.000  0.00  0.00    +0.121 C 
ENDROOT
BRANCH   1   2
ATOM      2  C   UNL     1       4.287  -4.125   0.000  0.00  0.00    +0.161 C 
BRANCH   2   3
ATOM      3  O   UNL     1       5.001  -3.712   0.000  0.00  0.00    -0.355 OA
BRANCH   3   4
ATOM      4  C   UNL     1       5.716  -4.125   0.000  0.00  0.00    +0.115 C 
ATOM      5  C   UNL     1       5.716  -4.950   0.000  0.00  0.00    +0.027 C 
ATOM      6  C   UNL     1       5.001  -5.362   0.000  0.00  0.00    +0.002 C 
ATOM      7  C   UNL     1       6.430  -5.362   0.000  0.00  0.00    +0.002 C 
ATOM      8  C   UNL     1       7.145  -4.950   0.000  0.00  0.00    +0.000 C 
ATOM      9  C   UNL     1       7.145  -4.125   0.000  0.00  0.00    +0.002 C 
ATOM     10  C   UNL     1       6.430  -3.712   0.000  0.00  0.00    +0.030 C 
ENDBRANCH   3   4
ENDBRANCH   2   3
ENDBRANCH   1   2
BRANCH   1  11
ATOM     11  N   UNL     1       2.858  -4.125   0.000  0.00  0.00    -0.215 NA
BRANCH  11  13
ATOM     12  C   UNL     1       2.143  -2.888   0.000  0.00  0.00    +0.021 C 
ATOM     13  C   UNL     1       2.143  -3.712   0.000  0.00  0.00    +0.097 C 
BRANCH  13  14
ATOM     14  C   UNL     1       1.429  -4.125   0.000  0.00  0.00    +0.145 C 
BRANCH  14  15
ATOM     15  N   UNL     1       0.715  -3.712   0.000  0.00  0.00    -0.248 N 
ATOM     16  N   UNL     1       0.628  -2.892   0.000  0.00  0.00    -0.168 NA
ATOM     17  C   UNL     1      -0.179  -2.720   0.000  0.00  0.00    +0.122 A 
ATOM     18  C   UNL     1      -0.591  -3.435   0.000  0.00  0.00    +0.043 A 
ATOM     19  C   UNL     1      -0.039  -4.048   0.000  0.00  0.00    +0.097 A 
ENDBRANCH  14  15
ENDBRANCH  13  14
ENDBRANCH  11  13
ENDBRANCH   1  11
TORSDOF 7
