REMARK  Name = 
REMARK  5 active torsions:
REMARK  status: ('A' for Active; 'I' for Inactive)
REMARK    1  A    between atoms: C_2  and  C_3
REMARK    2  A    between atoms: C_5  and  C_6
REMARK    3  A    between atoms: C_6  and  C_7
REMARK    4  A    between atoms: C_7  and  N_8
REMARK    5  A    between atoms: C_9  and  C_11
REMARK                            x       y       z     vdW  Elec       q    Type
REMARK                         _______ _______ _______ _____ _____    ______ ____
ROOT
ATOM      1  C   UNL     1      -1.296   2.543   0.000  0.00  0.00    +0.070 C 
ENDROOT
BRANCH   1   5
ATOM      2  C   UNL     1      -3.316   1.853   0.000  0.00  0.00    +0.088 A 
ATOM      3  S   UNL     1      -2.903   1.138   0.000  0.00  0.00    -0.071 S 
ATOM      4  C   UNL     1      -2.096   1.310   0.000  0.00  0.00    +0.051 A 
ATOM      5  C   UNL     1      -2.010   2.130   0.000  0.00  0.00    +0.067 A 
ATOM      6  N   UNL     1      -2.764   2.466   0.000  0.00  0.00    -0.247 NA
BRANCH   2   8
ATOM      7  C   UNL     1      -4.621   1.272   0.000  0.00  0.00    +0.007 C 
ATOM      8  C   UNL     1      -4.136   1.939   0.000  0.00  0.00    +0.053 C 
ENDBRANCH   2   8
ENDBRANCH   1   5
BRANCH   1   9
ATOM      9  C   UNL     1      -0.581   2.130   0.000  0.00  0.00    +0.121 C 
BRANCH   9  10
ATOM     10  N   UNL     1       0.133   2.543   0.000  0.00  0.00    -0.205 NA
ATOM     11  C   UNL     1       0.848   2.130   0.000  0.00  0.00    +0.241 C 
ATOM     12  O   UNL     1       0.848   1.305   0.000  0.00  0.00    -0.273 OA
BRANCH  11  13
ATOM     13  C   UNL     1       1.562   2.543   0.000  0.00  0.00    +0.078 C 
ATOM     14  C   UNL     1       2.387   2.543   0.000  0.00  0.00    +0.009 C 
ATOM     15  C   UNL     1       3.102   2.130   0.000  0.00  0.00    +0.001 C 
ATOM     16  C   UNL     1       1.975   3.257   0.000  0.00  0.00    +0.010 C 
ENDBRANCH  11  13
ENDBRANCH   9  10
ENDBRANCH   1   9
TORSDOF 5
