REMARK  Name = 
REMARK  3 active torsions:
REMARK  status: ('A' for Active; 'I' for Inactive)
REMARK    1  A    between atoms: N_7  and  C_8
REMARK    2  A    between atoms: C_8  and  C_9
REMARK    3  A    between atoms: N_11  and  C_12
REMARK                            x       y       z     vdW  Elec       q    Type
REMARK                         _______ _______ _______ _____ _____    ______ ____
ROOT
ATOM      1  C   UNL     1      -0.240  -2.695   0.000  0.00  0.00    +0.264 C 
ATOM      2  N   UNL     1      -1.025  -2.440   0.000  0.00  0.00    -0.206 NA
ATOM      3  O   UNL     1       0.373  -2.143   0.000  0.00  0.00    -0.271 OA
ENDROOT
BRANCH   2   4
ATOM      4  C   UNL     1      -1.196  -1.633   0.000  0.00  0.00    +0.095 C 
ATOM      5  C   UNL     1      -0.516  -1.166   0.000  0.00  0.00    +0.022 C 
ATOM      6  C   UNL     1      -0.366  -0.354   0.000  0.00  0.00    +0.002 C 
ATOM      7  C   UNL     1      -0.833   0.326   0.000  0.00  0.00    +0.000 C 
ATOM      8  C   UNL     1      -1.644   0.476   0.000  0.00  0.00    +0.000 C 
ATOM      9  C   UNL     1      -2.324   0.009   0.000  0.00  0.00    +0.000 C 
ATOM     10  C   UNL     1      -2.475  -0.803   0.000  0.00  0.00    +0.002 C 
ATOM     11  C   UNL     1      -2.007  -1.482   0.000  0.00  0.00    +0.022 C 
ENDBRANCH   2   4
BRANCH   1  12
ATOM     12  C   UNL     1      -0.068  -3.502   0.000  0.00  0.00    +0.196 C 
BRANCH  12  15
ATOM     13  C   UNL     1       1.384  -2.447   0.000  0.00  0.00    +0.051 C 
ATOM     14  C   UNL     1       1.384  -3.272   0.000  0.00  0.00    +0.048 A 
ATOM     15  N   UNL     1       0.716  -3.757   0.000  0.00  0.00    -0.285 N 
ATOM     16  C   UNL     1       0.971  -4.541   0.000  0.00  0.00    +0.292 A 
ATOM     17  O   UNL     1       0.486  -5.209   0.000  0.00  0.00    -0.259 OA
ATOM     18  S   UNL     1       1.796  -4.541   0.000  0.00  0.00    -0.026 S 
ATOM     19  C   UNL     1       2.051  -3.757   0.000  0.00  0.00    +0.053 A 
ENDBRANCH  12  15
ENDBRANCH   1  12
TORSDOF 3
