REMARK  Name = 
REMARK  5 active torsions:
REMARK  status: ('A' for Active; 'I' for Inactive)
REMARK    1  A    between atoms: N_2  and  C_10
REMARK    2  A    between atoms: C_10  and  C_11
REMARK    3  A    between atoms: C_14  and  C_19
REMARK    4  A    between atoms: O_18  and  C_19
REMARK    5  A    between atoms: O_18  and  C_23
REMARK                            x       y       z     vdW  Elec       q    Type
REMARK                         _______ _______ _______ _____ _____    ______ ____
ROOT
ATOM      1  C   UNL     1       1.924  -0.284   0.000  0.00  0.00    +0.149 A 
ATOM      2  C   UNL     1       2.642   0.129   0.000  0.00  0.00    +0.154 A 
ATOM      3  N   UNL     1       3.356  -0.284   0.000  0.00  0.00    -0.207 NA
ATOM      4  C   UNL     1       3.356  -1.110   0.000  0.00  0.00    +0.201 A 
ATOM      5  N   UNL     1       2.642  -1.523   0.000  0.00  0.00    -0.205 NA
ATOM      6  N   UNL     1       2.642   0.956   0.000  0.00  0.00    -0.289 N 
ATOM      7  C   UNL     1       1.924   1.369   0.000  0.00  0.00    +0.092 C 
ATOM      8  C   UNL     1       1.924   2.195   0.000  0.00  0.00    +0.024 C 
ATOM      9  C   UNL     1       2.642   2.609   0.000  0.00  0.00    +0.033 C 
ATOM     10  C   UNL     1       3.356   2.195   0.000  0.00  0.00    +0.135 C 
ATOM     11  C   UNL     1       3.356   1.369   0.000  0.00  0.00    +0.122 C 
ATOM     12  N   UNL     1       1.139  -0.029   0.000  0.00  0.00    -0.219 NA
ATOM     13  C   UNL     1       0.651  -0.697   0.000  0.00  0.00    +0.180 A 
ATOM     14  N   UNL     1       1.139  -1.365   0.000  0.00  0.00    -0.292 N 
ATOM     15  C   UNL     1       1.924  -1.110   0.000  0.00  0.00    +0.167 A 
ENDROOT
BRANCH  10  16
ATOM     16  O   UNL     1       4.074   2.609   0.000  0.00  0.00    -0.355 OA
BRANCH  16  17
ATOM     17  C   UNL     1       4.074   3.435   0.000  0.00  0.00    +0.142 C 
BRANCH  17  18
ATOM     18  C   UNL     1       4.787   3.848   0.000  0.00  0.00    +0.030 C 
ATOM     19  C   UNL     1       5.614   3.848   0.000  0.00  0.00    +0.003 C 
ATOM     20  C   UNL     1       5.200   4.558   0.000  0.00  0.00    +0.003 C 
ENDBRANCH  17  18
ENDBRANCH  16  17
ENDBRANCH  10  16
BRANCH  14  21
ATOM     21  C   UNL     1       0.885  -2.154   0.000  0.00  0.00    +0.142 C 
BRANCH  21  22
ATOM     22  C   UNL     1       1.436  -2.767   0.000  0.00  0.00    +0.177 C 
ATOM     23  C   UNL     1       0.768  -3.251   0.000  0.00  0.00    +0.174 C 
ATOM     24  O   UNL     1       1.022  -4.036   0.000  0.00  0.00    -0.351 OA
ATOM     25  C   UNL     1       1.849  -4.036   0.000  0.00  0.00    +0.145 C 
ATOM     26  O   UNL     1       1.991  -2.154   0.000  0.00  0.00    -0.221 OA
ATOM     27  C   UNL     1       2.103  -3.251   0.000  0.00  0.00    +0.067 C 
ENDBRANCH  21  22
ENDBRANCH  14  21
TORSDOF 5
