REMARK  Name = 
REMARK  4 active torsions:
REMARK  status: ('A' for Active; 'I' for Inactive)
REMARK    1  A    between atoms: C_2  and  O_3
REMARK    2  A    between atoms: O_3  and  C_4
REMARK    3  A    between atoms: C_6  and  N_7
REMARK    4  A    between atoms: N_10  and  C_11
REMARK                            x       y       z     vdW  Elec       q    Type
REMARK                         _______ _______ _______ _____ _____    ______ ____
ROOT
ATOM      1  N   UNL     1       0.412   1.821   0.000  0.00  0.00    -0.189 NA
ATOM      2  C   UNL     1       1.127   2.233   0.000  0.00  0.00    +0.344 C 
ATOM      3  N   UNL     1       1.127   3.058   0.000  0.00  0.00    -0.156 NA
ATOM      4  O   UNL     1       1.841   1.821   0.000  0.00  0.00    -0.249 OA
ENDROOT
BRANCH   1  11
ATOM      5  C   UNL     1       0.412  -0.171   0.000  0.00  0.00    +0.118 C 
ATOM      6  C   UNL     1       0.996   0.412   0.000  0.00  0.00    +0.044 C 
ATOM      7  C   UNL     1       1.481  -0.255   0.000  0.00  0.00    +0.004 C 
ATOM      8  C   UNL     1       2.265   0.000   0.000  0.00  0.00    +0.000 C 
ATOM      9  C   UNL     1       2.265   0.825   0.000  0.00  0.00    +0.000 C 
ATOM     10  C   UNL     1       1.481   1.080   0.000  0.00  0.00    +0.004 C 
ATOM     11  C   UNL     1       0.412   0.996   0.000  0.00  0.00    +0.102 C 
ATOM     12  C   UNL     1      -0.171   0.412   0.000  0.00  0.00    +0.051 C 
BRANCH   5  13
ATOM     13  O   UNL     1       0.412  -0.996   0.000  0.00  0.00    -0.356 OA
BRANCH  13  15
ATOM     14  C   UNL     1       1.127  -2.233   0.000  0.00  0.00    +0.035 C 
ATOM     15  C   UNL     1       1.127  -1.408   0.000  0.00  0.00    +0.142 C 
ENDBRANCH  13  15
ENDBRANCH   5  13
ENDBRANCH   1  11
BRANCH   3  16
ATOM     16  C   UNL     1       0.412   3.471   0.000  0.00  0.00    +0.131 A 
ATOM     17  C   UNL     1       0.412   4.296   0.000  0.00  0.00    +0.276 A 
ATOM     18  O   UNL     1       1.127   4.708   0.000  0.00  0.00    -0.266 OA
ATOM     19  N   UNL     1      -0.302   4.708   0.000  0.00  0.00    -0.291 N 
ATOM     20  C   UNL     1      -0.302   5.533   0.000  0.00  0.00    +0.134 C 
ATOM     21  C   UNL     1      -1.016   4.296   0.000  0.00  0.00    +0.078 A 
ATOM     22  C   UNL     1      -1.016   3.471   0.000  0.00  0.00    +0.020 A 
ATOM     23  C   UNL     1      -0.302   3.058   0.000  0.00  0.00    +0.023 A 
ENDBRANCH   3  16
TORSDOF 4
