REMARK  Name = 
REMARK  5 active torsions:
REMARK  status: ('A' for Active; 'I' for Inactive)
REMARK    1  A    between atoms: C_2  and  C_3
REMARK    2  A    between atoms: C_6  and  C_7
REMARK    3  A    between atoms: C_7  and  N_8
REMARK    4  A    between atoms: C_9  and  C_11
REMARK    5  A    between atoms: C_11  and  N_12
REMARK                            x       y       z     vdW  Elec       q    Type
REMARK                         _______ _______ _______ _____ _____    ______ ____
ROOT
ATOM      1  C   UNL     1      -0.715   2.062   0.000  0.00  0.00    +0.115 C 
ENDROOT
BRANCH   1   5
ATOM      2  C   UNL     1      -2.858   3.300   0.000  0.00  0.00    +0.000 C 
ATOM      3  C   UNL     1      -2.858   2.475   0.000  0.00  0.00    +0.000 C 
ATOM      4  C   UNL     1      -2.143   2.062   0.000  0.00  0.00    +0.002 C 
ATOM      5  C   UNL     1      -1.429   2.475   0.000  0.00  0.00    +0.022 C 
ATOM      6  C   UNL     1      -1.429   3.300   0.000  0.00  0.00    +0.002 C 
ATOM      7  C   UNL     1      -2.143   3.712   0.000  0.00  0.00    +0.000 C 
BRANCH   2   9
ATOM      8  C   UNL     1      -4.287   3.300   0.000  0.00  0.00    +0.000 C 
ATOM      9  C   UNL     1      -3.572   3.712   0.000  0.00  0.00    +0.000 C 
ENDBRANCH   2   9
ENDBRANCH   1   5
BRANCH   1  10
ATOM     10  N   UNL     1       0.000   2.475   0.000  0.00  0.00    -0.204 NA
ATOM     11  C   UNL     1       0.715   2.062   0.000  0.00  0.00    +0.266 C 
ATOM     12  O   UNL     1       0.715   1.238   0.000  0.00  0.00    -0.271 OA
BRANCH  11  13
ATOM     13  C   UNL     1       1.429   2.475   0.000  0.00  0.00    +0.217 C 
BRANCH  13  14
ATOM     14  N   UNL     1       2.143   2.062   0.000  0.00  0.00    -0.201 N 
ATOM     15  N   UNL     1       2.230   1.242   0.000  0.00  0.00    -0.042 NA
ATOM     16  N   UNL     1       3.037   1.071   0.000  0.00  0.00    -0.023 NA
ATOM     17  N   UNL     1       3.449   1.785   0.000  0.00  0.00    -0.105 NA
ATOM     18  C   UNL     1       2.897   2.398   0.000  0.00  0.00    +0.222 A 
ENDBRANCH  13  14
ENDBRANCH  11  13
ENDBRANCH   1  10
TORSDOF 5
