REMARK  Name = 
REMARK  2 active torsions:
REMARK  status: ('A' for Active; 'I' for Inactive)
REMARK    1  A    between atoms: S_2  and  C_3
REMARK    2  A    between atoms: N_10  and  C_11
REMARK                            x       y       z     vdW  Elec       q    Type
REMARK                         _______ _______ _______ _____ _____    ______ ____
ROOT
ATOM      1  C   UNL     1       2.751  -2.537   0.000  0.00  0.00    +0.199 A 
ATOM      2  N   UNL     1       2.084  -3.022   0.000  0.00  0.00    -0.196 NA
ATOM      3  C   UNL     1       2.339  -3.806   0.000  0.00  0.00    +0.207 A 
ATOM      4  N   UNL     1       1.854  -4.474   0.000  0.00  0.00    -0.135 NA
ATOM      5  C   UNL     1       1.033  -4.387   0.000  0.00  0.00    +0.346 C 
ATOM      6  N   UNL     1       0.548  -5.055   0.000  0.00  0.00    -0.184 NA
ATOM      7  O   UNL     1       0.698  -3.634   0.000  0.00  0.00    -0.249 OA
ATOM      8  S   UNL     1       3.164  -3.806   0.000  0.00  0.00    +0.052 S 
ATOM      9  N   UNL     1       3.419  -3.022   0.000  0.00  0.00    -0.181 NA
ENDROOT
BRANCH   6  10
ATOM     10  C   UNL     1      -0.272  -4.969   0.000  0.00  0.00    +0.119 C 
ATOM     11  C   UNL     1      -0.608  -4.215   0.000  0.00  0.00    -0.009 C 
ATOM     12  C   UNL     1      -1.428  -4.129   0.000  0.00  0.00    -0.029 C 
ATOM     13  C   UNL     1      -1.913  -4.796   0.000  0.00  0.00    +0.026 C 
ATOM     14  C   UNL     1      -1.577  -5.550   0.000  0.00  0.00    +0.007 C 
ATOM     15  C   UNL     1      -0.757  -5.636   0.000  0.00  0.00    +0.027 C 
ENDBRANCH   6  10
BRANCH   1  17
ATOM     16  C   UNL     1       3.466  -1.299   0.000  0.00  0.00    +0.077 C 
ATOM     17  S   UNL     1       2.751  -1.712   0.000  0.00  0.00    -0.074 S 
ENDBRANCH   1  17
TORSDOF 2
