REMARK  Name = 
REMARK  5 active torsions:
REMARK  status: ('A' for Active; 'I' for Inactive)
REMARK    1  A    between atoms: C_2  and  N_4
REMARK    2  A    between atoms: C_5  and  C_7
REMARK    3  A    between atoms: C_7  and  C_8
REMARK    4  A    between atoms: C_8  and  N_9
REMARK    5  A    between atoms: C_10  and  C_12
REMARK                            x       y       z     vdW  Elec       q    Type
REMARK                         _______ _______ _______ _____ _____    ______ ____
ROOT
ATOM      1  C   UNL     1       9.288  -6.188   0.000  0.00  0.00    +0.059 A 
ATOM      2  C   UNL     1      10.003  -6.600   0.000  0.00  0.00    +0.039 A 
ATOM      3  C   UNL     1      10.717  -6.188   0.000  0.00  0.00    +0.132 A 
ATOM      4  N   UNL     1      11.431  -6.600   0.000  0.00  0.00    -0.288 N 
ATOM      5  C   UNL     1      11.431  -7.425   0.000  0.00  0.00    +0.122 C 
ATOM      6  C   UNL     1      12.146  -7.838   0.000  0.00  0.00    +0.135 C 
ATOM      7  C   UNL     1      12.146  -8.662   0.000  0.00  0.00    +0.034 C 
ATOM      8  O   UNL     1      12.861  -7.425   0.000  0.00  0.00    -0.353 OA
ATOM      9  C   UNL     1      12.861  -6.600   0.000  0.00  0.00    +0.163 C 
ATOM     10  C   UNL     1      12.146  -6.188   0.000  0.00  0.00    +0.124 C 
ATOM     11  N   UNL     1      10.717  -5.362   0.000  0.00  0.00    -0.229 NA
ATOM     12  C   UNL     1      10.003  -4.950   0.000  0.00  0.00    +0.100 A 
ATOM     13  C   UNL     1       9.288  -5.362   0.000  0.00  0.00    +0.025 A 
ENDROOT
BRANCH   1  15
ATOM     14  N   UNL     1       7.859  -6.188   0.000  0.00  0.00    -0.201 NA
ATOM     15  C   UNL     1       8.574  -6.600   0.000  0.00  0.00    +0.265 C 
ATOM     16  O   UNL     1       8.574  -7.425   0.000  0.00  0.00    -0.268 OA
BRANCH  14  17
ATOM     17  C   UNL     1       7.145  -6.600   0.000  0.00  0.00    +0.125 C 
BRANCH  17  18
ATOM     18  C   UNL     1       6.430  -6.188   0.000  0.00  0.00    +0.110 C 
BRANCH  18  20
ATOM     19  N   UNL     1       5.001  -6.188   0.000  0.00  0.00    -0.207 NA
ATOM     20  C   UNL     1       5.716  -6.600   0.000  0.00  0.00    +0.243 C 
ATOM     21  O   UNL     1       5.716  -7.425   0.000  0.00  0.00    -0.273 OA
BRANCH  19  23
ATOM     22  C   UNL     1       3.572  -6.188   0.000  0.00  0.00    +0.023 C 
ATOM     23  C   UNL     1       4.287  -6.600   0.000  0.00  0.00    +0.095 C 
ATOM     24  C   UNL     1       4.287  -7.425   0.000  0.00  0.00    +0.023 C 
ENDBRANCH  19  23
ENDBRANCH  18  20
ENDBRANCH  17  18
ENDBRANCH  14  17
ENDBRANCH   1  15
TORSDOF 5
