REMARK  Name = 
REMARK  5 active torsions:
REMARK  status: ('A' for Active; 'I' for Inactive)
REMARK    1  A    between atoms: C_2  and  N_3
REMARK    2  A    between atoms: C_6  and  C_7
REMARK    3  A    between atoms: C_7  and  N_8
REMARK    4  A    between atoms: N_11  and  C_12
REMARK    5  A    between atoms: C_17  and  O_18
REMARK                            x       y       z     vdW  Elec       q    Type
REMARK                         _______ _______ _______ _____ _____    ______ ____
ROOT
ATOM      1  N   UNL     1      -0.715  -1.238   0.000  0.00  0.00    -0.187 NA
ATOM      2  C   UNL     1       0.000  -1.650   0.000  0.00  0.00    +0.344 C 
ATOM      3  N   UNL     1       0.715  -1.238   0.000  0.00  0.00    -0.156 NA
ATOM      4  O   UNL     1       0.000  -2.475   0.000  0.00  0.00    -0.249 OA
ENDROOT
BRANCH   3   5
ATOM      5  C   UNL     1       0.715  -0.412   0.000  0.00  0.00    +0.128 A 
ATOM      6  C   UNL     1       1.429   0.000   0.000  0.00  0.00    +0.241 A 
ATOM      7  N   UNL     1       1.429   0.825   0.000  0.00  0.00    -0.209 NA
ATOM      8  C   UNL     1       0.715   1.238   0.000  0.00  0.00    +0.102 A 
ATOM      9  C   UNL     1       0.000   0.825   0.000  0.00  0.00    +0.022 A 
ATOM     10  C   UNL     1       0.000   0.000   0.000  0.00  0.00    +0.023 A 
BRANCH   6  11
ATOM     11  O   UNL     1       2.143  -0.412   0.000  0.00  0.00    -0.455 OA
ATOM     12  C   UNL     1       2.143  -1.238   0.000  0.00  0.00    +0.254 C 
ENDBRANCH   6  11
ENDBRANCH   3   5
BRANCH   1  13
ATOM     13  C   UNL     1      -1.429  -1.650   0.000  0.00  0.00    +0.117 C 
BRANCH  13  17
ATOM     14  N   UNL     1      -3.572  -0.412   0.000  0.00  0.00    -0.273 NA
ATOM     15  C   UNL     1      -3.572  -1.238   0.000  0.00  0.00    +0.072 C 
ATOM     16  C   UNL     1      -2.858  -1.650   0.000  0.00  0.00    +0.019 C 
ATOM     17  C   UNL     1      -2.143  -1.238   0.000  0.00  0.00    +0.025 C 
ATOM     18  C   UNL     1      -2.143  -0.412   0.000  0.00  0.00    +0.019 C 
ATOM     19  C   UNL     1      -2.858   0.000   0.000  0.00  0.00    +0.072 C 
BRANCH  14  21
ATOM     20  C   UNL     1      -5.001  -0.412   0.000  0.00  0.00    +0.019 C 
ATOM     21  C   UNL     1      -4.287   0.000   0.000  0.00  0.00    +0.072 C 
ENDBRANCH  14  21
ENDBRANCH  13  17
ENDBRANCH   1  13
TORSDOF 5
