REMARK  Name = 
REMARK  1 active torsions:
REMARK  status: ('A' for Active; 'I' for Inactive)
REMARK    1  A    between atoms: C_6  and  N_8
REMARK                            x       y       z     vdW  Elec       q    Type
REMARK                         _______ _______ _______ _____ _____    ______ ____
ROOT
ATOM      1  N   UNL     1       4.180   3.238   0.000  0.00  0.00    -0.189 NA
ATOM      2  C   UNL     1       4.180   2.413   0.000  0.00  0.00    +0.345 C 
ATOM      3  N   UNL     1       4.895   2.001   0.000  0.00  0.00    -0.134 NA
ATOM      4  C   UNL     1       4.895   1.176   0.000  0.00  0.00    +0.209 A 
ATOM      5  S   UNL     1       4.227   0.691   0.000  0.00  0.00    -0.027 S 
ATOM      6  C   UNL     1       4.482  -0.094   0.000  0.00  0.00    +0.161 A 
ATOM      7  N   UNL     1       5.307  -0.094   0.000  0.00  0.00    -0.137 NA
ATOM      8  N   UNL     1       5.562   0.691   0.000  0.00  0.00    -0.123 NA
ATOM      9  O   UNL     1       3.466   2.001   0.000  0.00  0.00    -0.249 OA
ENDROOT
BRANCH   1  13
ATOM     10  C   UNL     1       1.322   3.238   0.000  0.00  0.00    +0.000 C 
ATOM     11  C   UNL     1       2.037   3.651   0.000  0.00  0.00    +0.002 C 
ATOM     12  C   UNL     1       2.751   3.238   0.000  0.00  0.00    +0.022 C 
ATOM     13  C   UNL     1       3.466   3.651   0.000  0.00  0.00    +0.097 C 
ATOM     14  C   UNL     1       3.466   4.476   0.000  0.00  0.00    +0.022 C 
ATOM     15  C   UNL     1       2.751   4.888   0.000  0.00  0.00    +0.002 C 
ATOM     16  C   UNL     1       2.037   4.476   0.000  0.00  0.00    +0.000 C 
ENDBRANCH   1  13
TORSDOF 1
