REMARK  Name = 
REMARK  6 active torsions:
REMARK  status: ('A' for Active; 'I' for Inactive)
REMARK    1  A    between atoms: C_2  and  C_3
REMARK    2  A    between atoms: C_6  and  C_7
REMARK    3  A    between atoms: C_7  and  C_8
REMARK    4  A    between atoms: C_8  and  N_9
REMARK    5  A    between atoms: C_10  and  C_12
REMARK    6  A    between atoms: C_12  and  C_13
REMARK                            x       y       z     vdW  Elec       q    Type
REMARK                         _______ _______ _______ _____ _____    ______ ____
ROOT
ATOM      1  C   UNL     1       3.878  -3.364   0.000  0.00  0.00    +0.122 C 
ENDROOT
BRANCH   1   2
ATOM      2  N   UNL     1       4.592  -2.952   0.000  0.00  0.00    -0.205 NA
ATOM      3  C   UNL     1       5.307  -3.364   0.000  0.00  0.00    +0.242 C 
ATOM      4  O   UNL     1       5.307  -4.189   0.000  0.00  0.00    -0.273 OA
BRANCH   3   5
ATOM      5  C   UNL     1       6.021  -2.952   0.000  0.00  0.00    +0.091 C 
BRANCH   5   6
ATOM      6  C   UNL     1       6.736  -3.364   0.000  0.00  0.00    +0.031 C 
ATOM      7  C   UNL     1       6.822  -4.185   0.000  0.00  0.00    -0.031 C 
ATOM      8  C   UNL     1       7.629  -4.356   0.000  0.00  0.00    -0.031 C 
ATOM      9  C   UNL     1       8.041  -3.642   0.000  0.00  0.00    +0.026 C 
ATOM     10  C   UNL     1       7.489  -3.029   0.000  0.00  0.00    +0.009 C 
ENDBRANCH   5   6
ENDBRANCH   3   5
ENDBRANCH   1   2
BRANCH   1  11
ATOM     11  C   UNL     1       3.163  -2.952   0.000  0.00  0.00    +0.076 C 
BRANCH  11  14
ATOM     12  C   UNL     1       1.556  -4.356   0.000  0.00  0.00    +0.027 A 
ATOM     13  S   UNL     1       2.363  -4.185   0.000  0.00  0.00    -0.075 S 
ATOM     14  C   UNL     1       2.449  -3.364   0.000  0.00  0.00    +0.090 A 
ATOM     15  N   UNL     1       1.695  -3.029   0.000  0.00  0.00    -0.241 NA
ATOM     16  C   UNL     1       1.143  -3.642   0.000  0.00  0.00    +0.101 A 
BRANCH  12  18
ATOM     17  C   UNL     1       0.400  -5.196   0.000  0.00  0.00    +0.006 C 
ATOM     18  C   UNL     1       1.220  -5.110   0.000  0.00  0.00    +0.035 C 
ENDBRANCH  12  18
ENDBRANCH  11  14
ENDBRANCH   1  11
TORSDOF 6
