REMARK  Name = 
REMARK  5 active torsions:
REMARK  status: ('A' for Active; 'I' for Inactive)
REMARK    1  A    between atoms: N_5  and  C_6
REMARK    2  A    between atoms: C_6  and  C_7
REMARK    3  A    between atoms: N_9  and  C_10
REMARK    4  A    between atoms: C_10  and  C_17
REMARK    5  A    between atoms: C_21  and  C_22
REMARK                            x       y       z     vdW  Elec       q    Type
REMARK                         _______ _______ _______ _____ _____    ______ ____
ROOT
ATOM      1  C   UNL     1       0.681  -6.108   0.000  0.00  0.00    +0.265 C 
ATOM      2  N   UNL     1       0.681  -6.933   0.000  0.00  0.00    -0.193 NA
ATOM      3  O   UNL     1       1.396  -5.696   0.000  0.00  0.00    -0.271 OA
ENDROOT
BRANCH   2   4
ATOM      4  C   UNL     1       1.396  -7.346   0.000  0.00  0.00    +0.157 C 
ATOM      5  C   UNL     1       0.835  -7.951   0.000  0.00  0.00    +0.034 C 
ATOM      6  C   UNL     1       0.958  -8.767   0.000  0.00  0.00    +0.003 C 
ATOM      7  C   UNL     1       1.672  -9.179   0.000  0.00  0.00    +0.000 C 
ATOM      8  C   UNL     1       2.440  -8.878   0.000  0.00  0.00    +0.000 C 
ATOM      9  C   UNL     1       2.683  -8.089   0.000  0.00  0.00    +0.003 C 
ATOM     10  C   UNL     1       2.218  -7.408   0.000  0.00  0.00    +0.034 C 
BRANCH   4  11
ATOM     11  C   UNL     1       1.639  -6.558   0.000  0.00  0.00    +0.091 C 
ATOM     12  N   UNL     1       1.882  -5.769   0.000  0.00  0.00    -0.194 NA
ENDBRANCH   4  11
ENDBRANCH   2   4
BRANCH   1  13
ATOM     13  C   UNL     1      -0.033  -5.696   0.000  0.00  0.00    +0.196 C 
BRANCH  13  19
ATOM     14  C   UNL     1      -0.033  -2.396   0.000  0.00  0.00    +0.032 C 
ATOM     15  C   UNL     1      -0.033  -3.221   0.000  0.00  0.00    -0.006 A 
ATOM     16  C   UNL     1      -0.748  -3.633   0.000  0.00  0.00    +0.121 A 
ATOM     17  C   UNL     1      -0.748  -4.458   0.000  0.00  0.00    +0.271 A 
ATOM     18  O   UNL     1      -1.462  -4.871   0.000  0.00  0.00    -0.266 OA
ATOM     19  N   UNL     1      -0.033  -4.871   0.000  0.00  0.00    -0.285 N 
ATOM     20  C   UNL     1       0.681  -4.458   0.000  0.00  0.00    +0.079 A 
ATOM     21  C   UNL     1       0.681  -3.633   0.000  0.00  0.00    +0.015 A 
BRANCH  16  22
ATOM     22  C   UNL     1      -1.462  -3.221   0.000  0.00  0.00    +0.105 C 
ATOM     23  N   UNL     1      -2.177  -2.808   0.000  0.00  0.00    -0.191 NA
ENDBRANCH  16  22
ENDBRANCH  13  19
ENDBRANCH   1  13
TORSDOF 5
