REMARK  Name = 
REMARK  5 active torsions:
REMARK  status: ('A' for Active; 'I' for Inactive)
REMARK    1  A    between atoms: C_2  and  N_3
REMARK    2  A    between atoms: C_2  and  C_11
REMARK    3  A    between atoms: N_3  and  C_4
REMARK    4  A    between atoms: C_4  and  C_5
REMARK    5  A    between atoms: C_5  and  N_6
REMARK                            x       y       z     vdW  Elec       q    Type
REMARK                         _______ _______ _______ _____ _____    ______ ____
ROOT
ATOM      1  C   UNL     1       4.287  -4.950   0.000  0.00  0.00    +0.029 C 
ATOM      2  C   UNL     1       4.287  -4.125   0.000  0.00  0.00    +0.149 C 
ENDROOT
BRANCH   2   3
ATOM      3  C   UNL     1       5.001  -3.712   0.000  0.00  0.00    +0.241 C 
ATOM      4  N   UNL     1       5.716  -4.125   0.000  0.00  0.00    -0.278 N 
ATOM      5  C   UNL     1       5.716  -4.950   0.000  0.00  0.00    +0.093 C 
ATOM      6  C   UNL     1       6.430  -5.362   0.000  0.00  0.00    +0.020 C 
ATOM      7  C   UNL     1       6.430  -6.188   0.000  0.00  0.00    +0.002 C 
ATOM      8  C   UNL     1       7.145  -4.950   0.000  0.00  0.00    +0.003 C 
ATOM      9  C   UNL     1       7.145  -4.125   0.000  0.00  0.00    +0.020 C 
ATOM     10  C   UNL     1       7.859  -3.712   0.000  0.00  0.00    +0.002 C 
ATOM     11  C   UNL     1       6.430  -3.712   0.000  0.00  0.00    +0.093 C 
ATOM     12  O   UNL     1       5.001  -2.888   0.000  0.00  0.00    -0.273 OA
ENDBRANCH   2   3
BRANCH   2  13
ATOM     13  N   UNL     1       3.572  -3.712   0.000  0.00  0.00    -0.208 NA
BRANCH  13  14
ATOM     14  C   UNL     1       2.858  -4.125   0.000  0.00  0.00    +0.115 C 
BRANCH  14  15
ATOM     15  C   UNL     1       2.143  -3.712   0.000  0.00  0.00    +0.146 C 
BRANCH  15  16
ATOM     16  N   UNL     1       1.429  -4.125   0.000  0.00  0.00    -0.248 N 
ATOM     17  N   UNL     1       0.675  -3.789   0.000  0.00  0.00    -0.168 NA
ATOM     18  C   UNL     1       0.123  -4.402   0.000  0.00  0.00    +0.122 A 
ATOM     19  C   UNL     1       0.536  -5.117   0.000  0.00  0.00    +0.043 A 
ATOM     20  C   UNL     1       1.343  -4.946   0.000  0.00  0.00    +0.097 A 
ENDBRANCH  15  16
ENDBRANCH  14  15
ENDBRANCH  13  14
ENDBRANCH   2  13
TORSDOF 5
