REMARK  Name = 
REMARK  5 active torsions:
REMARK  status: ('A' for Active; 'I' for Inactive)
REMARK    1  A    between atoms: C_2  and  C_3
REMARK    2  A    between atoms: C_3  and  N_4
REMARK    3  A    between atoms: N_4  and  C_5
REMARK    4  A    between atoms: C_5  and  C_6
REMARK    5  A    between atoms: C_6  and  N_7
REMARK                            x       y       z     vdW  Elec       q    Type
REMARK                         _______ _______ _______ _____ _____    ______ ____
ROOT
ATOM      1  C   UNL     1       1.429  -0.825   0.000  0.00  0.00    +0.174 C 
ENDROOT
BRANCH   1   3
ATOM      2  O   UNL     1       0.715  -2.062   0.000  0.00  0.00    -0.273 OA
ATOM      3  C   UNL     1       0.715  -1.238   0.000  0.00  0.00    +0.243 C 
ATOM      4  N   UNL     1       0.000  -0.825   0.000  0.00  0.00    -0.278 N 
ATOM      5  C   UNL     1       0.000   0.000   0.000  0.00  0.00    +0.093 C 
ATOM      6  C   UNL     1      -0.715   0.412   0.000  0.00  0.00    +0.022 C 
ATOM      7  C   UNL     1      -1.429   0.000   0.000  0.00  0.00    +0.004 C 
ATOM      8  C   UNL     1      -1.429  -0.825   0.000  0.00  0.00    +0.022 C 
ATOM      9  C   UNL     1      -0.715  -1.238   0.000  0.00  0.00    +0.093 C 
ENDBRANCH   1   3
BRANCH   1  10
ATOM     10  N   UNL     1       2.143  -1.238   0.000  0.00  0.00    -0.206 NA
BRANCH  10  11
ATOM     11  C   UNL     1       2.858  -0.825   0.000  0.00  0.00    +0.116 C 
BRANCH  11  12
ATOM     12  C   UNL     1       3.572  -1.238   0.000  0.00  0.00    +0.146 C 
BRANCH  12  13
ATOM     13  N   UNL     1       4.287  -0.825   0.000  0.00  0.00    -0.248 N 
ATOM     14  N   UNL     1       5.040  -1.161   0.000  0.00  0.00    -0.168 NA
ATOM     15  C   UNL     1       5.593  -0.547   0.000  0.00  0.00    +0.122 A 
ATOM     16  C   UNL     1       5.180   0.167   0.000  0.00  0.00    +0.043 A 
ATOM     17  C   UNL     1       4.373  -0.004   0.000  0.00  0.00    +0.097 A 
ENDBRANCH  12  13
ENDBRANCH  11  12
ENDBRANCH  10  11
ENDBRANCH   1  10
TORSDOF 5
