REMARK  Name = 
REMARK  5 active torsions:
REMARK  status: ('A' for Active; 'I' for Inactive)
REMARK    1  A    between atoms: C_8  and  C_9
REMARK    2  A    between atoms: C_9  and  N_10
REMARK    3  A    between atoms: N_10  and  C_11
REMARK    4  A    between atoms: C_11  and  C_12
REMARK    5  A    between atoms: C_12  and  N_13
REMARK                            x       y       z     vdW  Elec       q    Type
REMARK                         _______ _______ _______ _____ _____    ______ ____
ROOT
ATOM      1  C   UNL     1       2.143  -0.412   0.000  0.00  0.00    +0.093 C 
ENDROOT
BRANCH   1   4
ATOM      2  C   UNL     1       0.715  -1.238   0.000  0.00  0.00    +0.000 C 
ATOM      3  C   UNL     1       0.715  -0.412   0.000  0.00  0.00    +0.005 C 
ATOM      4  C   UNL     1       1.429   0.000   0.000  0.00  0.00    +0.035 C 
ATOM      5  C   UNL     1       1.429   0.825   0.000  0.00  0.00    -0.047 C 
ATOM      6  C   UNL     1       2.143   1.238   0.000  0.00  0.00    +0.026 C 
ATOM      7  C   UNL     1       0.715   1.238   0.000  0.00  0.00    -0.035 C 
ATOM      8  C   UNL     1       0.000   0.825   0.000  0.00  0.00    +0.025 C 
ATOM      9  C   UNL     1       0.000   0.000   0.000  0.00  0.00    +0.005 C 
ENDBRANCH   1   4
BRANCH   1  10
ATOM     10  N   UNL     1       2.858   0.000   0.000  0.00  0.00    -0.216 NA
BRANCH  10  11
ATOM     11  C   UNL     1       3.572  -0.412   0.000  0.00  0.00    +0.115 C 
BRANCH  11  12
ATOM     12  C   UNL     1       4.287   0.000   0.000  0.00  0.00    +0.148 C 
BRANCH  12  13
ATOM     13  N   UNL     1       5.001  -0.412   0.000  0.00  0.00    -0.229 N 
ATOM     14  N   UNL     1       5.088  -1.233   0.000  0.00  0.00    -0.064 NA
ATOM     15  N   UNL     1       5.894  -1.405   0.000  0.00  0.00    -0.127 NA
ATOM     16  C   UNL     1       6.307  -0.690   0.000  0.00  0.00    +0.144 A 
ATOM     17  C   UNL     1       5.755  -0.077   0.000  0.00  0.00    +0.119 A 
ENDBRANCH  12  13
ENDBRANCH  11  12
ENDBRANCH  10  11
ENDBRANCH   1  10
TORSDOF 5
