REMARK  Name = 
REMARK  3 active torsions:
REMARK  status: ('A' for Active; 'I' for Inactive)
REMARK    1  A    between atoms: C_2  and  C_3
REMARK    2  A    between atoms: C_2  and  N_14
REMARK    3  A    between atoms: C_3  and  N_4
REMARK                            x       y       z     vdW  Elec       q    Type
REMARK                         _______ _______ _______ _____ _____    ______ ____
ROOT
ATOM      1  C   UNL     1       1.429  -0.825   0.000  0.00  0.00    +0.133 C 
ENDROOT
BRANCH   1   2
ATOM      2  N   UNL     1       2.143  -1.238   0.000  0.00  0.00    -0.185 NA
ATOM      3  C   UNL     1       2.858  -0.825   0.000  0.00  0.00    +0.345 C 
ATOM      4  N   UNL     1       3.572  -1.238   0.000  0.00  0.00    -0.142 NA
ATOM      5  C   UNL     1       4.287  -0.825   0.000  0.00  0.00    +0.156 A 
ATOM      6  N   UNL     1       5.001  -1.238   0.000  0.00  0.00    -0.227 NA
ATOM      7  C   UNL     1       5.716  -0.825   0.000  0.00  0.00    +0.100 A 
ATOM      8  C   UNL     1       5.716   0.000   0.000  0.00  0.00    +0.021 A 
ATOM      9  C   UNL     1       5.001   0.412   0.000  0.00  0.00    +0.005 A 
ATOM     10  C   UNL     1       4.287   0.000   0.000  0.00  0.00    +0.036 A 
ATOM     11  O   UNL     1       2.858   0.000   0.000  0.00  0.00    -0.249 OA
ENDBRANCH   1   2
BRANCH   1  13
ATOM     12  C   UNL     1       0.715  -2.062   0.000  0.00  0.00    +0.019 C 
ATOM     13  C   UNL     1       0.715  -1.238   0.000  0.00  0.00    +0.079 C 
BRANCH  13  14
ATOM     14  N   UNL     1       0.000  -0.825   0.000  0.00  0.00    -0.272 NA
ATOM     15  C   UNL     1       0.000   0.000   0.000  0.00  0.00    +0.072 C 
ATOM     16  C   UNL     1      -0.715   0.412   0.000  0.00  0.00    +0.017 C 
ATOM     17  C   UNL     1      -1.429   0.000   0.000  0.00  0.00    +0.003 C 
ATOM     18  C   UNL     1      -2.143   0.412   0.000  0.00  0.00    +0.000 C 
ATOM     19  C   UNL     1      -1.429  -0.825   0.000  0.00  0.00    +0.017 C 
ATOM     20  C   UNL     1      -0.715  -1.238   0.000  0.00  0.00    +0.072 C 
ENDBRANCH  13  14
ENDBRANCH   1  13
TORSDOF 3
