REMARK  Name = 
REMARK  4 active torsions:
REMARK  status: ('A' for Active; 'I' for Inactive)
REMARK    1  A    between atoms: C_2  and  C_3
REMARK    2  A    between atoms: C_3  and  N_7
REMARK    3  A    between atoms: N_10  and  C_11
REMARK    4  A    between atoms: C_16  and  N_17
REMARK                            x       y       z     vdW  Elec       q    Type
REMARK                         _______ _______ _______ _____ _____    ______ ____
ROOT
ATOM      1  N   UNL     1       1.861  -1.570   0.000  0.00  0.00    -0.190 NA
ATOM      2  C   UNL     1       2.658  -1.783   0.000  0.00  0.00    +0.344 C 
ATOM      3  N   UNL     1       2.872  -2.580   0.000  0.00  0.00    -0.155 NA
ATOM      4  O   UNL     1       3.242  -1.200   0.000  0.00  0.00    -0.249 OA
ENDROOT
BRANCH   3   5
ATOM      5  C   UNL     1       3.669  -2.794   0.000  0.00  0.00    +0.147 A 
ATOM      6  C   UNL     1       3.882  -3.591   0.000  0.00  0.00    +0.324 A 
ATOM      7  C   UNL     1       4.679  -3.804   0.000  0.00  0.00    +0.175 A 
ATOM      8  N   UNL     1       5.262  -3.221   0.000  0.00  0.00    -0.236 NA
ATOM      9  C   UNL     1       5.049  -2.424   0.000  0.00  0.00    +0.101 A 
ATOM     10  C   UNL     1       4.252  -2.210   0.000  0.00  0.00    +0.044 A 
BRANCH   6  11
ATOM     11  N   UNL     1       3.299  -4.174   0.000  0.00  0.00    +0.084 N 
ATOM     12  O   UNL     1       3.512  -4.971   0.000  0.00  0.00    -0.576 OA
ATOM     13  O   UNL     1       2.502  -3.961   0.000  0.00  0.00    +0.042 OA
ENDBRANCH   6  11
ENDBRANCH   3   5
BRANCH   1  14
ATOM     14  C   UNL     1       1.278  -2.153   0.000  0.00  0.00    +0.080 C 
ATOM     15  C   UNL     1       0.695  -2.736   0.000  0.00  0.00    +0.020 C 
ATOM     16  C   UNL     1       1.278  -3.320   0.000  0.00  0.00    +0.003 C 
ATOM     17  C   UNL     1       1.861  -2.736   0.000  0.00  0.00    +0.020 C 
BRANCH  14  19
ATOM     18  C   UNL     1       0.908  -0.773   0.000  0.00  0.00    +0.002 C 
ATOM     19  C   UNL     1       0.695  -1.570   0.000  0.00  0.00    +0.020 C 
ENDBRANCH  14  19
ENDBRANCH   1  14
TORSDOF 4
