REMARK  Name = 
REMARK  2 active torsions:
REMARK  status: ('A' for Active; 'I' for Inactive)
REMARK    1  A    between atoms: N_7  and  C_8
REMARK    2  A    between atoms: C_8  and  C_9
REMARK                            x       y       z     vdW  Elec       q    Type
REMARK                         _______ _______ _______ _____ _____    ______ ____
ROOT
ATOM      1 CL   UNL     1       0.000   0.000   0.000  0.00  0.00    +0.000 Cl
ENDROOT
TORSDOF 0
REMARK  Name = 
REMARK  2 active torsions:
REMARK  status: ('A' for Active; 'I' for Inactive)
REMARK    1  A    between atoms: N_7  and  C_8
REMARK    2  A    between atoms: C_8  and  C_9
REMARK                            x       y       z     vdW  Elec       q    Type
REMARK                         _______ _______ _______ _____ _____    ______ ____
ROOT
ATOM      1  N   UNL     1       4.626   1.581   0.000  0.00  0.00    -0.123 NA
ATOM      2  C   UNL     1       4.626   0.756   0.000  0.00  0.00    +0.145 A 
ATOM      3  C   UNL     1       3.911   0.344   0.000  0.00  0.00    +0.278 A 
ATOM      4  O   UNL     1       3.197   0.756   0.000  0.00  0.00    -0.265 OA
ATOM      5  N   UNL     1       3.911  -0.481   0.000  0.00  0.00    -0.282 N 
ATOM      6  C   UNL     1       4.626  -0.894   0.000  0.00  0.00    +0.079 A 
ATOM      7  C   UNL     1       5.340  -0.481   0.000  0.00  0.00    +0.020 A 
ATOM      8  C   UNL     1       5.340   0.344   0.000  0.00  0.00    +0.024 A 
ENDROOT
BRANCH   5   9
ATOM      9  C   UNL     1       3.197  -0.894   0.000  0.00  0.00    +0.223 C 
BRANCH   9  10
ATOM     10  C   UNL     1       2.482  -0.481   0.000  0.00  0.00    +0.388 C 
ATOM     11  O   UNL     1       2.482   0.344   0.000  0.00  0.00    -0.243 OA
ATOM     12  O   UNL     1       1.768  -0.894   0.000  0.00  0.00    -0.243 OA
ENDBRANCH   9  10
ENDBRANCH   5   9
TORSDOF 2
