REMARK  Name = 
REMARK  3 active torsions:
REMARK  status: ('A' for Active; 'I' for Inactive)
REMARK    1  A    between atoms: C_2  and  N_3
REMARK    2  A    between atoms: N_3  and  C_4
REMARK    3  A    between atoms: C_4  and  C_5
REMARK                            x       y       z     vdW  Elec       q    Type
REMARK                         _______ _______ _______ _____ _____    ______ ____
ROOT
ATOM      1  N   UNL     1       0.715  -1.238   0.000  0.00  0.00    -0.289 N 
ATOM      2  C   UNL     1       0.715  -0.412   0.000  0.00  0.00    +0.154 A 
ATOM      3  N   UNL     1       1.429   0.000   0.000  0.00  0.00    -0.133 NA
ATOM      4  N   UNL     1       1.429   0.825   0.000  0.00  0.00    -0.145 NA
ATOM      5  C   UNL     1       0.715   1.238   0.000  0.00  0.00    +0.122 A 
ATOM      6  C   UNL     1       0.000   0.825   0.000  0.00  0.00    +0.025 A 
ATOM      7  C   UNL     1       0.000   0.000   0.000  0.00  0.00    +0.038 A 
ENDROOT
BRANCH   1   9
ATOM      8  C   UNL     1      -0.715  -1.238   0.000  0.00  0.00    +0.023 C 
ATOM      9  C   UNL     1       0.000  -1.650   0.000  0.00  0.00    +0.092 C 
ENDBRANCH   1   9
BRANCH   1  10
ATOM     10  C   UNL     1       1.429  -1.650   0.000  0.00  0.00    +0.123 C 
BRANCH  10  11
ATOM     11  C   UNL     1       1.429  -2.475   0.000  0.00  0.00    +0.152 C 
ATOM     12  O   UNL     1       0.715  -2.888   0.000  0.00  0.00    -0.351 OA
ATOM     13  C   UNL     1       0.715  -3.712   0.000  0.00  0.00    +0.161 C 
ATOM     14  C   UNL     1       1.429  -4.125   0.000  0.00  0.00    +0.121 C 
ATOM     15  N   UNL     1       2.143  -3.712   0.000  0.00  0.00    -0.213 NA
ATOM     16  C   UNL     1       2.143  -2.888   0.000  0.00  0.00    +0.120 C 
ENDBRANCH  10  11
ENDBRANCH   1  10
TORSDOF 3
