REMARK  Name = 
REMARK  5 active torsions:
REMARK  status: ('A' for Active; 'I' for Inactive)
REMARK    1  A    between atoms: C_2  and  C_3
REMARK    2  A    between atoms: C_2  and  N_10
REMARK    3  A    between atoms: C_3  and  N_4
REMARK    4  A    between atoms: C_11  and  C_13
REMARK    5  A    between atoms: C_13  and  N_14
REMARK                            x       y       z     vdW  Elec       q    Type
REMARK                         _______ _______ _______ _____ _____    ______ ____
ROOT
ATOM      1  C   UNL     1       1.429  -2.475   0.000  0.00  0.00    +0.025 C 
ATOM      2  C   UNL     1       1.429  -1.650   0.000  0.00  0.00    +0.111 C 
ENDROOT
BRANCH   2   3
ATOM      3  N   UNL     1       2.143  -1.238   0.000  0.00  0.00    -0.204 NA
ATOM      4  C   UNL     1       2.858  -1.650   0.000  0.00  0.00    +0.266 C 
ATOM      5  O   UNL     1       2.858  -2.475   0.000  0.00  0.00    -0.271 OA
BRANCH   4   6
ATOM      6  C   UNL     1       3.572  -1.238   0.000  0.00  0.00    +0.214 C 
BRANCH   6   7
ATOM      7  N   UNL     1       4.287  -1.650   0.000  0.00  0.00    -0.240 N 
ATOM      8  N   UNL     1       4.373  -2.470   0.000  0.00  0.00    -0.167 NA
ATOM      9  C   UNL     1       5.180  -2.642   0.000  0.00  0.00    +0.122 A 
ATOM     10  C   UNL     1       5.593  -1.927   0.000  0.00  0.00    +0.043 A 
ATOM     11  C   UNL     1       5.040  -1.314   0.000  0.00  0.00    +0.097 A 
ENDBRANCH   6   7
ENDBRANCH   4   6
ENDBRANCH   2   3
BRANCH   2  12
ATOM     12  C   UNL     1       0.715  -1.238   0.000  0.00  0.00    +0.094 C 
BRANCH  12  13
ATOM     13  N   UNL     1       0.000  -1.650   0.000  0.00  0.00    -0.267 NA
ATOM     14  C   UNL     1      -0.715  -1.238   0.000  0.00  0.00    +0.105 C 
ATOM     15  C   UNL     1      -1.429  -1.650   0.000  0.00  0.00    +0.159 C 
ATOM     16  O   UNL     1      -1.429  -2.475   0.000  0.00  0.00    -0.351 OA
ATOM     17  C   UNL     1      -0.715  -2.888   0.000  0.00  0.00    +0.159 C 
ATOM     18  C   UNL     1       0.000  -2.475   0.000  0.00  0.00    +0.105 C 
ENDBRANCH  12  13
ENDBRANCH   2  12
TORSDOF 5
