REMARK  Name = 
REMARK  1 active torsions:
REMARK  status: ('A' for Active; 'I' for Inactive)
REMARK    1  A    between atoms: N_1  and  C_7
REMARK                            x       y       z     vdW  Elec       q    Type
REMARK                         _______ _______ _______ _____ _____    ______ ____
ROOT
ATOM      1  N   UNL     1      -1.325   3.117   0.000  0.00  0.00    -0.253 N 
ATOM      2  C   UNL     1      -0.608   3.529   0.000  0.00  0.00    +0.117 A 
ATOM      3  C   UNL     1      -0.608   4.350   0.000  0.00  0.00    +0.215 A 
ATOM      4  C   UNL     1      -1.325   4.763   0.000  0.00  0.00    +0.312 A 
ATOM      5  O   UNL     1      -1.325   5.588   0.000  0.00  0.00    -0.263 OA
ATOM      6  N   UNL     1      -2.038   4.350   0.000  0.00  0.00    -0.151 NA
ATOM      7  F   UNL     1       0.104   4.763   0.000  0.00  0.00    -0.197 F 
ATOM      8  C   UNL     1      -2.038   3.529   0.000  0.00  0.00    +0.355 A 
ATOM      9  O   UNL     1      -2.754   3.117   0.000  0.00  0.00    -0.244 OA
ENDROOT
BRANCH   1  10
ATOM     10  C   UNL     1      -1.325   2.292   0.000  0.00  0.00    +0.208 C 
ATOM     11  C   UNL     1      -0.658   1.808   0.000  0.00  0.00    +0.057 C 
ATOM     12  C   UNL     1      -0.912   1.021   0.000  0.00  0.00    +0.037 C 
ATOM     13  C   UNL     1      -1.738   1.021   0.000  0.00  0.00    +0.144 C 
ATOM     14  O   UNL     1      -1.992   1.808   0.000  0.00  0.00    -0.335 OA
ENDBRANCH   1  10
TORSDOF 1
