REMARK  Name = 
REMARK  4 active torsions:
REMARK  status: ('A' for Active; 'I' for Inactive)
REMARK    1  A    between atoms: O_2  and  C_3
REMARK    2  A    between atoms: C_6  and  N_7
REMARK    3  A    between atoms: C_8  and  C_10
REMARK    4  A    between atoms: C_10  and  N_11
REMARK                            x       y       z     vdW  Elec       q    Type
REMARK                         _______ _______ _______ _____ _____    ______ ____
ROOT
ATOM      1  N   UNL     1       2.649  -4.588   0.000  0.00  0.00    -0.205 NA
ATOM      2  C   UNL     1       1.934  -5.000   0.000  0.00  0.00    +0.264 C 
ATOM      3  O   UNL     1       1.220  -4.588   0.000  0.00  0.00    -0.271 OA
ENDROOT
BRANCH   1   8
ATOM      4  C   UNL     1       2.649  -2.596   0.000  0.00  0.00    +0.096 C 
ATOM      5  C   UNL     1       2.065  -3.179   0.000  0.00  0.00    +0.041 C 
ATOM      6  C   UNL     1       1.362  -2.748   0.000  0.00  0.00    +0.004 C 
ATOM      7  C   UNL     1       1.362  -3.610   0.000  0.00  0.00    +0.004 C 
ATOM      8  C   UNL     1       2.649  -3.763   0.000  0.00  0.00    +0.100 C 
ATOM      9  C   UNL     1       3.232  -3.179   0.000  0.00  0.00    +0.049 C 
ATOM     10  C   UNL     1       2.065  -2.013   0.000  0.00  0.00    +0.030 C 
BRANCH   4  12
ATOM     11  C   UNL     1       4.029  -2.226   0.000  0.00  0.00    +0.174 C 
ATOM     12  O   UNL     1       3.232  -2.013   0.000  0.00  0.00    -0.356 OA
ENDBRANCH   4  12
ENDBRANCH   1   8
BRANCH   2  13
ATOM     13  C   UNL     1       1.934  -5.825   0.000  0.00  0.00    +0.196 C 
BRANCH  13  14
ATOM     14  N   UNL     1       1.220  -6.237   0.000  0.00  0.00    -0.285 N 
ATOM     15  C   UNL     1       0.505  -5.825   0.000  0.00  0.00    +0.261 A 
ATOM     16  O   UNL     1       0.505  -5.000   0.000  0.00  0.00    -0.267 OA
ATOM     17  C   UNL     1      -0.209  -6.237   0.000  0.00  0.00    +0.061 A 
ATOM     18  C   UNL     1      -0.209  -7.062   0.000  0.00  0.00    +0.006 A 
ATOM     19  C   UNL     1       0.505  -7.475   0.000  0.00  0.00    +0.019 A 
ATOM     20  C   UNL     1       1.220  -7.062   0.000  0.00  0.00    +0.079 A 
ENDBRANCH  13  14
ENDBRANCH   2  13
TORSDOF 4
