REMARK  Name = 
REMARK  5 active torsions:
REMARK  status: ('A' for Active; 'I' for Inactive)
REMARK    1  A    between atoms: C_2  and  C_4
REMARK    2  A    between atoms: N_12  and  C_13
REMARK    3  A    between atoms: C_13  and  C_14
REMARK    4  A    between atoms: C_14  and  O_15
REMARK    5  A    between atoms: O_15  and  C_16
REMARK                            x       y       z     vdW  Elec       q    Type
REMARK                         _______ _______ _______ _____ _____    ______ ____
ROOT
ATOM      1  C   UNL     1       0.654  -0.698   0.000  0.00  0.00    +0.151 A 
ATOM      2  N   UNL     1       1.139  -1.365   0.000  0.00  0.00    -0.309 N 
ATOM      3  C   UNL     1       1.923  -1.110   0.000  0.00  0.00    +0.079 A 
ATOM      4  C   UNL     1       1.923  -0.285   0.000  0.00  0.00    +0.098 A 
ATOM      5  C   UNL     1       2.638   0.127   0.000  0.00  0.00    +0.021 A 
ATOM      6  C   UNL     1       3.352  -0.285   0.000  0.00  0.00    +0.002 A 
ATOM      7  C   UNL     1       3.352  -1.110   0.000  0.00  0.00    +0.002 A 
ATOM      8  C   UNL     1       2.638  -1.523   0.000  0.00  0.00    +0.019 A 
ATOM      9  N   UNL     1       1.139  -0.030   0.000  0.00  0.00    -0.228 NA
ENDROOT
BRANCH   1  11
ATOM     10  C   UNL     1      -0.584  -1.412   0.000  0.00  0.00    +0.044 C 
ATOM     11  C   UNL     1      -0.171  -0.698   0.000  0.00  0.00    +0.208 C 
ATOM     12  O   UNL     1      -0.584   0.017   0.000  0.00  0.00    -0.215 OA
ENDBRANCH   1  11
BRANCH   2  13
ATOM     13  C   UNL     1       0.884  -2.150   0.000  0.00  0.00    +0.154 C 
BRANCH  13  14
ATOM     14  C   UNL     1       0.077  -2.321   0.000  0.00  0.00    +0.230 C 
BRANCH  14  15
ATOM     15  O   UNL     1      -0.178  -3.106   0.000  0.00  0.00    -0.473 OA
BRANCH  15  16
ATOM     16  C   UNL     1      -0.985  -3.278   0.000  0.00  0.00    +0.139 A 
ATOM     17  C   UNL     1      -1.537  -2.665   0.000  0.00  0.00    +0.037 A 
ATOM     18  C   UNL     1      -2.344  -2.836   0.000  0.00  0.00    +0.003 A 
ATOM     19  C   UNL     1      -2.599  -3.621   0.000  0.00  0.00    +0.000 A 
ATOM     20  C   UNL     1      -2.047  -4.234   0.000  0.00  0.00    +0.003 A 
ATOM     21  C   UNL     1      -1.240  -4.062   0.000  0.00  0.00    +0.037 A 
ENDBRANCH  15  16
ENDBRANCH  14  15
ENDBRANCH  13  14
ENDBRANCH   2  13
TORSDOF 5
