REMARK  Name = 
REMARK  6 active torsions:
REMARK  status: ('A' for Active; 'I' for Inactive)
REMARK    1  A    between atoms: C_2  and  C_4
REMARK    2  A    between atoms: C_4  and  C_5
REMARK    3  A    between atoms: C_5  and  C_6
REMARK    4  A    between atoms: C_6  and  N_7
REMARK    5  A    between atoms: C_8  and  C_10
REMARK    6  A    between atoms: C_10  and  C_11
REMARK                            x       y       z     vdW  Elec       q    Type
REMARK                         _______ _______ _______ _____ _____    ______ ____
ROOT
ATOM      1  N   UNL     1       2.102  -1.996   0.000  0.00  0.00    -0.205 NA
ATOM      2  C   UNL     1       2.816  -2.408   0.000  0.00  0.00    +0.248 C 
ATOM      3  O   UNL     1       2.816  -3.233   0.000  0.00  0.00    -0.273 OA
ENDROOT
BRANCH   2   4
ATOM      4  C   UNL     1       3.530  -1.996   0.000  0.00  0.00    +0.136 C 
BRANCH   4   5
ATOM      5  C   UNL     1       4.245  -2.408   0.000  0.00  0.00    +0.110 A 
ATOM      6  N   UNL     1       4.331  -3.229   0.000  0.00  0.00    -0.081 NA
ATOM      7  O   UNL     1       5.138  -3.400   0.000  0.00  0.00    -0.358 OA
ATOM      8  C   UNL     1       5.551  -2.686   0.000  0.00  0.00    +0.155 A 
ATOM      9  C   UNL     1       6.371  -2.599   0.000  0.00  0.00    +0.075 C 
ATOM     10  C   UNL     1       4.999  -2.073   0.000  0.00  0.00    +0.054 A 
ENDBRANCH   4   5
ENDBRANCH   2   4
BRANCH   1  11
ATOM     11  C   UNL     1       1.387  -2.408   0.000  0.00  0.00    +0.115 C 
BRANCH  11  12
ATOM     12  C   UNL     1       0.672  -1.996   0.000  0.00  0.00    +0.020 C 
ATOM     13  C   UNL     1       1.085  -1.281   0.000  0.00  0.00    +0.002 C 
ATOM     14  C   UNL     1       0.371  -0.869   0.000  0.00  0.00    +0.000 C 
ATOM     15  C   UNL     1      -0.042  -1.583   0.000  0.00  0.00    +0.002 C 
BRANCH  12  16
ATOM     16  C   UNL     1       0.260  -2.710   0.000  0.00  0.00    +0.002 C 
BRANCH  16  18
ATOM     17  C   UNL     1      -0.978  -1.996   0.000  0.00  0.00    +0.000 C 
ATOM     18  C   UNL     1      -0.565  -2.710   0.000  0.00  0.00    +0.000 C 
ATOM     19  C   UNL     1      -0.978  -3.425   0.000  0.00  0.00    +0.000 C 
ENDBRANCH  16  18
ENDBRANCH  12  16
ENDBRANCH  11  12
ENDBRANCH   1  11
TORSDOF 6
