REMARK  Name = 
REMARK  4 active torsions:
REMARK  status: ('A' for Active; 'I' for Inactive)
REMARK    1  A    between atoms: C_4  and  N_5
REMARK    2  A    between atoms: N_8  and  C_9
REMARK    3  A    between atoms: C_9  and  C_10
REMARK    4  A    between atoms: C_10  and  C_11
REMARK                            x       y       z     vdW  Elec       q    Type
REMARK                         _______ _______ _______ _____ _____    ______ ____
ROOT
ATOM      1  N   UNL     1       2.143  -3.712   0.000  0.00  0.00    -0.159 NA
ATOM      2  C   UNL     1       2.858  -4.125   0.000  0.00  0.00    +0.344 C 
ATOM      3  N   UNL     1       3.572  -3.712   0.000  0.00  0.00    -0.187 NA
ATOM      4  O   UNL     1       2.858  -4.950   0.000  0.00  0.00    -0.249 OA
ENDROOT
BRANCH   1  11
ATOM      5  C   UNL     1      -0.715  -3.712   0.000  0.00  0.00    +0.036 C 
ATOM      6  C   UNL     1       0.000  -4.125   0.000  0.00  0.00    +0.037 A 
ATOM      7  C   UNL     1       0.000  -4.950   0.000  0.00  0.00    +0.275 A 
ATOM      8  O   UNL     1      -0.715  -5.362   0.000  0.00  0.00    -0.266 OA
ATOM      9  N   UNL     1       0.715  -5.362   0.000  0.00  0.00    -0.205 NA
ATOM     10  C   UNL     1       1.429  -4.950   0.000  0.00  0.00    +0.119 A 
ATOM     11  C   UNL     1       1.429  -4.125   0.000  0.00  0.00    +0.094 A 
ATOM     12  C   UNL     1       0.715  -3.712   0.000  0.00  0.00    +0.019 A 
ENDBRANCH   1  11
BRANCH   3  13
ATOM     13  C   UNL     1       4.287  -4.125   0.000  0.00  0.00    +0.119 C 
BRANCH  13  14
ATOM     14  C   UNL     1       5.001  -3.712   0.000  0.00  0.00    +0.053 C 
BRANCH  14  15
ATOM     15  C   UNL     1       5.716  -4.125   0.000  0.00  0.00    +0.117 C 
ATOM     16  O   UNL     1       5.716  -4.950   0.000  0.00  0.00    -0.356 OA
ATOM     17  C   UNL     1       6.430  -5.362   0.000  0.00  0.00    +0.142 C 
ATOM     18  C   UNL     1       7.145  -4.950   0.000  0.00  0.00    +0.032 C 
ATOM     19  C   UNL     1       7.145  -4.125   0.000  0.00  0.00    +0.005 C 
ATOM     20  C   UNL     1       6.430  -3.712   0.000  0.00  0.00    +0.030 C 
ENDBRANCH  14  15
ENDBRANCH  13  14
ENDBRANCH   3  13
TORSDOF 4
