REMARK  Name = 
REMARK  1 active torsions:
REMARK  status: ('A' for Active; 'I' for Inactive)
REMARK    1  A    between atoms: C_5  and  N_8
REMARK                            x       y       z     vdW  Elec       q    Type
REMARK                         _______ _______ _______ _____ _____    ______ ____
ROOT
ATOM      1  N   UNL     1       2.858  -4.950   0.000  0.00  0.00    -0.189 NA
ATOM      2  C   UNL     1       2.143  -5.362   0.000  0.00  0.00    +0.345 C 
ATOM      3  N   UNL     1       2.143  -6.188   0.000  0.00  0.00    -0.142 NA
ATOM      4  C   UNL     1       1.429  -6.600   0.000  0.00  0.00    +0.155 A 
ATOM      5  N   UNL     1       0.715  -6.188   0.000  0.00  0.00    -0.233 NA
ATOM      6  C   UNL     1       0.000  -6.600   0.000  0.00  0.00    +0.061 A 
ATOM      7  C   UNL     1      -0.715  -6.188   0.000  0.00  0.00    +0.052 C 
ATOM      8  C   UNL     1       0.000  -7.425   0.000  0.00  0.00    +0.011 A 
ATOM      9  C   UNL     1       0.715  -7.838   0.000  0.00  0.00    -0.018 A 
ATOM     10  C   UNL     1       0.715  -8.662   0.000  0.00  0.00    +0.031 C 
ATOM     11  C   UNL     1       1.429  -7.425   0.000  0.00  0.00    +0.032 A 
ATOM     12  O   UNL     1       1.429  -4.950   0.000  0.00  0.00    -0.249 OA
ENDROOT
BRANCH   1  17
ATOM     13  C   UNL     1       2.858  -1.650   0.000  0.00  0.00    +0.090 C 
ATOM     14  N   UNL     1       2.858  -2.475   0.000  0.00  0.00    -0.271 NA
ATOM     15  C   UNL     1       2.143  -2.888   0.000  0.00  0.00    +0.074 C 
ATOM     16  C   UNL     1       2.143  -3.712   0.000  0.00  0.00    +0.039 C 
ATOM     17  C   UNL     1       2.858  -4.125   0.000  0.00  0.00    +0.100 C 
ATOM     18  C   UNL     1       3.572  -3.712   0.000  0.00  0.00    +0.039 C 
ATOM     19  C   UNL     1       3.572  -2.888   0.000  0.00  0.00    +0.074 C 
ENDBRANCH   1  17
TORSDOF 1
