REMARK  Name = 
REMARK  4 active torsions:
REMARK  status: ('A' for Active; 'I' for Inactive)
REMARK    1  A    between atoms: C_2  and  C_3
REMARK    2  A    between atoms: C_3  and  C_5
REMARK    3  A    between atoms: C_3  and  N_7
REMARK    4  A    between atoms: N_14  and  C_16
REMARK                            x       y       z     vdW  Elec       q    Type
REMARK                         _______ _______ _______ _____ _____    ______ ____
ROOT
ATOM      1  N   UNL     1       1.429   0.825   0.000  0.00  0.00    -0.188 NA
ATOM      2  C   UNL     1       1.429   0.000   0.000  0.00  0.00    +0.346 C 
ATOM      3  N   UNL     1       0.715  -0.412   0.000  0.00  0.00    -0.123 NA
ATOM      4  C   UNL     1       0.715  -1.238   0.000  0.00  0.00    +0.263 A 
ATOM      5  N   UNL     1       0.047  -1.722   0.000  0.00  0.00    -0.130 NA
ATOM      6  N   UNL     1       0.302  -2.507   0.000  0.00  0.00    -0.231 N 
ATOM      7  C   UNL     1       1.127  -2.507   0.000  0.00  0.00    +0.198 A 
ATOM      8  N   UNL     1       1.382  -1.722   0.000  0.00  0.00    -0.189 NA
ATOM      9  O   UNL     1       2.143  -0.412   0.000  0.00  0.00    -0.249 OA
ENDROOT
BRANCH   6  10
ATOM     10  C   UNL     1      -0.183  -3.175   0.000  0.00  0.00    +0.107 C 
ATOM     11  C   UNL     1      -1.003  -3.088   0.000  0.00  0.00    +0.024 C 
ATOM     12  C   UNL     1      -1.488  -3.756   0.000  0.00  0.00    +0.002 C 
ATOM     13  C   UNL     1      -1.153  -4.509   0.000  0.00  0.00    +0.000 C 
ATOM     14  C   UNL     1      -0.332  -4.596   0.000  0.00  0.00    +0.002 C 
ATOM     15  C   UNL     1       0.153  -3.928   0.000  0.00  0.00    +0.024 C 
ENDBRANCH   6  10
BRANCH   1  16
ATOM     16  C   UNL     1       2.143   1.238   0.000  0.00  0.00    +0.111 C 
ATOM     17  C   UNL     1       1.731   1.952   0.000  0.00  0.00    +0.024 C 
BRANCH  16  19
ATOM     18  C   UNL     1       2.858   2.475   0.000  0.00  0.00    +0.002 C 
ATOM     19  C   UNL     1       2.858   1.650   0.000  0.00  0.00    +0.023 C 
ENDBRANCH  16  19
BRANCH  16  20
ATOM     20  C   UNL     1       2.556   0.523   0.000  0.00  0.00    +0.202 C 
ATOM     21  O   UNL     1       3.381   0.523   0.000  0.00  0.00    -0.219 OA
ENDBRANCH  16  20
ENDBRANCH   1  16
TORSDOF 4
