REMARK  Name = 
REMARK  7 active torsions:
REMARK  status: ('A' for Active; 'I' for Inactive)
REMARK    1  A    between atoms: C_2  and  C_3
REMARK    2  A    between atoms: C_2  and  N_9
REMARK    3  A    between atoms: C_3  and  N_4
REMARK    4  A    between atoms: N_9  and  C_10
REMARK    5  A    between atoms: C_10  and  C_11
REMARK    6  A    between atoms: N_13  and  C_14
REMARK    7  A    between atoms: C_14  and  C_20
REMARK                            x       y       z     vdW  Elec       q    Type
REMARK                         _______ _______ _______ _____ _____    ______ ____
ROOT
ATOM      1  C   UNL     1       3.884  -3.446   0.000  0.00  0.00    +0.260 C 
ATOM      2  N   UNL     1       4.599  -3.859   0.000  0.00  0.00    -0.193 NA
ATOM      3  O   UNL     1       3.884  -2.622   0.000  0.00  0.00    -0.272 OA
ENDROOT
BRANCH   2   4
ATOM      4  C   UNL     1       5.313  -3.446   0.000  0.00  0.00    +0.157 C 
ATOM      5  C   UNL     1       5.596  -4.222   0.000  0.00  0.00    +0.034 C 
ATOM      6  C   UNL     1       6.408  -4.365   0.000  0.00  0.00    +0.003 C 
ATOM      7  C   UNL     1       6.938  -3.733   0.000  0.00  0.00    +0.000 C 
ATOM      8  C   UNL     1       6.656  -2.958   0.000  0.00  0.00    +0.003 C 
ATOM      9  C   UNL     1       5.844  -2.814   0.000  0.00  0.00    +0.034 C 
BRANCH   4  10
ATOM     10  C   UNL     1       4.783  -2.814   0.000  0.00  0.00    +0.091 C 
ATOM     11  N   UNL     1       4.253  -2.183   0.000  0.00  0.00    -0.194 NA
ENDBRANCH   4  10
ENDBRANCH   2   4
BRANCH   1  12
ATOM     12  C   UNL     1       3.170  -3.859   0.000  0.00  0.00    +0.175 C 
BRANCH  12  13
ATOM     13  N   UNL     1       2.455  -3.446   0.000  0.00  0.00    -0.208 NA
BRANCH  13  15
ATOM     14  C   UNL     1       1.741  -4.684   0.000  0.00  0.00    +0.021 C 
ATOM     15  C   UNL     1       1.741  -3.859   0.000  0.00  0.00    +0.098 C 
BRANCH  15  16
ATOM     16  C   UNL     1       1.027  -3.446   0.000  0.00  0.00    +0.145 C 
BRANCH  16  17
ATOM     17  N   UNL     1       0.312  -3.859   0.000  0.00  0.00    -0.248 N 
ATOM     18  N   UNL     1      -0.442  -3.523   0.000  0.00  0.00    -0.168 NA
ATOM     19  C   UNL     1      -0.994  -4.136   0.000  0.00  0.00    +0.122 A 
ATOM     20  C   UNL     1      -0.581  -4.851   0.000  0.00  0.00    +0.043 A 
ATOM     21  C   UNL     1       0.226  -4.679   0.000  0.00  0.00    +0.097 A 
ENDBRANCH  16  17
ENDBRANCH  15  16
ENDBRANCH  13  15
ENDBRANCH  12  13
ENDBRANCH   1  12
TORSDOF 7
