REMARK  Name = 
REMARK  1 active torsions:
REMARK  status: ('A' for Active; 'I' for Inactive)
REMARK    1  A    between atoms: C_2  and  N_8
REMARK                            x       y       z     vdW  Elec       q    Type
REMARK                         _______ _______ _______ _____ _____    ______ ____
ROOT
ATOM      1  N   UNL     1      -3.377   1.496   0.000  0.00  0.00    -0.190 NA
ATOM      2  C   UNL     1      -3.377   0.671   0.000  0.00  0.00    +0.345 C 
ATOM      3  N   UNL     1      -2.662   0.259   0.000  0.00  0.00    -0.136 NA
ATOM      4  C   UNL     1      -2.662  -0.566   0.000  0.00  0.00    +0.187 A 
ATOM      5  S   UNL     1      -3.330  -1.051   0.000  0.00  0.00    -0.049 S 
ATOM      6  C   UNL     1      -3.075  -1.836   0.000  0.00  0.00    +0.059 A 
ATOM      7  C   UNL     1      -2.250  -1.836   0.000  0.00  0.00    +0.108 A 
ATOM      8  N   UNL     1      -1.995  -1.051   0.000  0.00  0.00    -0.221 NA
ATOM      9  O   UNL     1      -4.091   0.259   0.000  0.00  0.00    -0.249 OA
ENDROOT
BRANCH   1  11
ATOM     10  C   UNL     1      -3.561   2.541   0.000  0.00  0.00    +0.022 C 
ATOM     11  C   UNL     1      -4.091   1.909   0.000  0.00  0.00    +0.085 C 
ATOM     12  C   UNL     1      -4.621   2.541   0.000  0.00  0.00    +0.052 C 
ATOM     13  C   UNL     1      -5.434   2.397   0.000  0.00  0.00    +0.144 C 
ATOM     14  O   UNL     1      -5.716   1.622   0.000  0.00  0.00    -0.354 OA
ATOM     15  C   UNL     1      -5.186   0.990   0.000  0.00  0.00    +0.144 C 
ATOM     16  C   UNL     1      -4.373   1.133   0.000  0.00  0.00    +0.052 C 
ENDBRANCH   1  11
TORSDOF 1
