REMARK  Name = 
REMARK  5 active torsions:
REMARK  status: ('A' for Active; 'I' for Inactive)
REMARK    1  A    between atoms: C_4  and  C_5
REMARK    2  A    between atoms: C_5  and  C_6
REMARK    3  A    between atoms: C_6  and  N_7
REMARK    4  A    between atoms: N_10  and  C_11
REMARK    5  A    between atoms: C_11  and  C_12
REMARK                            x       y       z     vdW  Elec       q    Type
REMARK                         _______ _______ _______ _____ _____    ______ ____
ROOT
ATOM      1  N   UNL     1      -1.149  -2.276   0.000  0.00  0.00    -0.187 NA
ATOM      2  C   UNL     1      -0.434  -2.688   0.000  0.00  0.00    +0.339 C 
ATOM      3  N   UNL     1       0.280  -2.276   0.000  0.00  0.00    -0.186 NA
ATOM      4  O   UNL     1      -0.434  -3.513   0.000  0.00  0.00    -0.249 OA
ENDROOT
BRANCH   1   5
ATOM      5  C   UNL     1      -1.863  -2.688   0.000  0.00  0.00    +0.122 C 
BRANCH   5   6
ATOM      6  C   UNL     1      -2.578  -2.276   0.000  0.00  0.00    +0.053 C 
BRANCH   6  11
ATOM      7  C   UNL     1      -5.418  -2.880   0.000  0.00  0.00    +0.154 C 
ATOM      8  N   UNL     1      -4.598  -2.966   0.000  0.00  0.00    -0.248 N 
ATOM      9  N   UNL     1      -4.185  -3.680   0.000  0.00  0.00    -0.168 NA
ATOM     10  C   UNL     1      -3.378  -3.509   0.000  0.00  0.00    +0.117 A 
ATOM     11  C   UNL     1      -3.292  -2.688   0.000  0.00  0.00    +0.019 A 
ATOM     12  C   UNL     1      -4.046  -2.353   0.000  0.00  0.00    +0.092 A 
ENDBRANCH   6  11
ENDBRANCH   5   6
ENDBRANCH   1   5
BRANCH   3  13
ATOM     13  C   UNL     1       0.995  -2.688   0.000  0.00  0.00    +0.127 C 
BRANCH  13  14
ATOM     14  C   UNL     1       1.709  -2.276   0.000  0.00  0.00    +0.059 C 
ATOM     15  S   UNL     1       2.494  -2.021   0.000  0.00  0.00    -0.140 S 
ATOM     16  C   UNL     1       2.494  -1.196   0.000  0.00  0.00    +0.058 C 
ATOM     17  C   UNL     1       1.709  -0.941   0.000  0.00  0.00    +0.013 C 
ATOM     18  C   UNL     1       1.224  -1.609   0.000  0.00  0.00    +0.013 C 
ATOM     19  C   UNL     1       2.045  -3.030   0.000  0.00  0.00    +0.013 C 
ENDBRANCH  13  14
ENDBRANCH   3  13
TORSDOF 5
