REMARK  Name = 
REMARK  6 active torsions:
REMARK  status: ('A' for Active; 'I' for Inactive)
REMARK    1  A    between atoms: C_6  and  N_7
REMARK    2  A    between atoms: N_7  and  C_8
REMARK    3  A    between atoms: C_8  and  C_9
REMARK    4  A    between atoms: C_9  and  O_10
REMARK    5  A    between atoms: O_10  and  C_11
REMARK    6  A    between atoms: C_11  and  C_12
REMARK                            x       y       z     vdW  Elec       q    Type
REMARK                         _______ _______ _______ _____ _____    ______ ____
ROOT
ATOM      1  C   UNL     1       2.858   0.825   0.000  0.00  0.00    +0.146 C 
ENDROOT
BRANCH   1   2
ATOM      2  N   UNL     1       2.143   1.238   0.000  0.00  0.00    -0.218 NA
BRANCH   2   6
ATOM      3  C   UNL     1       0.715  -1.238   0.000  0.00  0.00    +0.052 C 
ATOM      4  C   UNL     1       0.715  -0.412   0.000  0.00  0.00    +0.061 A 
ATOM      5  N   UNL     1       1.429   0.000   0.000  0.00  0.00    -0.234 NA
ATOM      6  C   UNL     1       1.429   0.825   0.000  0.00  0.00    +0.147 A 
ATOM      7  C   UNL     1       0.715   1.238   0.000  0.00  0.00    +0.036 A 
ATOM      8  C   UNL     1       0.000   0.825   0.000  0.00  0.00    +0.004 A 
ATOM      9  C   UNL     1       0.000   0.000   0.000  0.00  0.00    +0.015 A 
ENDBRANCH   2   6
ENDBRANCH   1   2
BRANCH   1  10
ATOM     10  C   UNL     1       3.572   1.238   0.000  0.00  0.00    +0.166 C 
BRANCH  10  11
ATOM     11  O   UNL     1       4.287   0.825   0.000  0.00  0.00    -0.349 OA
BRANCH  11  12
ATOM     12  C   UNL     1       5.001   1.238   0.000  0.00  0.00    +0.172 C 
BRANCH  12  13
ATOM     13  C   UNL     1       5.716   0.825   0.000  0.00  0.00    +0.145 C 
ATOM     14  O   UNL     1       5.802   0.004   0.000  0.00  0.00    -0.354 OA
ATOM     15  C   UNL     1       6.609  -0.167   0.000  0.00  0.00    +0.142 C 
ATOM     16  C   UNL     1       7.021   0.547   0.000  0.00  0.00    +0.035 C 
ATOM     17  C   UNL     1       6.469   1.161   0.000  0.00  0.00    +0.035 C 
ENDBRANCH  12  13
ENDBRANCH  11  12
ENDBRANCH  10  11
ENDBRANCH   1  10
TORSDOF 6
