REMARK  Name = 
REMARK  6 active torsions:
REMARK  status: ('A' for Active; 'I' for Inactive)
REMARK    1  A    between atoms: C_2  and  C_4
REMARK    2  A    between atoms: C_4  and  C_6
REMARK    3  A    between atoms: C_6  and  C_7
REMARK    4  A    between atoms: C_9  and  C_10
REMARK    5  A    between atoms: C_10  and  C_11
REMARK    6  A    between atoms: N_13  and  C_14
REMARK                            x       y       z     vdW  Elec       q    Type
REMARK                         _______ _______ _______ _____ _____    ______ ____
ROOT
ATOM      1  C   UNL     1       3.595  -1.611   0.000  0.00  0.00    +0.239 A 
ATOM      2  O   UNL     1       2.928  -2.096   0.000  0.00  0.00    -0.337 OA
ATOM      3  N   UNL     1       3.182  -2.881   0.000  0.00  0.00    -0.060 NA
ATOM      4  C   UNL     1       4.007  -2.881   0.000  0.00  0.00    +0.190 A 
ATOM      5  N   UNL     1       4.262  -2.096   0.000  0.00  0.00    -0.194 NA
ENDROOT
BRANCH   1   6
ATOM      6  C   UNL     1       3.595  -0.786   0.000  0.00  0.00    +0.121 C 
BRANCH   6   7
ATOM      7  C   UNL     1       2.880  -0.374   0.000  0.00  0.00    +0.161 C 
ATOM      8  O   UNL     1       2.166  -0.786   0.000  0.00  0.00    -0.223 OA
BRANCH   7  10
ATOM      9  C   UNL     1       2.166   0.864   0.000  0.00  0.00    +0.003 C 
ATOM     10  C   UNL     1       2.880   0.451   0.000  0.00  0.00    +0.031 C 
ATOM     11  C   UNL     1       3.595   0.864   0.000  0.00  0.00    +0.003 C 
ENDBRANCH   7  10
ENDBRANCH   6   7
ENDBRANCH   1   6
BRANCH   4  12
ATOM     12  C   UNL     1       4.492  -3.548   0.000  0.00  0.00    +0.156 C 
BRANCH  12  13
ATOM     13  C   UNL     1       4.157  -4.302   0.000  0.00  0.00    +0.249 C 
ATOM     14  N   UNL     1       4.642  -4.970   0.000  0.00  0.00    -0.207 NA
ATOM     15  O   UNL     1       3.336  -4.388   0.000  0.00  0.00    -0.273 OA
BRANCH  14  16
ATOM     16  C   UNL     1       4.306  -5.723   0.000  0.00  0.00    +0.095 C 
ATOM     17  C   UNL     1       3.499  -5.895   0.000  0.00  0.00    +0.022 C 
ATOM     18  C   UNL     1       3.413  -6.715   0.000  0.00  0.00    +0.002 C 
ATOM     19  C   UNL     1       4.167  -7.051   0.000  0.00  0.00    +0.002 C 
ATOM     20  C   UNL     1       4.719  -6.438   0.000  0.00  0.00    +0.022 C 
ENDBRANCH  14  16
ENDBRANCH  12  13
ENDBRANCH   4  12
TORSDOF 6
