REMARK  Name = 
REMARK  4 active torsions:
REMARK  status: ('A' for Active; 'I' for Inactive)
REMARK    1  A    between atoms: C_3  and  C_5
REMARK    2  A    between atoms: C_5  and  N_7
REMARK    3  A    between atoms: C_8  and  C_10
REMARK    4  A    between atoms: C_10  and  N_12
REMARK                            x       y       z     vdW  Elec       q    Type
REMARK                         _______ _______ _______ _____ _____    ______ ____
ROOT
ATOM      1  N   UNL     1       4.592  -2.952   0.000  0.00  0.00    -0.196 NA
ATOM      2  C   UNL     1       5.307  -3.364   0.000  0.00  0.00    +0.264 C 
ATOM      3  O   UNL     1       5.307  -4.189   0.000  0.00  0.00    -0.271 OA
ENDROOT
BRANCH   1   4
ATOM      4  C   UNL     1       3.878  -3.364   0.000  0.00  0.00    +0.173 C 
ATOM      5  C   UNL     1       3.878  -4.189   0.000  0.00  0.00    +0.033 C 
BRANCH   4   8
ATOM      6  C   UNL     1       1.734  -2.952   0.000  0.00  0.00    +0.139 C 
ATOM      7  N   UNL     1       2.449  -3.364   0.000  0.00  0.00    -0.202 NA
ATOM      8  C   UNL     1       3.163  -2.952   0.000  0.00  0.00    +0.261 C 
ATOM      9  O   UNL     1       3.163  -2.127   0.000  0.00  0.00    -0.271 OA
ENDBRANCH   4   8
ENDBRANCH   1   4
BRANCH   2  10
ATOM     10  C   UNL     1       6.021  -2.952   0.000  0.00  0.00    +0.184 C 
ATOM     11  C   UNL     1       6.021  -2.127   0.000  0.00  0.00    +0.036 C 
BRANCH  10  12
ATOM     12  N   UNL     1       6.736  -3.364   0.000  0.00  0.00    -0.223 N 
ATOM     13  N   UNL     1       6.822  -4.185   0.000  0.00  0.00    -0.145 NA
ATOM     14  C   UNL     1       7.629  -4.356   0.000  0.00  0.00    +0.221 A 
ATOM     15  N   UNL     1       8.041  -3.642   0.000  0.00  0.00    -0.201 NA
ATOM     16  C   UNL     1       7.489  -3.029   0.000  0.00  0.00    +0.198 A 
ENDBRANCH  10  12
ENDBRANCH   2  10
TORSDOF 4
