REMARK  Name = 
REMARK  4 active torsions:
REMARK  status: ('A' for Active; 'I' for Inactive)
REMARK    1  A    between atoms: C_6  and  C_8
REMARK    2  A    between atoms: N_10  and  C_11
REMARK    3  A    between atoms: C_11  and  C_12
REMARK    4  A    between atoms: C_12  and  C_13
REMARK                            x       y       z     vdW  Elec       q    Type
REMARK                         _______ _______ _______ _____ _____    ______ ____
ROOT
ATOM      1  C   UNL     1       1.429   1.650   0.000  0.00  0.00    +0.241 C 
ATOM      2  N   UNL     1       2.143   2.062   0.000  0.00  0.00    -0.205 NA
ATOM      3  O   UNL     1       1.429   0.825   0.000  0.00  0.00    -0.273 OA
ENDROOT
BRANCH   1   7
ATOM      4  C   UNL     1      -1.429   1.650   0.000  0.00  0.00    +0.000 C 
ATOM      5  C   UNL     1      -0.715   2.062   0.000  0.00  0.00    +0.000 C 
ATOM      6  C   UNL     1       0.000   1.650   0.000  0.00  0.00    +0.009 C 
ATOM      7  C   UNL     1       0.715   2.062   0.000  0.00  0.00    +0.078 C 
ATOM      8  C   UNL     1       0.715   2.888   0.000  0.00  0.00    +0.009 C 
ATOM      9  C   UNL     1       0.000   3.300   0.000  0.00  0.00    +0.000 C 
ATOM     10  C   UNL     1      -0.715   2.888   0.000  0.00  0.00    +0.000 C 
ENDBRANCH   1   7
BRANCH   2  11
ATOM     11  C   UNL     1       2.858   1.650   0.000  0.00  0.00    +0.123 C 
BRANCH  11  12
ATOM     12  C   UNL     1       3.572   2.062   0.000  0.00  0.00    +0.091 C 
BRANCH  12  13
ATOM     13  C   UNL     1       4.287   1.650   0.000  0.00  0.00    +0.164 A 
ATOM     14  N   UNL     1       4.373   0.830   0.000  0.00  0.00    -0.206 NA
ATOM     15  C   UNL     1       5.180   0.658   0.000  0.00  0.00    +0.223 A 
ATOM     16  N   UNL     1       5.593   1.373   0.000  0.00  0.00    -0.124 NA
ATOM     17  N   UNL     1       5.040   1.986   0.000  0.00  0.00    -0.131 NA
ENDBRANCH  12  13
ENDBRANCH  11  12
ENDBRANCH   2  11
TORSDOF 4
