REMARK  Name = 
REMARK  2 active torsions:
REMARK  status: ('A' for Active; 'I' for Inactive)
REMARK    1  A    between atoms: C_6  and  N_7
REMARK    2  A    between atoms: N_10  and  C_11
REMARK                            x       y       z     vdW  Elec       q    Type
REMARK                         _______ _______ _______ _____ _____    ______ ____
ROOT
ATOM      1  N   UNL     1       1.429  -4.125   0.000  0.00  0.00    -0.160 NA
ATOM      2  C   UNL     1       0.715  -3.712   0.000  0.00  0.00    +0.343 C 
ATOM      3  N   UNL     1       0.000  -4.125   0.000  0.00  0.00    -0.189 NA
ATOM      4  O   UNL     1       0.715  -2.888   0.000  0.00  0.00    -0.249 OA
ENDROOT
BRANCH   1   9
ATOM      5  C   UNL     1       2.858  -1.650   0.000  0.00  0.00    +0.053 C 
ATOM      6  C   UNL     1       2.858  -2.475   0.000  0.00  0.00    +0.071 A 
ATOM      7  C   UNL     1       2.143  -2.888   0.000  0.00  0.00    +0.087 A 
ATOM      8 CL   UNL     1       1.429  -2.475   0.000  0.00  0.00    -0.080 Cl
ATOM      9  C   UNL     1       2.143  -3.712   0.000  0.00  0.00    +0.088 A 
ATOM     10  C   UNL     1       2.858  -4.125   0.000  0.00  0.00    +0.038 A 
ATOM     11  C   UNL     1       3.572  -3.712   0.000  0.00  0.00    +0.100 A 
ATOM     12  N   UNL     1       3.572  -2.888   0.000  0.00  0.00    -0.247 NA
ENDBRANCH   1   9
BRANCH   3  13
ATOM     13  C   UNL     1      -0.715  -3.712   0.000  0.00  0.00    +0.097 C 
ATOM     14  C   UNL     1      -0.715  -2.888   0.000  0.00  0.00    +0.024 C 
ATOM     15  C   UNL     1      -1.429  -2.475   0.000  0.00  0.00    +0.035 C 
ATOM     16  C   UNL     1      -2.143  -2.888   0.000  0.00  0.00    +0.152 C 
ATOM     17  O   UNL     1      -2.858  -2.475   0.000  0.00  0.00    -0.223 OA
ATOM     18  C   UNL     1      -2.143  -3.712   0.000  0.00  0.00    +0.035 C 
ATOM     19  C   UNL     1      -1.429  -4.125   0.000  0.00  0.00    +0.024 C 
ENDBRANCH   3  13
TORSDOF 2
