REMARK  Name = 
REMARK  6 active torsions:
REMARK  status: ('A' for Active; 'I' for Inactive)
REMARK    1  A    between atoms: C_2  and  C_3
REMARK    2  A    between atoms: C_3  and  C_4
REMARK    3  A    between atoms: C_4  and  C_5
REMARK    4  A    between atoms: N_10  and  C_11
REMARK    5  A    between atoms: C_11  and  C_12
REMARK    6  A    between atoms: C_12  and  C_13
REMARK                            x       y       z     vdW  Elec       q    Type
REMARK                         _______ _______ _______ _____ _____    ______ ____
ROOT
ATOM      1  O   UNL     1       2.858  -4.950   0.000  0.00  0.00    -0.273 OA
ATOM      2  C   UNL     1       2.858  -4.125   0.000  0.00  0.00    +0.241 C 
ATOM      3  N   UNL     1       3.572  -3.712   0.000  0.00  0.00    -0.205 NA
ENDROOT
BRANCH   3   4
ATOM      4  C   UNL     1       4.287  -4.125   0.000  0.00  0.00    +0.121 C 
BRANCH   4   5
ATOM      5  C   UNL     1       5.001  -3.712   0.000  0.00  0.00    +0.069 C 
BRANCH   5   6
ATOM      6  C   UNL     1       5.716  -4.125   0.000  0.00  0.00    +0.061 A 
ATOM      7  N   UNL     1       5.716  -4.950   0.000  0.00  0.00    -0.248 NA
ATOM      8  C   UNL     1       6.430  -5.362   0.000  0.00  0.00    +0.098 A 
ATOM      9  C   UNL     1       7.145  -4.950   0.000  0.00  0.00    +0.021 A 
ATOM     10  C   UNL     1       7.145  -4.125   0.000  0.00  0.00    +0.003 A 
ATOM     11  C   UNL     1       6.430  -3.712   0.000  0.00  0.00    +0.015 A 
ENDBRANCH   5   6
ENDBRANCH   4   5
ENDBRANCH   3   4
BRANCH   2  12
ATOM     12  C   UNL     1       2.143  -3.712   0.000  0.00  0.00    +0.089 C 
BRANCH  12  13
ATOM     13  C   UNL     1       1.429  -4.125   0.000  0.00  0.00    +0.039 C 
BRANCH  13  14
ATOM     14  C   UNL     1       0.715  -3.712   0.000  0.00  0.00    +0.116 C 
ATOM     15  O   UNL     1       0.628  -2.892   0.000  0.00  0.00    -0.356 OA
ATOM     16  C   UNL     1      -0.179  -2.720   0.000  0.00  0.00    +0.142 C 
ATOM     17  C   UNL     1      -0.591  -3.435   0.000  0.00  0.00    +0.035 C 
ATOM     18  C   UNL     1      -0.039  -4.048   0.000  0.00  0.00    +0.032 C 
ENDBRANCH  13  14
ENDBRANCH  12  13
ENDBRANCH   2  12
TORSDOF 6
