REMARK  Name = 
REMARK  4 active torsions:
REMARK  status: ('A' for Active; 'I' for Inactive)
REMARK    1  A    between atoms: C_2  and  C_4
REMARK    2  A    between atoms: C_4  and  C_5
REMARK    3  A    between atoms: C_5  and  N_6
REMARK    4  A    between atoms: C_5  and  C_15
REMARK                            x       y       z     vdW  Elec       q    Type
REMARK                         _______ _______ _______ _____ _____    ______ ____
ROOT
ATOM      1  N   UNL     1       4.592  -2.952   0.000  0.00  0.00    -0.188 NA
ATOM      2  C   UNL     1       5.307  -3.364   0.000  0.00  0.00    +0.345 C 
ATOM      3  N   UNL     1       6.021  -2.952   0.000  0.00  0.00    -0.134 NA
ATOM      4  C   UNL     1       6.736  -3.364   0.000  0.00  0.00    +0.209 A 
ATOM      5  S   UNL     1       6.822  -4.185   0.000  0.00  0.00    -0.027 S 
ATOM      6  C   UNL     1       7.629  -4.356   0.000  0.00  0.00    +0.161 A 
ATOM      7  N   UNL     1       8.041  -3.642   0.000  0.00  0.00    -0.137 NA
ATOM      8  N   UNL     1       7.489  -3.029   0.000  0.00  0.00    -0.123 NA
ATOM      9  O   UNL     1       5.307  -4.189   0.000  0.00  0.00    -0.249 OA
ENDROOT
BRANCH   1  10
ATOM     10  C   UNL     1       3.878  -3.364   0.000  0.00  0.00    +0.106 C 
BRANCH  10  11
ATOM     11  C   UNL     1       3.878  -4.189   0.000  0.00  0.00    +0.021 C 
ATOM     12  C   UNL     1       3.465  -4.904   0.000  0.00  0.00    +0.002 C 
ATOM     13  C   UNL     1       4.290  -4.904   0.000  0.00  0.00    +0.002 C 
ENDBRANCH  10  11
BRANCH  10  14
ATOM     14  C   UNL     1       3.163  -2.952   0.000  0.00  0.00    +0.110 C 
BRANCH  14  16
ATOM     15  N   UNL     1       1.734  -2.952   0.000  0.00  0.00    -0.088 NA
ATOM     16  C   UNL     1       2.449  -3.364   0.000  0.00  0.00    +0.262 C 
ATOM     17  O   UNL     1       2.449  -4.189   0.000  0.00  0.00    -0.272 OA
ENDBRANCH  14  16
ENDBRANCH  10  14
ENDBRANCH   1  10
TORSDOF 4
