REMARK  Name = 
REMARK  5 active torsions:
REMARK  status: ('A' for Active; 'I' for Inactive)
REMARK    1  A    between atoms: C_2  and  O_3
REMARK    2  A    between atoms: O_3  and  C_4
REMARK    3  A    between atoms: C_8  and  N_9
REMARK    4  A    between atoms: N_9  and  C_10
REMARK    5  A    between atoms: C_10  and  C_12
REMARK                            x       y       z     vdW  Elec       q    Type
REMARK                         _______ _______ _______ _____ _____    ______ ____
ROOT
ATOM      1  C   UNL     1       2.037   6.828   0.000  0.00  0.00    +0.246 A 
ATOM      2  N   UNL     1       2.037   6.003   0.000  0.00  0.00    -0.192 NA
ATOM      3  C   UNL     1       2.751   5.590   0.000  0.00  0.00    +0.170 A 
ATOM      4  C   UNL     1       3.466   6.003   0.000  0.00  0.00    +0.135 A 
ATOM      5  N   UNL     1       3.466   6.828   0.000  0.00  0.00    -0.234 NA
ATOM      6  C   UNL     1       2.751   7.240   0.000  0.00  0.00    +0.157 A 
ENDROOT
BRANCH   1   7
ATOM      7  O   UNL     1       1.322   7.240   0.000  0.00  0.00    -0.459 OA
BRANCH   7   9
ATOM      8  C   UNL     1       0.608   8.478   0.000  0.00  0.00    +0.051 C 
ATOM      9  C   UNL     1       1.322   8.065   0.000  0.00  0.00    +0.207 C 
ENDBRANCH   7   9
ENDBRANCH   1   7
BRANCH   3  10
ATOM     10  N   UNL     1       2.751   4.765   0.000  0.00  0.00    -0.218 NA
BRANCH  10  11
ATOM     11  C   UNL     1       3.466   4.353   0.000  0.00  0.00    +0.121 C 
ATOM     12  C   UNL     1       4.180   4.765   0.000  0.00  0.00    +0.026 C 
BRANCH  11  13
ATOM     13  C   UNL     1       3.466   3.528   0.000  0.00  0.00    +0.135 C 
ATOM     14  O   UNL     1       2.798   3.043   0.000  0.00  0.00    -0.354 OA
ATOM     15  C   UNL     1       3.053   2.258   0.000  0.00  0.00    +0.142 C 
ATOM     16  C   UNL     1       3.878   2.258   0.000  0.00  0.00    +0.035 C 
ATOM     17  C   UNL     1       4.133   3.043   0.000  0.00  0.00    +0.034 C 
ENDBRANCH  11  13
ENDBRANCH  10  11
ENDBRANCH   3  10
TORSDOF 5
