REMARK  Name = 
REMARK  4 active torsions:
REMARK  status: ('A' for Active; 'I' for Inactive)
REMARK    1  A    between atoms: C_5  and  N_6
REMARK    2  A    between atoms: N_9  and  C_10
REMARK    3  A    between atoms: C_10  and  C_11
REMARK    4  A    between atoms: C_11  and  C_12
REMARK                            x       y       z     vdW  Elec       q    Type
REMARK                         _______ _______ _______ _____ _____    ______ ____
ROOT
ATOM      1  N   UNL     1       0.715   2.062   0.000  0.00  0.00    -0.189 NA
ATOM      2  C   UNL     1       1.429   1.650   0.000  0.00  0.00    +0.339 C 
ATOM      3  N   UNL     1       2.143   2.062   0.000  0.00  0.00    -0.187 NA
ATOM      4  O   UNL     1       1.429   0.825   0.000  0.00  0.00    -0.249 OA
ENDROOT
BRANCH   1  10
ATOM      5  C   UNL     1      -2.143   0.412   0.000  0.00  0.00    +0.000 C 
ATOM      6  C   UNL     1      -1.429   0.825   0.000  0.00  0.00    +0.000 C 
ATOM      7  C   UNL     1      -0.715   0.412   0.000  0.00  0.00    +0.002 C 
ATOM      8  C   UNL     1       0.000   0.825   0.000  0.00  0.00    +0.020 C 
ATOM      9  C   UNL     1       0.715   0.412   0.000  0.00  0.00    +0.002 C 
ATOM     10  C   UNL     1       0.000   1.650   0.000  0.00  0.00    +0.097 C 
ATOM     11  C   UNL     1      -0.715   2.062   0.000  0.00  0.00    +0.022 C 
ATOM     12  C   UNL     1      -1.429   1.650   0.000  0.00  0.00    +0.002 C 
ENDBRANCH   1  10
BRANCH   3  13
ATOM     13  C   UNL     1       2.858   1.650   0.000  0.00  0.00    +0.123 C 
BRANCH  13  14
ATOM     14  C   UNL     1       3.572   2.062   0.000  0.00  0.00    +0.069 C 
BRANCH  14  15
ATOM     15  C   UNL     1       4.287   1.650   0.000  0.00  0.00    +0.059 A 
ATOM     16  N   UNL     1       4.373   0.830   0.000  0.00  0.00    -0.253 N 
ATOM     17  C   UNL     1       3.760   0.278   0.000  0.00  0.00    +0.153 C 
ATOM     18  N   UNL     1       5.180   0.658   0.000  0.00  0.00    -0.168 NA
ATOM     19  C   UNL     1       5.593   1.373   0.000  0.00  0.00    +0.121 A 
ATOM     20  C   UNL     1       5.040   1.986   0.000  0.00  0.00    +0.037 A 
ENDBRANCH  14  15
ENDBRANCH  13  14
ENDBRANCH   3  13
TORSDOF 4
