REMARK  Name = 
REMARK  2 active torsions:
REMARK  status: ('A' for Active; 'I' for Inactive)
REMARK    1  A    between atoms: C_6  and  C_7
REMARK    2  A    between atoms: C_9  and  N_11
REMARK                            x       y       z     vdW  Elec       q    Type
REMARK                         _______ _______ _______ _____ _____    ______ ____
ROOT
ATOM      1  N   UNL     1       0.715  -0.412   0.000  0.00  0.00    -0.086 NA
ATOM      2  C   UNL     1       0.715  -1.238   0.000  0.00  0.00    +0.260 A 
ATOM      3  N   UNL     1       0.000  -1.650   0.000  0.00  0.00    -0.195 NA
ATOM      4  C   UNL     1       0.000  -2.475   0.000  0.00  0.00    +0.149 A 
ATOM      5  C   UNL     1       0.715  -2.888   0.000  0.00  0.00    +0.158 A 
ATOM      6  C   UNL     1       1.429  -2.475   0.000  0.00  0.00    +0.294 A 
ATOM      7  O   UNL     1       2.143  -2.888   0.000  0.00  0.00    -0.264 OA
ATOM      8  N   UNL     1       1.429  -1.650   0.000  0.00  0.00    -0.172 NA
ENDROOT
BRANCH   4   9
ATOM      9  N   UNL     1      -0.715  -2.888   0.000  0.00  0.00    -0.287 N 
ATOM     10  C   UNL     1      -1.429  -2.475   0.000  0.00  0.00    +0.124 C 
ATOM     11  C   UNL     1      -2.143  -2.888   0.000  0.00  0.00    +0.164 C 
ATOM     12  O   UNL     1      -2.143  -3.712   0.000  0.00  0.00    -0.350 OA
ATOM     13  C   UNL     1      -1.429  -4.125   0.000  0.00  0.00    +0.164 C 
ATOM     14  C   UNL     1      -0.715  -3.712   0.000  0.00  0.00    +0.124 C 
ENDBRANCH   4   9
BRANCH   5  15
ATOM     15  C   UNL     1       0.715  -3.712   0.000  0.00  0.00    +0.108 C 
ATOM     16  N   UNL     1       0.715  -4.537   0.000  0.00  0.00    -0.191 NA
ENDBRANCH   5  15
TORSDOF 2
