REMARK  Name = 
REMARK  5 active torsions:
REMARK  status: ('A' for Active; 'I' for Inactive)
REMARK    1  A    between atoms: N_1  and  C1*_2
REMARK    2  A    between atoms: C_9  and  N_12
REMARK    3  A    between atoms: C4*_11  and  C5*_22
REMARK    4  A    between atoms: N_12  and  C_16
REMARK    5  A    between atoms: C_15  and  C_16
REMARK                            x       y       z     vdW  Elec       q    Type
REMARK                         _______ _______ _______ _____ _____    ______ ____
ROOT
ATOM      1  N   UNL     1       1.780  -0.254   0.000  0.00  0.00    -0.269 N 
ATOM      2  C   UNL     1       1.292   0.413   0.000  0.00  0.00    +0.182 A 
ATOM      3  N   UNL     1       1.780   1.084   0.000  0.00  0.00    -0.219 NA
ATOM      4  C   UNL     1       2.563   0.825   0.000  0.00  0.00    +0.150 A 
ATOM      5  C   UNL     1       3.276   1.238   0.000  0.00  0.00    +0.170 A 
ATOM      6  N   UNL     1       3.993   0.825   0.000  0.00  0.00    -0.206 NA
ATOM      7  C   UNL     1       3.993   0.000   0.000  0.00  0.00    +0.202 A 
ATOM      8  N   UNL     1       3.276  -0.413   0.000  0.00  0.00    -0.205 NA
ATOM      9  C   UNL     1       2.563   0.000   0.000  0.00  0.00    +0.169 A 
ENDROOT
BRANCH   1  10
ATOM     10  C1* UNL     1       1.521  -1.038   0.000  0.00  0.00    +0.241 C 
ATOM     11  O4* UNL     1       2.009  -1.705   0.000  0.00  0.00    -0.331 OA
ATOM     12  C4* UNL     1       1.521  -2.371   0.000  0.00  0.00    +0.183 C 
ATOM     13  C3* UNL     1       0.738  -2.117   0.000  0.00  0.00    +0.216 C 
ATOM     14  O3* UNL     1       0.071  -2.605   0.000  0.00  0.00    -0.218 OA
ATOM     15  C2* UNL     1       0.738  -1.292   0.000  0.00  0.00    +0.234 C 
ATOM     16  O2* UNL     1       0.071  -0.808   0.000  0.00  0.00    -0.216 OA
BRANCH  12  17
ATOM     17  C5* UNL     1       1.780  -3.159   0.000  0.00  0.00    +0.214 C 
ATOM     18  O5* UNL     1       1.225  -3.772   0.000  0.00  0.00    -0.218 OA
ENDBRANCH  12  17
ENDBRANCH   1  10
BRANCH   5  19
ATOM     19  N   UNL     1       3.276   2.063   0.000  0.00  0.00    -0.216 NA
BRANCH  19  20
ATOM     20  C   UNL     1       2.563   2.476   0.000  0.00  0.00    +0.117 C 
ATOM     21  C   UNL     1       1.851   2.063   0.000  0.00  0.00    +0.028 C 
BRANCH  20  22
ATOM     22  C   UNL     1       2.563   3.301   0.000  0.00  0.00    +0.008 A 
ATOM     23  C   UNL     1       1.851   3.713   0.000  0.00  0.00    -0.002 A 
ATOM     24  C   UNL     1       1.851   4.535   0.000  0.00  0.00    -0.000 A 
ATOM     25  C   UNL     1       2.563   4.951   0.000  0.00  0.00    +0.001 A 
ATOM     26  C   UNL     1       3.276   4.535   0.000  0.00  0.00    +0.011 A 
ATOM     27  C   UNL     1       3.276   3.713   0.000  0.00  0.00    +0.055 A 
ATOM     28 CL   UNL     1       3.993   3.301   0.000  0.00  0.00    -0.083 Cl
ENDBRANCH  20  22
ENDBRANCH  19  20
ENDBRANCH   5  19
TORSDOF 5
