REMARK  Name = 
REMARK  3 active torsions:
REMARK  status: ('A' for Active; 'I' for Inactive)
REMARK    1  A    between atoms: C_2  and  C_3
REMARK    2  A    between atoms: C_3  and  N_4
REMARK    3  A    between atoms: N_9  and  C_10
REMARK                            x       y       z     vdW  Elec       q    Type
REMARK                         _______ _______ _______ _____ _____    ______ ____
ROOT
ATOM      1  O   UNL     1       3.431  -2.196   0.000  0.00  0.00    -0.271 OA
ATOM      2  C   UNL     1       2.716  -1.783   0.000  0.00  0.00    +0.267 C 
ATOM      3  N   UNL     1       2.716  -0.958   0.000  0.00  0.00    -0.196 NA
ENDROOT
BRANCH   3   4
ATOM      4  C   UNL     1       3.431  -0.546   0.000  0.00  0.00    +0.173 C 
ATOM      5  C   UNL     1       4.112  -1.011   0.000  0.00  0.00    +0.261 C 
ATOM      6  O   UNL     1       3.990  -1.826   0.000  0.00  0.00    -0.271 OA
ATOM      7  N   UNL     1       4.901  -0.767   0.000  0.00  0.00    -0.204 NA
ATOM      8  C   UNL     1       5.202   0.001   0.000  0.00  0.00    +0.115 C 
ATOM      9  C   UNL     1       4.790   0.715   0.000  0.00  0.00    +0.024 C 
ATOM     10  C   UNL     1       3.974   0.838   0.000  0.00  0.00    +0.004 C 
ATOM     11  C   UNL     1       3.369   0.277   0.000  0.00  0.00    +0.031 C 
ENDBRANCH   3   4
BRANCH   2  12
ATOM     12  C   UNL     1       2.002  -2.196   0.000  0.00  0.00    +0.214 C 
BRANCH  12  13
ATOM     13  N   UNL     1       2.002  -3.021   0.000  0.00  0.00    -0.240 N 
ATOM     14  N   UNL     1       1.334  -3.506   0.000  0.00  0.00    -0.167 NA
ATOM     15  C   UNL     1       1.589  -4.290   0.000  0.00  0.00    +0.122 A 
ATOM     16  C   UNL     1       2.414  -4.290   0.000  0.00  0.00    +0.043 A 
ATOM     17  C   UNL     1       2.669  -3.506   0.000  0.00  0.00    +0.097 A 
ENDBRANCH  12  13
ENDBRANCH   2  12
TORSDOF 3
