REMARK  Name = 
REMARK  3 active torsions:
REMARK  status: ('A' for Active; 'I' for Inactive)
REMARK    1  A    between atoms: C_5  and  N_8
REMARK    2  A    between atoms: C_11  and  N_14
REMARK    3  A    between atoms: N_17  and  C_18
REMARK                            x       y       z     vdW  Elec       q    Type
REMARK                         _______ _______ _______ _____ _____    ______ ____
ROOT
ATOM      1  N   UNL     1       5.001  -6.188   0.000  0.00  0.00    -0.274 NA
ATOM      2  C   UNL     1       4.287  -6.600   0.000  0.00  0.00    +0.074 C 
ATOM      3  C   UNL     1       4.287  -7.425   0.000  0.00  0.00    +0.039 C 
ATOM      4  C   UNL     1       5.001  -7.838   0.000  0.00  0.00    +0.100 C 
ATOM      5  C   UNL     1       5.716  -7.425   0.000  0.00  0.00    +0.039 C 
ATOM      6  C   UNL     1       5.716  -6.600   0.000  0.00  0.00    +0.074 C 
ENDROOT
BRANCH   1  11
ATOM      7  C   UNL     1       5.001  -2.888   0.000  0.00  0.00    +0.090 C 
ATOM      8  N   UNL     1       5.001  -3.712   0.000  0.00  0.00    -0.271 NA
ATOM      9  C   UNL     1       4.287  -4.125   0.000  0.00  0.00    +0.074 C 
ATOM     10  C   UNL     1       4.287  -4.950   0.000  0.00  0.00    +0.033 C 
ATOM     11  C   UNL     1       5.001  -5.362   0.000  0.00  0.00    +0.060 C 
ATOM     12  C   UNL     1       5.716  -4.950   0.000  0.00  0.00    +0.033 C 
ATOM     13  C   UNL     1       5.716  -4.125   0.000  0.00  0.00    +0.074 C 
ENDBRANCH   1  11
BRANCH   4  14
ATOM     14  N   UNL     1       5.001  -8.662   0.000  0.00  0.00    -0.189 NA
ATOM     15  C   UNL     1       4.287  -9.075   0.000  0.00  0.00    +0.344 C 
ATOM     16  N   UNL     1       4.287  -9.900   0.000  0.00  0.00    -0.159 NA
ATOM     17  O   UNL     1       3.572  -8.662   0.000  0.00  0.00    -0.249 OA
BRANCH  16  18
ATOM     18  C   UNL     1       3.572 -10.312   0.000  0.00  0.00    +0.105 A 
ATOM     19  C   UNL     1       2.858  -9.900   0.000  0.00  0.00    +0.174 A 
ATOM     20  F   UNL     1       2.858  -9.075   0.000  0.00  0.00    -0.201 F 
ATOM     21  C   UNL     1       2.143 -10.312   0.000  0.00  0.00    +0.130 A 
ATOM     22  N   UNL     1       2.143 -11.137   0.000  0.00  0.00    -0.240 NA
ATOM     23  C   UNL     1       2.858 -11.550   0.000  0.00  0.00    +0.100 A 
ATOM     24  C   UNL     1       3.572 -11.137   0.000  0.00  0.00    +0.040 A 
ENDBRANCH  16  18
ENDBRANCH   4  14
TORSDOF 3
