REMARK  Name = 
REMARK  7 active torsions:
REMARK  status: ('A' for Active; 'I' for Inactive)
REMARK    1  A    between atoms: N_2  and  C_13
REMARK    2  A    between atoms: C_3  and  N_6
REMARK    3  A    between atoms: N_6  and  C_8
REMARK    4  A    between atoms: N_6  and  C_18
REMARK    5  A    between atoms: C_13  and  C_15
REMARK    6  A    between atoms: C_16  and  C_19
REMARK    7  A    between atoms: C_18  and  C_19
REMARK                            x       y       z     vdW  Elec       q    Type
REMARK                         _______ _______ _______ _____ _____    ______ ____
ROOT
ATOM      1  C   UNL     1       2.562   0.825   0.000  0.00  0.00    +0.149 A 
ATOM      2  N   UNL     1       1.779   1.083   0.000  0.00  0.00    -0.219 NA
ATOM      3  C   UNL     1       1.292   0.412   0.000  0.00  0.00    +0.180 A 
ATOM      4  N   UNL     1       1.779  -0.254   0.000  0.00  0.00    -0.292 N 
ATOM      5  C   UNL     1       2.562   0.000   0.000  0.00  0.00    +0.167 A 
ATOM      6  N   UNL     1       3.275  -0.412   0.000  0.00  0.00    -0.205 NA
ATOM      7  C   UNL     1       3.992   0.000   0.000  0.00  0.00    +0.201 A 
ATOM      8  N   UNL     1       3.992   0.825   0.000  0.00  0.00    -0.207 NA
ATOM      9  C   UNL     1       3.275   1.238   0.000  0.00  0.00    +0.154 A 
ENDROOT
BRANCH   9  10
ATOM     10  N   UNL     1       3.275   2.062   0.000  0.00  0.00    -0.292 N 
BRANCH  10  11
ATOM     11  C   UNL     1       3.992   2.475   0.000  0.00  0.00    +0.074 C 
ATOM     12  C   UNL     1       4.404   3.192   0.000  0.00  0.00    +0.021 C 
ATOM     13  C   UNL     1       4.817   2.475   0.000  0.00  0.00    +0.021 C 
ENDBRANCH  10  11
BRANCH  10  14
ATOM     14  C   UNL     1       2.562   2.475   0.000  0.00  0.00    +0.107 C 
BRANCH  14  15
ATOM     15  C   UNL     1       2.562   3.300   0.000  0.00  0.00    +0.111 C 
ATOM     16  C   UNL     1       3.275   3.712   0.000  0.00  0.00    +0.018 C 
BRANCH  15  17
ATOM     17  C   UNL     1       1.850   3.712   0.000  0.00  0.00    +0.074 C 
ATOM     18  N   UNL     1       1.133   4.125   0.000  0.00  0.00    -0.196 NA
ENDBRANCH  15  17
ENDBRANCH  14  15
ENDBRANCH  10  14
ENDBRANCH   9  10
BRANCH   4  19
ATOM     19  C   UNL     1       1.521  -1.038   0.000  0.00  0.00    +0.142 C 
BRANCH  19  20
ATOM     20  C   UNL     1       0.717  -1.208   0.000  0.00  0.00    +0.177 C 
ATOM     21  C   UNL     1      -0.108  -1.208   0.000  0.00  0.00    +0.174 C 
ATOM     22  O   UNL     1      -0.362  -1.992   0.000  0.00  0.00    -0.351 OA
ATOM     23  C   UNL     1       0.304  -2.479   0.000  0.00  0.00    +0.145 C 
ATOM     24  O   UNL     1       0.629  -0.388   0.000  0.00  0.00    -0.221 OA
ATOM     25  C   UNL     1       0.971  -1.992   0.000  0.00  0.00    +0.067 C 
ENDBRANCH  19  20
ENDBRANCH   4  19
TORSDOF 7
