REMARK  Name = 
REMARK  5 active torsions:
REMARK  status: ('A' for Active; 'I' for Inactive)
REMARK    1  A    between atoms: N_2  and  C_4
REMARK    2  A    between atoms: C_4  and  C_5
REMARK    3  A    between atoms: N_12  and  C_13
REMARK    4  A    between atoms: C_13  and  C_14
REMARK    5  A    between atoms: C_14  and  C_15
REMARK                            x       y       z     vdW  Elec       q    Type
REMARK                         _______ _______ _______ _____ _____    ______ ____
ROOT
ATOM      1  C   UNL     1      -1.306  -2.197   0.000  0.00  0.00    +0.038 C 
ATOM      2  C   UNL     1      -0.754  -2.811   0.000  0.00  0.00    +0.096 C 
ATOM      3  N   UNL     1       0.000  -2.475   0.000  0.00  0.00    -0.263 N 
ATOM      4  C   UNL     1       0.715  -2.888   0.000  0.00  0.00    +0.323 C 
ATOM      5  N   UNL     1       1.429  -2.475   0.000  0.00  0.00    -0.188 NA
ATOM      6  O   UNL     1       0.715  -3.712   0.000  0.00  0.00    -0.251 OA
ATOM      7  C   UNL     1      -0.086  -1.655   0.000  0.00  0.00    +0.095 C 
ATOM      8  C   UNL     1      -0.893  -1.483   0.000  0.00  0.00    +0.025 C 
ENDROOT
BRANCH   1   9
ATOM      9  C   UNL     1      -2.126  -2.284   0.000  0.00  0.00    +0.074 C 
BRANCH   9  11
ATOM     10  C   UNL     1      -3.432  -1.702   0.000  0.00  0.00    +0.090 C 
ATOM     11  N   UNL     1      -2.611  -1.616   0.000  0.00  0.00    -0.270 NA
ATOM     12  C   UNL     1      -2.276  -0.863   0.000  0.00  0.00    +0.090 C 
ENDBRANCH   9  11
ENDBRANCH   1   9
BRANCH   5  13
ATOM     13  C   UNL     1       2.143  -2.888   0.000  0.00  0.00    +0.121 C 
BRANCH  13  14
ATOM     14  C   UNL     1       2.858  -2.475   0.000  0.00  0.00    +0.050 C 
BRANCH  14  15
ATOM     15  C   UNL     1       3.572  -2.888   0.000  0.00  0.00    -0.021 A 
ATOM     16  C   UNL     1       3.572  -3.712   0.000  0.00  0.00    -0.007 A 
ATOM     17  C   UNL     1       2.858  -4.125   0.000  0.00  0.00    +0.032 C 
ATOM     18  C   UNL     1       4.287  -4.125   0.000  0.00  0.00    +0.094 A 
ATOM     19  N   UNL     1       5.001  -3.712   0.000  0.00  0.00    -0.243 NA
ATOM     20  C   UNL     1       5.001  -2.888   0.000  0.00  0.00    +0.099 A 
ATOM     21  C   UNL     1       4.287  -2.475   0.000  0.00  0.00    +0.016 A 
ENDBRANCH  14  15
ENDBRANCH  13  14
ENDBRANCH   5  13
TORSDOF 5
