REMARK  Name = 
REMARK  4 active torsions:
REMARK  status: ('A' for Active; 'I' for Inactive)
REMARK    1  A    between atoms: C_2  and  C_3
REMARK    2  A    between atoms: C_2  and  C_13
REMARK    3  A    between atoms: C_3  and  N_4
REMARK    4  A    between atoms: C_13  and  N_14
REMARK                            x       y       z     vdW  Elec       q    Type
REMARK                         _______ _______ _______ _____ _____    ______ ____
ROOT
ATOM      1  C   UNL     1       4.592  -2.952   0.000  0.00  0.00    +0.118 C 
ENDROOT
BRANCH   1   2
ATOM      2  N   UNL     1       3.878  -3.364   0.000  0.00  0.00    -0.187 NA
ATOM      3  C   UNL     1       3.163  -2.952   0.000  0.00  0.00    +0.345 C 
ATOM      4  N   UNL     1       2.449  -3.364   0.000  0.00  0.00    -0.134 NA
ATOM      5  C   UNL     1       1.734  -2.952   0.000  0.00  0.00    +0.209 A 
ATOM      6  S   UNL     1       1.648  -2.131   0.000  0.00  0.00    -0.027 S 
ATOM      7  C   UNL     1       0.841  -1.960   0.000  0.00  0.00    +0.161 A 
ATOM      8  N   UNL     1       0.429  -2.674   0.000  0.00  0.00    -0.137 NA
ATOM      9  N   UNL     1       0.981  -3.287   0.000  0.00  0.00    -0.123 NA
ATOM     10  O   UNL     1       3.163  -2.127   0.000  0.00  0.00    -0.249 OA
ENDBRANCH   1   2
BRANCH   1  12
ATOM     11  C   UNL     1       5.307  -4.189   0.000  0.00  0.00    +0.003 C 
ATOM     12  C   UNL     1       5.307  -3.364   0.000  0.00  0.00    +0.038 C 
BRANCH  12  13
ATOM     13  C   UNL     1       6.021  -2.952   0.000  0.00  0.00    +0.074 C 
BRANCH  13  14
ATOM     14  N   UNL     1       6.736  -3.364   0.000  0.00  0.00    -0.273 NA
ATOM     15  C   UNL     1       6.822  -4.185   0.000  0.00  0.00    +0.072 C 
ATOM     16  C   UNL     1       7.629  -4.356   0.000  0.00  0.00    +0.019 C 
ATOM     17  C   UNL     1       8.041  -3.642   0.000  0.00  0.00    +0.019 C 
ATOM     18  C   UNL     1       7.489  -3.029   0.000  0.00  0.00    +0.072 C 
ENDBRANCH  13  14
ENDBRANCH  12  13
ENDBRANCH   1  12
TORSDOF 4
