REMARK  Name = 
REMARK  7 active torsions:
REMARK  status: ('A' for Active; 'I' for Inactive)
REMARK    1  A    between atoms: N_2  and  C_3
REMARK    2  A    between atoms: C_3  and  C_4
REMARK    3  A    between atoms: C_4  and  C_5
REMARK    4  A    between atoms: C_7  and  C_9
REMARK    5  A    between atoms: C_9  and  N_10
REMARK    6  A    between atoms: C_14  and  C_15
REMARK    7  A    between atoms: C_15  and  N_16
REMARK                            x       y       z     vdW  Elec       q    Type
REMARK                         _______ _______ _______ _____ _____    ______ ____
ROOT
ATOM      1  N   UNL     1       7.859  -6.188   0.000  0.00  0.00    -0.261 NA
ATOM      2  C   UNL     1       8.574  -6.600   0.000  0.00  0.00    +0.104 C 
ATOM      3  C   UNL     1       9.288  -6.188   0.000  0.00  0.00    +0.153 C 
ATOM      4  O   UNL     1       9.288  -5.362   0.000  0.00  0.00    -0.352 OA
ATOM      5  C   UNL     1       8.574  -4.950   0.000  0.00  0.00    +0.159 C 
ATOM      6  C   UNL     1       7.859  -5.362   0.000  0.00  0.00    +0.105 C 
ENDROOT
BRANCH   3   7
ATOM      7  C   UNL     1      10.003  -6.600   0.000  0.00  0.00    +0.145 C 
BRANCH   7   8
ATOM      8  N   UNL     1      10.717  -6.188   0.000  0.00  0.00    -0.216 NA
ATOM      9  C   UNL     1      11.431  -6.600   0.000  0.00  0.00    +0.169 A 
ATOM     10  N   UNL     1      11.431  -7.425   0.000  0.00  0.00    -0.131 NA
ATOM     11  N   UNL     1      12.146  -7.838   0.000  0.00  0.00    -0.145 NA
ATOM     12  C   UNL     1      12.861  -7.425   0.000  0.00  0.00    +0.122 A 
ATOM     13  C   UNL     1      12.861  -6.600   0.000  0.00  0.00    +0.025 A 
ATOM     14  C   UNL     1      12.146  -6.188   0.000  0.00  0.00    +0.039 A 
ENDBRANCH   7   8
ENDBRANCH   3   7
BRANCH   1  15
ATOM     15  C   UNL     1       7.145  -6.600   0.000  0.00  0.00    +0.159 C 
BRANCH  15  18
ATOM     16  C   UNL     1       5.716  -7.425   0.000  0.00  0.00    +0.115 C 
ATOM     17  N   UNL     1       5.716  -6.600   0.000  0.00  0.00    -0.276 N 
ATOM     18  C   UNL     1       6.430  -6.188   0.000  0.00  0.00    +0.242 C 
ATOM     19  O   UNL     1       6.430  -5.362   0.000  0.00  0.00    -0.273 OA
BRANCH  17  20
ATOM     20  C   UNL     1       5.001  -6.188   0.000  0.00  0.00    +0.110 C 
BRANCH  20  21
ATOM     21  C   UNL     1       4.287  -6.600   0.000  0.00  0.00    +0.127 C 
BRANCH  21  22
ATOM     22  C   UNL     1       3.572  -6.188   0.000  0.00  0.00    +0.075 C 
ATOM     23  N   UNL     1       2.858  -5.775   0.000  0.00  0.00    -0.196 NA
ENDBRANCH  21  22
ENDBRANCH  20  21
ENDBRANCH  17  20
ENDBRANCH  15  18
ENDBRANCH   1  15
TORSDOF 7
