REMARK  Name = 
REMARK  5 active torsions:
REMARK  status: ('A' for Active; 'I' for Inactive)
REMARK    1  A    between atoms: C_4  and  C_7
REMARK    2  A    between atoms: C_7  and  C_9
REMARK    3  A    between atoms: C_9  and  N_10
REMARK    4  A    between atoms: C_11  and  C_13
REMARK    5  A    between atoms: C_13  and  C_14
REMARK                            x       y       z     vdW  Elec       q    Type
REMARK                         _______ _______ _______ _____ _____    ______ ____
ROOT
ATOM      1  C   UNL     1       3.878  -3.364   0.000  0.00  0.00    +0.153 C 
ENDROOT
BRANCH   1   2
ATOM      2  N   UNL     1       4.592  -2.952   0.000  0.00  0.00    -0.202 NA
ATOM      3  C   UNL     1       5.307  -3.364   0.000  0.00  0.00    +0.241 C 
ATOM      4  O   UNL     1       5.307  -4.189   0.000  0.00  0.00    -0.273 OA
BRANCH   3   5
ATOM      5  C   UNL     1       6.021  -2.952   0.000  0.00  0.00    +0.087 C 
BRANCH   5   6
ATOM      6  C   UNL     1       6.736  -3.364   0.000  0.00  0.00    +0.009 C 
ATOM      7  C   UNL     1       6.822  -4.185   0.000  0.00  0.00    +0.000 C 
ATOM      8  C   UNL     1       7.629  -4.356   0.000  0.00  0.00    +0.000 C 
ATOM      9  C   UNL     1       8.041  -3.642   0.000  0.00  0.00    +0.000 C 
ATOM     10  C   UNL     1       7.489  -3.029   0.000  0.00  0.00    +0.000 C 
ENDBRANCH   5   6
ENDBRANCH   3   5
ENDBRANCH   1   2
BRANCH   1  11
ATOM     11  C   UNL     1       3.163  -2.952   0.000  0.00  0.00    +0.199 C 
ATOM     12  O   UNL     1       3.163  -2.127   0.000  0.00  0.00    -0.216 OA
BRANCH  11  17
ATOM     13  C   UNL     1       0.323  -3.556   0.000  0.00  0.00    +0.154 C 
ATOM     14  N   UNL     1       1.143  -3.642   0.000  0.00  0.00    -0.248 N 
ATOM     15  N   UNL     1       1.556  -4.356   0.000  0.00  0.00    -0.168 NA
ATOM     16  C   UNL     1       2.363  -4.185   0.000  0.00  0.00    +0.120 A 
ATOM     17  C   UNL     1       2.449  -3.364   0.000  0.00  0.00    +0.049 A 
ATOM     18  C   UNL     1       1.695  -3.029   0.000  0.00  0.00    +0.095 A 
ENDBRANCH  11  17
ENDBRANCH   1  11
TORSDOF 5
