REMARK  Name = 
REMARK  7 active torsions:
REMARK  status: ('A' for Active; 'I' for Inactive)
REMARK    1  A    between atoms: N_2  and  C_10
REMARK    2  A    between atoms: C_5  and  N_7
REMARK    3  A    between atoms: N_7  and  C_13
REMARK    4  A    between atoms: N_7  and  C_21
REMARK    5  A    between atoms: C_10  and  C_14
REMARK    6  A    between atoms: C_12  and  C_13
REMARK    7  A    between atoms: N_17  and  C_24
REMARK                            x       y       z     vdW  Elec       q    Type
REMARK                         _______ _______ _______ _____ _____    ______ ____
ROOT
ATOM      1  C   UNL     1       2.583  -1.458   0.000  0.00  0.00    +0.149 A 
ATOM      2  C   UNL     1       1.758  -1.458   0.000  0.00  0.00    +0.155 A 
ATOM      3  N   UNL     1       1.346  -0.742   0.000  0.00  0.00    -0.207 NA
ATOM      4  C   UNL     1       1.758  -0.029   0.000  0.00  0.00    +0.201 A 
ATOM      5  N   UNL     1       2.583  -0.029   0.000  0.00  0.00    -0.205 NA
ATOM      6  N   UNL     1       3.138  -2.071   0.000  0.00  0.00    -0.219 NA
ATOM      7  C   UNL     1       3.888  -1.733   0.000  0.00  0.00    +0.180 A 
ATOM      8  N   UNL     1       3.804  -0.912   0.000  0.00  0.00    -0.292 N 
ATOM      9  C   UNL     1       2.996  -0.742   0.000  0.00  0.00    +0.167 A 
ENDROOT
BRANCH   2  10
ATOM     10  N   UNL     1       1.346  -2.171   0.000  0.00  0.00    -0.284 N 
BRANCH  10  11
ATOM     11  C   UNL     1       1.758  -2.888   0.000  0.00  0.00    +0.093 C 
ATOM     12  C   UNL     1       1.346  -3.600   0.000  0.00  0.00    +0.023 C 
ENDBRANCH  10  11
BRANCH  10  13
ATOM     13  C   UNL     1       0.521  -2.171   0.000  0.00  0.00    +0.180 C 
BRANCH  13  14
ATOM     14  C   UNL     1       0.108  -2.888   0.000  0.00  0.00    +0.262 C 
ATOM     15  N   UNL     1      -0.717  -2.888   0.000  0.00  0.00    -0.204 NA
ATOM     16  O   UNL     1       0.521  -3.600   0.000  0.00  0.00    -0.271 OA
BRANCH  15  17
ATOM     17  C   UNL     1      -1.129  -3.600   0.000  0.00  0.00    +0.115 C 
ATOM     18  C   UNL     1      -1.954  -3.600   0.000  0.00  0.00    +0.025 C 
ENDBRANCH  15  17
ENDBRANCH  13  14
ENDBRANCH  10  13
ENDBRANCH   2  10
BRANCH   8  19
ATOM     19  C   UNL     1       4.417  -0.362   0.000  0.00  0.00    +0.139 C 
BRANCH  19  20
ATOM     20  C   UNL     1       5.200  -0.617   0.000  0.00  0.00    +0.152 C 
ATOM     21  O   UNL     1       4.812  -1.346   0.000  0.00  0.00    -0.223 OA
ATOM     22  C   UNL     1       5.317   0.200   0.000  0.00  0.00    +0.064 C 
ATOM     23  C   UNL     1       6.079   0.508   0.000  0.00  0.00    +0.145 C 
ATOM     24  O   UNL     1       6.729   0.000   0.000  0.00  0.00    -0.354 OA
ATOM     25  C   UNL     1       6.617  -0.817   0.000  0.00  0.00    +0.145 C 
ATOM     26  C   UNL     1       5.850  -1.125   0.000  0.00  0.00    +0.064 C 
ENDBRANCH  19  20
ENDBRANCH   8  19
TORSDOF 7
