REMARK  Name = 
REMARK  4 active torsions:
REMARK  status: ('A' for Active; 'I' for Inactive)
REMARK    1  A    between atoms: C_2  and  C_3
REMARK    2  A    between atoms: C_2  and  C_14
REMARK    3  A    between atoms: C_3  and  N_4
REMARK    4  A    between atoms: N_4  and  C_5
REMARK                            x       y       z     vdW  Elec       q    Type
REMARK                         _______ _______ _______ _____ _____    ______ ____
ROOT
ATOM      1  C   UNL     1       5.660  -2.393   0.000  0.00  0.00    +0.093 C 
ENDROOT
BRANCH   1   3
ATOM      2  C   UNL     1       6.616  -1.331   0.000  0.00  0.00    +0.006 C 
ATOM      3  C   UNL     1       6.445  -2.138   0.000  0.00  0.00    +0.044 C 
BRANCH   3   4
ATOM      4  C   UNL     1       7.058  -2.691   0.000  0.00  0.00    +0.029 A 
ATOM      5  C   UNL     1       6.971  -3.511   0.000  0.00  0.00    +0.150 A 
ATOM      6  C   UNL     1       6.257  -3.924   0.000  0.00  0.00    +0.075 C 
ATOM      7  O   UNL     1       7.725  -3.846   0.000  0.00  0.00    -0.358 OA
ATOM      8  N   UNL     1       8.277  -3.233   0.000  0.00  0.00    -0.082 NA
ATOM      9  C   UNL     1       7.865  -2.519   0.000  0.00  0.00    +0.097 A 
ATOM     10  C   UNL     1       8.200  -1.765   0.000  0.00  0.00    +0.055 C 
ENDBRANCH   3   4
ENDBRANCH   1   3
BRANCH   1  11
ATOM     11  N   UNL     1       5.047  -1.841   0.000  0.00  0.00    -0.217 NA
BRANCH  11  12
ATOM     12  C   UNL     1       4.262  -2.096   0.000  0.00  0.00    +0.100 C 
ATOM     13  C   UNL     1       3.595  -1.611   0.000  0.00  0.00    +0.107 C 
ATOM     14  C   UNL     1       4.000  -0.893   0.000  0.00  0.00    +0.031 C 
ATOM     15  C   UNL     1       3.190  -0.893   0.000  0.00  0.00    +0.031 C 
ATOM     16  O   UNL     1       2.928  -2.096   0.000  0.00  0.00    -0.362 OA
ATOM     17  C   UNL     1       3.182  -2.881   0.000  0.00  0.00    +0.094 C 
ATOM     18  C   UNL     1       2.375  -3.052   0.000  0.00  0.00    +0.030 C 
ATOM     19  C   UNL     1       3.269  -3.701   0.000  0.00  0.00    +0.030 C 
ATOM     20  C   UNL     1       4.007  -2.881   0.000  0.00  0.00    +0.047 C 
ENDBRANCH  11  12
ENDBRANCH   1  11
TORSDOF 4
