REMARK  Name = 
REMARK  6 active torsions:
REMARK  status: ('A' for Active; 'I' for Inactive)
REMARK    1  A    between atoms: N_2  and  C_3
REMARK    2  A    between atoms: N_2  and  C_15
REMARK    3  A    between atoms: C_3  and  C_4
REMARK    4  A    between atoms: C_4  and  N_5
REMARK    5  A    between atoms: C_6  and  C_8
REMARK    6  A    between atoms: C_8  and  N_9
REMARK                            x       y       z     vdW  Elec       q    Type
REMARK                         _______ _______ _______ _____ _____    ______ ____
ROOT
ATOM      1  N   UNL     1       4.592  -2.952   0.000  0.00  0.00    -0.202 NA
ATOM      2  C   UNL     1       5.307  -3.364   0.000  0.00  0.00    +0.266 C 
ATOM      3  O   UNL     1       5.307  -4.189   0.000  0.00  0.00    -0.271 OA
ENDROOT
BRANCH   2   4
ATOM      4  C   UNL     1       6.021  -2.952   0.000  0.00  0.00    +0.214 C 
BRANCH   4   5
ATOM      5  N   UNL     1       6.736  -3.364   0.000  0.00  0.00    -0.240 N 
ATOM      6  N   UNL     1       6.822  -4.185   0.000  0.00  0.00    -0.168 NA
ATOM      7  C   UNL     1       7.629  -4.356   0.000  0.00  0.00    +0.117 A 
ATOM      8  C   UNL     1       8.041  -3.642   0.000  0.00  0.00    +0.018 A 
ATOM      9  C   UNL     1       8.862  -3.556   0.000  0.00  0.00    +0.034 C 
ATOM     10  C   UNL     1       7.489  -3.029   0.000  0.00  0.00    +0.093 A 
ENDBRANCH   4   5
ENDBRANCH   2   4
BRANCH   1  11
ATOM     11  C   UNL     1       3.878  -3.364   0.000  0.00  0.00    +0.132 C 
BRANCH  11  12
ATOM     12  C   UNL     1       3.163  -2.952   0.000  0.00  0.00    +0.096 C 
BRANCH  12  14
ATOM     13  C   UNL     1       2.449  -4.189   0.000  0.00  0.00    +0.090 C 
ATOM     14  N   UNL     1       2.449  -3.364   0.000  0.00  0.00    -0.271 NA
BRANCH  14  15
ATOM     15  C   UNL     1       1.734  -2.952   0.000  0.00  0.00    +0.058 C 
ATOM     16  C   UNL     1       1.322  -2.237   0.000  0.00  0.00    +0.017 C 
ATOM     17  C   UNL     1       0.909  -2.952   0.000  0.00  0.00    +0.017 C 
ENDBRANCH  14  15
ENDBRANCH  12  14
ENDBRANCH  11  12
ENDBRANCH   1  11
TORSDOF 6
