REMARK  Name = 
REMARK  5 active torsions:
REMARK  status: ('A' for Active; 'I' for Inactive)
REMARK    1  A    between atoms: C_2  and  N_3
REMARK    2  A    between atoms: C_2  and  C_21
REMARK    3  A    between atoms: N_11  and  C_12
REMARK    4  A    between atoms: C_12  and  C_13
REMARK    5  A    between atoms: C_13  and  C_14
REMARK                            x       y       z     vdW  Elec       q    Type
REMARK                         _______ _______ _______ _____ _____    ______ ____
ROOT
ATOM      1  N   UNL     1      -2.858  -3.300   0.000  0.00  0.00    -0.264 NA
ATOM      2  C   UNL     1      -2.143  -3.712   0.000  0.00  0.00    +0.094 C 
ATOM      3  C   UNL     1      -1.429  -3.300   0.000  0.00  0.00    +0.112 C 
ATOM      4  N   UNL     1      -1.429  -2.475   0.000  0.00  0.00    -0.260 N 
ATOM      5  C   UNL     1      -0.715  -2.062   0.000  0.00  0.00    +0.323 C 
ATOM      6  N   UNL     1       0.000  -2.475   0.000  0.00  0.00    -0.188 NA
ATOM      7  O   UNL     1      -0.715  -1.238   0.000  0.00  0.00    -0.251 OA
ATOM      8  C   UNL     1      -2.143  -2.062   0.000  0.00  0.00    +0.112 C 
ATOM      9  C   UNL     1      -2.858  -2.475   0.000  0.00  0.00    +0.094 C 
ENDROOT
BRANCH   1  11
ATOM     10  C   UNL     1      -4.287  -3.300   0.000  0.00  0.00    +0.026 C 
ATOM     11  C   UNL     1      -3.572  -3.712   0.000  0.00  0.00    +0.154 C 
BRANCH  11  12
ATOM     12  C   UNL     1      -3.572  -4.537   0.000  0.00  0.00    +0.410 C 
ATOM     13  F   UNL     1      -2.747  -4.537   0.000  0.00  0.00    -0.169 F 
ATOM     14  F   UNL     1      -4.397  -4.537   0.000  0.00  0.00    -0.169 F 
ATOM     15  F   UNL     1      -3.572  -5.362   0.000  0.00  0.00    -0.169 F 
ENDBRANCH  11  12
ENDBRANCH   1  11
BRANCH   6  16
ATOM     16  C   UNL     1       0.715  -2.062   0.000  0.00  0.00    +0.122 C 
BRANCH  16  17
ATOM     17  C   UNL     1       1.429  -2.475   0.000  0.00  0.00    +0.051 C 
BRANCH  17  18
ATOM     18  C   UNL     1       2.143  -2.062   0.000  0.00  0.00    -0.001 A 
ATOM     19  C   UNL     1       2.858  -2.475   0.000  0.00  0.00    +0.094 A 
ATOM     20  N   UNL     1       3.572  -2.062   0.000  0.00  0.00    -0.248 NA
ATOM     21  C   UNL     1       3.572  -1.238   0.000  0.00  0.00    +0.059 A 
ATOM     22  C   UNL     1       4.287  -0.825   0.000  0.00  0.00    +0.052 C 
ATOM     23  C   UNL     1       2.858  -0.825   0.000  0.00  0.00    +0.014 A 
ATOM     24  C   UNL     1       2.143  -1.238   0.000  0.00  0.00    -0.001 A 
ENDBRANCH  17  18
ENDBRANCH  16  17
ENDBRANCH   6  16
TORSDOF 5
