REMARK  Name = 
REMARK  5 active torsions:
REMARK  status: ('A' for Active; 'I' for Inactive)
REMARK    1  A    between atoms: C_2  and  C_3
REMARK    2  A    between atoms: C_2  and  C_13
REMARK    3  A    between atoms: N_5  and  C_6
REMARK    4  A    between atoms: C_6  and  C_7
REMARK    5  A    between atoms: C_7  and  C_8
REMARK                            x       y       z     vdW  Elec       q    Type
REMARK                         _______ _______ _______ _____ _____    ______ ____
ROOT
ATOM      1  C   UNL     1       1.040  -0.215   0.000  0.00  0.00    +0.014 C 
ATOM      2  C   UNL     1       1.040  -1.040   0.000  0.00  0.00    +0.103 C 
ENDROOT
BRANCH   2   3
ATOM      3  C   UNL     1       0.325  -1.452   0.000  0.00  0.00    +0.015 A 
ATOM      4  C   UNL     1      -0.429  -1.117   0.000  0.00  0.00    +0.054 A 
ATOM      5  C   UNL     1      -0.600  -0.309   0.000  0.00  0.00    +0.051 C 
ATOM      6  N   UNL     1      -0.981  -1.730   0.000  0.00  0.00    -0.253 N 
ATOM      7  C   UNL     1      -1.801  -1.643   0.000  0.00  0.00    +0.153 C 
ATOM      8  N   UNL     1      -0.568  -2.444   0.000  0.00  0.00    -0.174 NA
ATOM      9  C   UNL     1       0.239  -2.272   0.000  0.00  0.00    +0.077 A 
ATOM     10  C   UNL     1       0.852  -2.825   0.000  0.00  0.00    +0.054 C 
ENDBRANCH   2   3
BRANCH   2  11
ATOM     11  C   UNL     1       1.754  -1.452   0.000  0.00  0.00    +0.245 C 
ATOM     12  N   UNL     1       2.469  -1.040   0.000  0.00  0.00    -0.205 NA
ATOM     13  O   UNL     1       1.754  -2.277   0.000  0.00  0.00    -0.273 OA
BRANCH  12  14
ATOM     14  C   UNL     1       3.183  -1.452   0.000  0.00  0.00    +0.115 C 
BRANCH  14  15
ATOM     15  C   UNL     1       3.897  -1.040   0.000  0.00  0.00    +0.023 C 
BRANCH  15  16
ATOM     16  C   UNL     1       4.612  -1.452   0.000  0.00  0.00    +0.002 C 
ATOM     17  C   UNL     1       4.698  -2.272   0.000  0.00  0.00    +0.000 C 
ATOM     18  C   UNL     1       5.505  -2.444   0.000  0.00  0.00    +0.000 C 
ATOM     19  C   UNL     1       5.918  -1.730   0.000  0.00  0.00    +0.000 C 
ATOM     20  C   UNL     1       5.366  -1.117   0.000  0.00  0.00    +0.000 C 
ENDBRANCH  15  16
ENDBRANCH  14  15
ENDBRANCH  12  14
ENDBRANCH   2  11
TORSDOF 5
