REMARK  Name = 
REMARK  4 active torsions:
REMARK  status: ('A' for Active; 'I' for Inactive)
REMARK    1  A    between atoms: N_8  and  C_9
REMARK    2  A    between atoms: C_9  and  C_10
REMARK    3  A    between atoms: N_13  and  C_14
REMARK    4  A    between atoms: C_14  and  C_15
REMARK                            x       y       z     vdW  Elec       q    Type
REMARK                         _______ _______ _______ _____ _____    ______ ____
ROOT
ATOM      1  C   UNL     1      -1.229  -0.729   0.000  0.00  0.00    +0.075 C 
ATOM      2  C   UNL     1      -0.893  -1.483   0.000  0.00  0.00    +0.156 A 
ATOM      3  O   UNL     1      -1.306  -2.197   0.000  0.00  0.00    -0.356 OA
ATOM      4  N   UNL     1      -0.754  -2.811   0.000  0.00  0.00    -0.060 NA
ATOM      5  C   UNL     1       0.000  -2.475   0.000  0.00  0.00    +0.197 A 
ATOM      6  N   UNL     1       0.715  -2.888   0.000  0.00  0.00    -0.139 NA
ATOM      7  C   UNL     1       1.429  -2.475   0.000  0.00  0.00    +0.345 C 
ATOM      8  N   UNL     1       2.143  -2.888   0.000  0.00  0.00    -0.187 NA
ATOM      9  O   UNL     1       1.429  -1.650   0.000  0.00  0.00    -0.249 OA
ATOM     10  C   UNL     1      -0.086  -1.655   0.000  0.00  0.00    +0.075 A 
ENDROOT
BRANCH   8  11
ATOM     11  C   UNL     1       2.858  -2.475   0.000  0.00  0.00    +0.117 C 
BRANCH  11  12
ATOM     12  C   UNL     1       3.572  -2.888   0.000  0.00  0.00    +0.025 C 
ATOM     13  C   UNL     1       3.572  -3.712   0.000  0.00  0.00    +0.019 C 
ATOM     14  C   UNL     1       4.287  -4.125   0.000  0.00  0.00    +0.072 C 
ATOM     15  N   UNL     1       5.001  -3.712   0.000  0.00  0.00    -0.270 NA
ATOM     16  C   UNL     1       5.001  -2.888   0.000  0.00  0.00    +0.072 C 
ATOM     17  C   UNL     1       4.287  -2.475   0.000  0.00  0.00    +0.019 C 
BRANCH  15  18
ATOM     18  C   UNL     1       5.716  -4.125   0.000  0.00  0.00    +0.108 C 
BRANCH  18  19
ATOM     19  C   UNL     1       5.716  -4.950   0.000  0.00  0.00    +0.199 C 
ATOM     20  O   UNL     1       6.430  -5.362   0.000  0.00  0.00    -0.219 OA
ENDBRANCH  18  19
ENDBRANCH  15  18
ENDBRANCH  11  12
ENDBRANCH   8  11
TORSDOF 4
