REMARK  Name = 
REMARK  2 active torsions:
REMARK  status: ('A' for Active; 'I' for Inactive)
REMARK    1  A    between atoms: N_4  and  C_15
REMARK    2  A    between atoms: C_15  and  C_17
REMARK                            x       y       z     vdW  Elec       q    Type
REMARK                         _______ _______ _______ _____ _____    ______ ____
ROOT
ATOM      1  C   UNL     1       0.712  -2.887   0.000  0.00  0.00    +0.149 A 
ATOM      2  N   UNL     1      -0.071  -2.629   0.000  0.00  0.00    -0.219 NA
ATOM      3  C   UNL     1      -0.558  -3.300   0.000  0.00  0.00    +0.180 A 
ATOM      4  N   UNL     1      -0.071  -3.966   0.000  0.00  0.00    -0.292 N 
ATOM      5  C   UNL     1       0.712  -3.712   0.000  0.00  0.00    +0.167 A 
ATOM      6  N   UNL     1       1.425  -4.125   0.000  0.00  0.00    -0.205 NA
ATOM      7  C   UNL     1       2.142  -3.712   0.000  0.00  0.00    +0.201 A 
ATOM      8  N   UNL     1       2.142  -2.887   0.000  0.00  0.00    -0.207 NA
ATOM      9  C   UNL     1       1.425  -2.475   0.000  0.00  0.00    +0.155 A 
ATOM     10  N   UNL     1       1.425  -1.650   0.000  0.00  0.00    -0.284 N 
ATOM     11  C   UNL     1       0.712  -1.237   0.000  0.00  0.00    +0.180 C 
ATOM     12  C   UNL     1       0.712  -0.412   0.000  0.00  0.00    +0.262 C 
ATOM     13  N   UNL     1       1.425   0.000   0.000  0.00  0.00    -0.204 NA
ATOM     14  C   UNL     1       2.142  -0.412   0.000  0.00  0.00    +0.113 C 
ATOM     15  C   UNL     1       2.854   0.000   0.000  0.00  0.00    +0.023 C 
ATOM     16  C   UNL     1       3.571  -0.412   0.000  0.00  0.00    +0.002 C 
ATOM     17  C   UNL     1       3.571  -1.237   0.000  0.00  0.00    +0.002 C 
ATOM     18  C   UNL     1       2.854  -1.650   0.000  0.00  0.00    +0.022 C 
ATOM     19  O   UNL     1       0.000   0.000   0.000  0.00  0.00    -0.271 OA
ATOM     20  C   UNL     1       2.142  -1.237   0.000  0.00  0.00    +0.094 C 
ENDROOT
BRANCH   4  21
ATOM     21  C   UNL     1      -0.329  -4.750   0.000  0.00  0.00    +0.139 C 
BRANCH  21  22
ATOM     22  C   UNL     1       0.225  -5.362   0.000  0.00  0.00    +0.152 C 
ATOM     23  O   UNL     1       0.733  -4.712   0.000  0.00  0.00    -0.223 OA
ATOM     24  C   UNL     1      -0.475  -5.800   0.000  0.00  0.00    +0.064 C 
ATOM     25  C   UNL     1      -0.446  -6.624   0.000  0.00  0.00    +0.145 C 
ATOM     26  O   UNL     1       0.283  -7.012   0.000  0.00  0.00    -0.354 OA
ATOM     27  C   UNL     1       0.983  -6.574   0.000  0.00  0.00    +0.145 C 
ATOM     28  C   UNL     1       0.954  -5.750   0.000  0.00  0.00    +0.064 C 
ENDBRANCH  21  22
ENDBRANCH   4  21
TORSDOF 2
