REMARK  Name = 
REMARK  5 active torsions:
REMARK  status: ('A' for Active; 'I' for Inactive)
REMARK    1  A    between atoms: C_2  and  C_4
REMARK    2  A    between atoms: C_4  and  N_5
REMARK    3  A    between atoms: C_7  and  N_8
REMARK    4  A    between atoms: N_11  and  C_12
REMARK    5  A    between atoms: C_12  and  C_13
REMARK                            x       y       z     vdW  Elec       q    Type
REMARK                         _______ _______ _______ _____ _____    ______ ____
ROOT
ATOM      1  N   UNL     1       1.387  -2.408   0.000  0.00  0.00    -0.158 NA
ATOM      2  C   UNL     1       2.102  -1.996   0.000  0.00  0.00    +0.344 C 
ATOM      3  N   UNL     1       2.816  -2.408   0.000  0.00  0.00    -0.184 NA
ATOM      4  O   UNL     1       2.102  -1.171   0.000  0.00  0.00    -0.249 OA
ENDROOT
BRANCH   1   8
ATOM      5  N   UNL     1      -0.221  -1.004   0.000  0.00  0.00    -0.239 N 
ATOM      6  N   UNL     1      -0.633  -1.718   0.000  0.00  0.00    -0.166 NA
ATOM      7  C   UNL     1      -0.081  -2.331   0.000  0.00  0.00    +0.138 A 
ATOM      8  C   UNL     1       0.672  -1.996   0.000  0.00  0.00    +0.115 A 
ATOM      9  C   UNL     1       0.586  -1.175   0.000  0.00  0.00    +0.114 A 
BRANCH   5  10
ATOM     10  C   UNL     1      -0.556  -0.250   0.000  0.00  0.00    +0.215 C 
BRANCH  10  12
ATOM     11  N   UNL     1      -1.712   0.590   0.000  0.00  0.00    -0.086 NA
ATOM     12  C   UNL     1      -1.377  -0.164   0.000  0.00  0.00    +0.286 C 
ATOM     13  O   UNL     1      -1.862  -0.831   0.000  0.00  0.00    -0.269 OA
ENDBRANCH  10  12
ENDBRANCH   5  10
ENDBRANCH   1   8
BRANCH   3  14
ATOM     14  C   UNL     1       3.530  -1.996   0.000  0.00  0.00    +0.146 C 
BRANCH  14  15
ATOM     15  C   UNL     1       4.245  -2.408   0.000  0.00  0.00    +0.137 C 
ATOM     16  O   UNL     1       4.331  -3.229   0.000  0.00  0.00    -0.354 OA
ATOM     17  C   UNL     1       5.138  -3.400   0.000  0.00  0.00    +0.142 C 
ATOM     18  C   UNL     1       5.551  -2.686   0.000  0.00  0.00    +0.035 C 
ATOM     19  C   UNL     1       4.999  -2.073   0.000  0.00  0.00    +0.034 C 
ENDBRANCH  14  15
ENDBRANCH   3  14
TORSDOF 5
