REMARK  Name = 
REMARK  4 active torsions:
REMARK  status: ('A' for Active; 'I' for Inactive)
REMARK    1  A    between atoms: N_9  and  C_10
REMARK    2  A    between atoms: C_10  and  C_15
REMARK    3  A    between atoms: N_17  and  C_18
REMARK    4  A    between atoms: C_18  and  C_19
REMARK                            x       y       z     vdW  Elec       q    Type
REMARK                         _______ _______ _______ _____ _____    ______ ____
ROOT
ATOM      1  C   UNL     1      -0.820   9.941   0.000  0.00  0.00    +0.150 C 
ATOM      2  C   UNL     1      -1.433  10.493   0.000  0.00  0.00    +0.029 C 
ATOM      3  C   UNL     1      -2.147  10.081   0.000  0.00  0.00    +0.002 C 
ATOM      4  C   UNL     1      -1.976   9.274   0.000  0.00  0.00    +0.002 C 
ATOM      5  C   UNL     1      -1.155   9.188   0.000  0.00  0.00    +0.029 C 
ENDROOT
BRANCH   1  13
ATOM      6 CL   UNL     1      -2.833  14.463   0.000  0.00  0.00    -0.081 Cl
ATOM      7  C   UNL     1      -2.497  13.710   0.000  0.00  0.00    +0.077 A 
ATOM      8  C   UNL     1      -2.982  13.042   0.000  0.00  0.00    +0.112 A 
ATOM      9  N   UNL     1      -2.647  12.288   0.000  0.00  0.00    -0.226 NA
ATOM     10  C   UNL     1      -1.826  12.202   0.000  0.00  0.00    +0.156 A 
ATOM     11  N   UNL     1      -1.491  11.448   0.000  0.00  0.00    -0.142 NA
ATOM     12  C   UNL     1      -0.670  11.362   0.000  0.00  0.00    +0.345 C 
ATOM     13  N   UNL     1      -0.335  10.609   0.000  0.00  0.00    -0.181 NA
ATOM     14  O   UNL     1      -0.185  12.030   0.000  0.00  0.00    -0.249 OA
ATOM     15  C   UNL     1      -1.341  12.870   0.000  0.00  0.00    +0.037 A 
ATOM     16  C   UNL     1      -1.677  13.623   0.000  0.00  0.00    +0.016 A 
ENDBRANCH   1  13
BRANCH   1  17
ATOM     17  C   UNL     1      -0.105   9.529   0.000  0.00  0.00    +0.259 C 
ATOM     18  N   UNL     1      -0.105   8.704   0.000  0.00  0.00    -0.204 NA
ATOM     19  O   UNL     1       0.610   9.941   0.000  0.00  0.00    -0.272 OA
BRANCH  18  20
ATOM     20  C   UNL     1       0.610   8.291   0.000  0.00  0.00    +0.115 C 
BRANCH  20  21
ATOM     21  C   UNL     1       0.610   7.466   0.000  0.00  0.00    +0.022 C 
ATOM     22  C   UNL     1       0.197   6.752   0.000  0.00  0.00    +0.002 C 
ATOM     23  C   UNL     1       1.022   6.752   0.000  0.00  0.00    +0.002 C 
ENDBRANCH  20  21
ENDBRANCH  18  20
ENDBRANCH   1  17
TORSDOF 4
