REMARK  Name = 
REMARK  2 active torsions:
REMARK  status: ('A' for Active; 'I' for Inactive)
REMARK    1  A    between atoms: C_2  and  C_5
REMARK    2  A    between atoms: C_8  and  C_10
REMARK                            x       y       z     vdW  Elec       q    Type
REMARK                         _______ _______ _______ _____ _____    ______ ____
ROOT
ATOM      1  C   UNL     1       0.715  -1.238   0.000  0.00  0.00    +0.159 A 
ATOM      2  N   UNL     1       0.047  -1.722   0.000  0.00  0.00    -0.239 NA
ATOM      3  C   UNL     1       0.302  -2.507   0.000  0.00  0.00    +0.089 A 
ATOM      4  S   UNL     1       1.127  -2.507   0.000  0.00  0.00    -0.070 S 
ATOM      5  C   UNL     1       1.382  -1.722   0.000  0.00  0.00    +0.060 A 
ENDROOT
BRANCH   3   6
ATOM      6  C   UNL     1      -0.183  -3.175   0.000  0.00  0.00    +0.064 C 
ATOM      7  C   UNL     1      -1.003  -3.088   0.000  0.00  0.00    +0.095 C 
ATOM      8  N   UNL     1      -1.488  -3.756   0.000  0.00  0.00    -0.218 NA
ATOM      9  C   UNL     1      -1.153  -4.509   0.000  0.00  0.00    +0.089 C 
ATOM     10  C   UNL     1      -0.332  -4.596   0.000  0.00  0.00    +0.019 C 
ATOM     11  C   UNL     1       0.153  -3.928   0.000  0.00  0.00    +0.009 C 
ENDBRANCH   3   6
BRANCH   1  13
ATOM     12  F   UNL     1       0.715   0.412   0.000  0.00  0.00    -0.164 F 
ATOM     13  C   UNL     1       0.715  -0.412   0.000  0.00  0.00    +0.435 C 
ATOM     14  F   UNL     1       1.540  -0.412   0.000  0.00  0.00    -0.164 F 
ATOM     15  F   UNL     1      -0.111  -0.412   0.000  0.00  0.00    -0.164 F 
ENDBRANCH   1  13
TORSDOF 2
