REMARK  Name = 
REMARK  5 active torsions:
REMARK  status: ('A' for Active; 'I' for Inactive)
REMARK    1  A    between atoms: C_2  and  N_3
REMARK    2  A    between atoms: C_2  and  C_18
REMARK    3  A    between atoms: C_4  and  C_6
REMARK    4  A    between atoms: C_6  and  N_7
REMARK    5  A    between atoms: C_13  and  C_14
REMARK                            x       y       z     vdW  Elec       q    Type
REMARK                         _______ _______ _______ _____ _____    ______ ____
ROOT
ATOM      1  N   UNL     1       3.572  -2.888   0.000  0.00  0.00    -0.207 N 
ATOM      2  C   UNL     1       3.572  -3.712   0.000  0.00  0.00    +0.286 A 
ATOM      3  O   UNL     1       2.858  -4.125   0.000  0.00  0.00    -0.265 OA
ATOM      4  C   UNL     1       4.287  -4.125   0.000  0.00  0.00    +0.123 A 
ATOM      5  C   UNL     1       5.001  -3.712   0.000  0.00  0.00    +0.008 A 
ATOM      6  C   UNL     1       5.716  -4.125   0.000  0.00  0.00    +0.033 C 
ATOM      7  C   UNL     1       5.001  -2.888   0.000  0.00  0.00    +0.076 A 
ATOM      8  C   UNL     1       5.716  -2.475   0.000  0.00  0.00    +0.054 C 
ATOM      9  N   UNL     1       4.287  -2.475   0.000  0.00  0.00    -0.171 NA
ENDROOT
BRANCH   4  10
ATOM     10  C   UNL     1       4.287  -4.950   0.000  0.00  0.00    +0.105 C 
ATOM     11  N   UNL     1       4.287  -5.775   0.000  0.00  0.00    -0.191 NA
ENDBRANCH   4  10
BRANCH   1  12
ATOM     12  C   UNL     1       2.858  -2.475   0.000  0.00  0.00    +0.217 C 
BRANCH  12  14
ATOM     13  N   UNL     1       1.429  -2.475   0.000  0.00  0.00    -0.206 NA
ATOM     14  C   UNL     1       2.143  -2.888   0.000  0.00  0.00    +0.266 C 
ATOM     15  O   UNL     1       2.143  -3.712   0.000  0.00  0.00    -0.271 OA
BRANCH  13  17
ATOM     16  C   UNL     1       0.715  -3.712   0.000  0.00  0.00    +0.023 C 
ATOM     17  C   UNL     1       0.715  -2.888   0.000  0.00  0.00    +0.095 C 
BRANCH  17  18
ATOM     18  C   UNL     1       0.000  -2.475   0.000  0.00  0.00    +0.020 C 
ATOM     19  C   UNL     1      -0.412  -1.760   0.000  0.00  0.00    +0.002 C 
ATOM     20  C   UNL     1      -0.825  -2.475   0.000  0.00  0.00    +0.002 C 
ENDBRANCH  17  18
ENDBRANCH  13  17
ENDBRANCH  12  14
ENDBRANCH   1  12
TORSDOF 5
