REMARK  Name = 
REMARK  6 active torsions:
REMARK  status: ('A' for Active; 'I' for Inactive)
REMARK    1  A    between atoms: N_2  and  C_3
REMARK    2  A    between atoms: N_2  and  C_18
REMARK    3  A    between atoms: C_3  and  C_4
REMARK    4  A    between atoms: C_4  and  C_6
REMARK    5  A    between atoms: C_6  and  N_7
REMARK    6  A    between atoms: C_18  and  C_19
REMARK                            x       y       z     vdW  Elec       q    Type
REMARK                         _______ _______ _______ _____ _____    ______ ____
ROOT
ATOM      1  C   UNL     1       3.563   0.032   0.000  0.00  0.00    +0.190 C 
ATOM      2  O   UNL     1       3.563   0.857   0.000  0.00  0.00    -0.220 OA
ENDROOT
BRANCH   1   3
ATOM      3  C   UNL     1       2.849  -0.381   0.000  0.00  0.00    +0.142 C 
BRANCH   3   4
ATOM      4  N   UNL     1       2.135   0.032   0.000  0.00  0.00    -0.306 N 
ATOM      5  C   UNL     1       2.048   0.853   0.000  0.00  0.00    +0.079 A 
ATOM      6  C   UNL     1       1.241   1.024   0.000  0.00  0.00    +0.098 A 
ATOM      7  C   UNL     1       0.986   1.809   0.000  0.00  0.00    +0.016 A 
ATOM      8  C   UNL     1       1.538   2.422   0.000  0.00  0.00    -0.024 A 
ATOM      9  C   UNL     1       2.345   2.250   0.000  0.00  0.00    -0.024 A 
ATOM     10  C   UNL     1       2.897   2.863   0.000  0.00  0.00    +0.031 C 
ATOM     11  C   UNL     1       1.284   3.206   0.000  0.00  0.00    +0.031 C 
ATOM     12  N   UNL     1       0.829   0.309   0.000  0.00  0.00    -0.224 NA
ATOM     13  C   UNL     1       2.600   1.466   0.000  0.00  0.00    +0.014 A 
ATOM     14  C   UNL     1       1.381  -0.304   0.000  0.00  0.00    +0.179 A 
ENDBRANCH   3   4
ENDBRANCH   1   3
BRANCH   1  15
ATOM     15  C   UNL     1       4.278  -0.381   0.000  0.00  0.00    +0.108 C 
BRANCH  15  17
ATOM     16  C   UNL     1       4.992   0.857   0.000  0.00  0.00    +0.090 C 
ATOM     17  N   UNL     1       4.992   0.032   0.000  0.00  0.00    -0.265 NA
BRANCH  17  18
ATOM     18  C   UNL     1       5.707  -0.381   0.000  0.00  0.00    +0.102 C 
BRANCH  18  19
ATOM     19  C   UNL     1       6.421   0.032   0.000  0.00  0.00    +0.033 A 
ATOM     20  C   UNL     1       7.175  -0.304   0.000  0.00  0.00    +0.094 A 
ATOM     21  N   UNL     1       7.727   0.309   0.000  0.00  0.00    -0.248 N 
ATOM     22  C   UNL     1       8.548   0.223   0.000  0.00  0.00    +0.154 C 
ATOM     23  N   UNL     1       7.315   1.024   0.000  0.00  0.00    -0.168 NA
ATOM     24  C   UNL     1       6.508   0.853   0.000  0.00  0.00    +0.119 A 
ENDBRANCH  18  19
ENDBRANCH  17  18
ENDBRANCH  15  17
ENDBRANCH   1  15
TORSDOF 6
