REMARK  Name = 
REMARK  6 active torsions:
REMARK  status: ('A' for Active; 'I' for Inactive)
REMARK    1  A    between atoms: O_2  and  C_3
REMARK    2  A    between atoms: C_3  and  C_4
REMARK    3  A    between atoms: C_4  and  N_5
REMARK    4  A    between atoms: N_11  and  C_12
REMARK    5  A    between atoms: C_12  and  C_13
REMARK    6  A    between atoms: N_15  and  C_16
REMARK                            x       y       z     vdW  Elec       q    Type
REMARK                         _______ _______ _______ _____ _____    ______ ____
ROOT
ATOM      1  N   UNL     1      -2.143  -1.238   0.000  0.00  0.00    -0.264 N 
ATOM      2  C   UNL     1      -2.858  -1.650   0.000  0.00  0.00    +0.335 A 
ATOM      3  O   UNL     1      -3.572  -1.238   0.000  0.00  0.00    -0.246 OA
ATOM      4  N   UNL     1      -2.858  -2.475   0.000  0.00  0.00    -0.239 N 
ATOM      5  C   UNL     1      -2.143  -2.888   0.000  0.00  0.00    +0.268 A 
ATOM      6  O   UNL     1      -2.143  -3.712   0.000  0.00  0.00    -0.267 OA
ATOM      7  C   UNL     1      -1.429  -2.475   0.000  0.00  0.00    +0.097 A 
ATOM      8  C   UNL     1      -1.429  -1.650   0.000  0.00  0.00    +0.159 A 
ATOM      9  N   UNL     1      -0.715  -1.238   0.000  0.00  0.00    -0.109 NA
ENDROOT
BRANCH   1  10
ATOM     10  C   UNL     1      -2.143  -0.412   0.000  0.00  0.00    +0.144 C 
BRANCH  10  11
ATOM     11  C   UNL     1      -1.429   0.000   0.000  0.00  0.00    +0.167 C 
BRANCH  11  13
ATOM     12  C   UNL     1      -0.715   1.238   0.000  0.00  0.00    +0.174 C 
ATOM     13  O   UNL     1      -1.429   0.825   0.000  0.00  0.00    -0.349 OA
ENDBRANCH  11  13
ENDBRANCH  10  11
ENDBRANCH   1  10
BRANCH   4  14
ATOM     14  C   UNL     1      -3.572  -2.888   0.000  0.00  0.00    +0.200 C 
BRANCH  14  15
ATOM     15  C   UNL     1      -4.287  -2.475   0.000  0.00  0.00    +0.265 C 
ATOM     16  N   UNL     1      -5.001  -2.888   0.000  0.00  0.00    -0.206 NA
ATOM     17  O   UNL     1      -4.287  -1.650   0.000  0.00  0.00    -0.271 OA
BRANCH  16  18
ATOM     18  C   UNL     1      -5.001  -3.712   0.000  0.00  0.00    +0.095 C 
ATOM     19  C   UNL     1      -5.716  -4.125   0.000  0.00  0.00    +0.020 C 
ATOM     20  C   UNL     1      -6.430  -3.712   0.000  0.00  0.00    +0.002 C 
ATOM     21  C   UNL     1      -5.716  -4.950   0.000  0.00  0.00    +0.002 C 
ATOM     22  C   UNL     1      -6.430  -5.362   0.000  0.00  0.00    +0.000 C 
ATOM     23  C   UNL     1      -5.001  -5.362   0.000  0.00  0.00    +0.000 C 
ATOM     24  C   UNL     1      -4.287  -4.950   0.000  0.00  0.00    +0.002 C 
ATOM     25  C   UNL     1      -4.287  -4.125   0.000  0.00  0.00    +0.022 C 
ENDBRANCH  16  18
ENDBRANCH  14  15
ENDBRANCH   4  14
TORSDOF 6
