REMARK  Name = 
REMARK  4 active torsions:
REMARK  status: ('A' for Active; 'I' for Inactive)
REMARK    1  A    between atoms: C_2  and  C_3
REMARK    2  A    between atoms: C_3  and  N_4
REMARK    3  A    between atoms: C_7  and  C_8
REMARK    4  A    between atoms: N_11  and  C_12
REMARK                            x       y       z     vdW  Elec       q    Type
REMARK                         _______ _______ _______ _____ _____    ______ ____
ROOT
ATOM      1  O   UNL     1       3.431  -2.196   0.000  0.00  0.00    -0.271 OA
ATOM      2  C   UNL     1       2.716  -1.783   0.000  0.00  0.00    +0.266 C 
ATOM      3  N   UNL     1       2.716  -0.958   0.000  0.00  0.00    -0.206 NA
ENDROOT
BRANCH   3   4
ATOM      4  C   UNL     1       3.431  -0.546   0.000  0.00  0.00    +0.095 C 
ATOM      5  C   UNL     1       4.112  -1.011   0.000  0.00  0.00    +0.022 C 
ATOM      6  C   UNL     1       4.901  -0.767   0.000  0.00  0.00    +0.002 C 
ATOM      7  C   UNL     1       5.202   0.001   0.000  0.00  0.00    +0.000 C 
ATOM      8  C   UNL     1       4.790   0.715   0.000  0.00  0.00    +0.000 C 
ATOM      9  C   UNL     1       3.974   0.838   0.000  0.00  0.00    +0.002 C 
ATOM     10  C   UNL     1       3.369   0.277   0.000  0.00  0.00    +0.022 C 
ENDBRANCH   3   4
BRANCH   2  11
ATOM     11  C   UNL     1       2.002  -2.196   0.000  0.00  0.00    +0.215 C 
BRANCH  11  12
ATOM     12  N   UNL     1       2.002  -3.021   0.000  0.00  0.00    -0.220 N 
ATOM     13  N   UNL     1       1.334  -3.506   0.000  0.00  0.00    -0.137 NA
ATOM     14  C   UNL     1       1.589  -4.290   0.000  0.00  0.00    +0.252 A 
ATOM     15  N   UNL     1       2.414  -4.290   0.000  0.00  0.00    -0.195 NA
ATOM     16  C   UNL     1       2.669  -3.506   0.000  0.00  0.00    +0.198 A 
BRANCH  14  17
ATOM     17  C   UNL     1       1.104  -4.958   0.000  0.00  0.00    +0.142 C 
ATOM     18  N   UNL     1       0.620  -5.625   0.000  0.00  0.00    -0.188 NA
ENDBRANCH  14  17
ENDBRANCH  11  12
ENDBRANCH   2  11
TORSDOF 4
