REMARK  Name = 
REMARK  6 active torsions:
REMARK  status: ('A' for Active; 'I' for Inactive)
REMARK    1  A    between atoms: C_2  and  C_4
REMARK    2  A    between atoms: C_4  and  N_5
REMARK    3  A    between atoms: C_9  and  C_10
REMARK    4  A    between atoms: C_10  and  C_11
REMARK    5  A    between atoms: N_13  and  C_14
REMARK    6  A    between atoms: C_14  and  C_15
REMARK                            x       y       z     vdW  Elec       q    Type
REMARK                         _______ _______ _______ _____ _____    ______ ____
ROOT
ATOM      1  N   UNL     1      -0.633  -1.718   0.000  0.00  0.00    -0.256 N 
ATOM      2  C   UNL     1      -0.081  -2.331   0.000  0.00  0.00    +0.054 A 
ATOM      3  C   UNL     1      -0.253  -3.138   0.000  0.00  0.00    +0.051 C 
ATOM      4  C   UNL     1       0.672  -1.996   0.000  0.00  0.00    +0.015 A 
ATOM      5  C   UNL     1       0.586  -1.175   0.000  0.00  0.00    +0.077 A 
ATOM      6  C   UNL     1       1.199  -0.623   0.000  0.00  0.00    +0.054 C 
ATOM      7  N   UNL     1      -0.221  -1.004   0.000  0.00  0.00    -0.174 NA
ENDROOT
BRANCH   1   8
ATOM      8  C   UNL     1      -1.454  -1.804   0.000  0.00  0.00    +0.127 C 
BRANCH   8  10
ATOM      9  C   UNL     1      -2.759  -1.223   0.000  0.00  0.00    +0.002 C 
ATOM     10  C   UNL     1      -1.939  -1.137   0.000  0.00  0.00    +0.024 C 
ATOM     11  C   UNL     1      -1.603  -0.383   0.000  0.00  0.00    +0.002 C 
ENDBRANCH   8  10
ENDBRANCH   1   8
BRANCH   4  12
ATOM     12  C   UNL     1       1.387  -2.408   0.000  0.00  0.00    +0.115 C 
BRANCH  12  13
ATOM     13  C   UNL     1       2.102  -1.996   0.000  0.00  0.00    +0.246 C 
ATOM     14  N   UNL     1       2.816  -2.408   0.000  0.00  0.00    -0.203 NA
ATOM     15  O   UNL     1       2.102  -1.171   0.000  0.00  0.00    -0.273 OA
BRANCH  14  16
ATOM     16  C   UNL     1       3.530  -1.996   0.000  0.00  0.00    +0.145 C 
BRANCH  16  17
ATOM     17  C   UNL     1       4.245  -2.408   0.000  0.00  0.00    +0.137 C 
ATOM     18  O   UNL     1       4.331  -3.229   0.000  0.00  0.00    -0.354 OA
ATOM     19  C   UNL     1       5.138  -3.400   0.000  0.00  0.00    +0.142 C 
ATOM     20  C   UNL     1       5.551  -2.686   0.000  0.00  0.00    +0.035 C 
ATOM     21  C   UNL     1       4.999  -2.073   0.000  0.00  0.00    +0.034 C 
ENDBRANCH  16  17
ENDBRANCH  14  16
ENDBRANCH  12  13
ENDBRANCH   4  12
TORSDOF 6
