REMARK  Name = 
REMARK  5 active torsions:
REMARK  status: ('A' for Active; 'I' for Inactive)
REMARK    1  A    between atoms: C_2  and  N_3
REMARK    2  A    between atoms: C_5  and  N_6
REMARK    3  A    between atoms: N_9  and  C_10
REMARK    4  A    between atoms: C_10  and  C_12
REMARK    5  A    between atoms: N_14  and  C_15
REMARK                            x       y       z     vdW  Elec       q    Type
REMARK                         _______ _______ _______ _____ _____    ______ ____
ROOT
ATOM      1  N   UNL     1       2.449  -3.364   0.000  0.00  0.00    -0.158 NA
ATOM      2  C   UNL     1       3.163  -2.952   0.000  0.00  0.00    +0.344 C 
ATOM      3  N   UNL     1       3.878  -3.364   0.000  0.00  0.00    -0.179 NA
ATOM      4  O   UNL     1       3.163  -2.127   0.000  0.00  0.00    -0.249 OA
ENDROOT
BRANCH   1   8
ATOM      5  N   UNL     1       0.841  -1.960   0.000  0.00  0.00    -0.248 N 
ATOM      6  N   UNL     1       0.429  -2.674   0.000  0.00  0.00    -0.166 NA
ATOM      7  C   UNL     1       0.981  -3.287   0.000  0.00  0.00    +0.138 A 
ATOM      8  C   UNL     1       1.734  -2.952   0.000  0.00  0.00    +0.114 A 
ATOM      9  C   UNL     1       1.648  -2.131   0.000  0.00  0.00    +0.113 A 
BRANCH   5  11
ATOM     10  C   UNL     1      -0.315  -1.120   0.000  0.00  0.00    +0.028 C 
ATOM     11  C   UNL     1       0.506  -1.206   0.000  0.00  0.00    +0.128 C 
ENDBRANCH   5  11
ENDBRANCH   1   8
BRANCH   3  12
ATOM     12  C   UNL     1       4.592  -2.952   0.000  0.00  0.00    +0.174 C 
ATOM     13  C   UNL     1       4.592  -2.127   0.000  0.00  0.00    +0.033 C 
BRANCH  12  14
ATOM     14  C   UNL     1       5.307  -3.364   0.000  0.00  0.00    +0.261 C 
ATOM     15  N   UNL     1       6.021  -2.952   0.000  0.00  0.00    -0.206 NA
ATOM     16  O   UNL     1       5.307  -4.189   0.000  0.00  0.00    -0.271 OA
BRANCH  15  17
ATOM     17  C   UNL     1       6.736  -3.364   0.000  0.00  0.00    +0.095 C 
ATOM     18  C   UNL     1       6.822  -4.185   0.000  0.00  0.00    +0.022 C 
ATOM     19  C   UNL     1       7.629  -4.356   0.000  0.00  0.00    +0.002 C 
ATOM     20  C   UNL     1       8.041  -3.642   0.000  0.00  0.00    +0.002 C 
ATOM     21  C   UNL     1       7.489  -3.029   0.000  0.00  0.00    +0.022 C 
ENDBRANCH  15  17
ENDBRANCH  12  14
ENDBRANCH   3  12
TORSDOF 5
