REMARK  Name = 
REMARK  5 active torsions:
REMARK  status: ('A' for Active; 'I' for Inactive)
REMARK    1  A    between atoms: C_2  and  N_5
REMARK    2  A    between atoms: C_6  and  C_8
REMARK    3  A    between atoms: C_8  and  N_9
REMARK    4  A    between atoms: C_11  and  C_20
REMARK    5  A    between atoms: C_13  and  C_16
REMARK                            x       y       z     vdW  Elec       q    Type
REMARK                         _______ _______ _______ _____ _____    ______ ____
ROOT
ATOM      1  N   UNL     1      -0.412   4.014   0.000  0.00  0.00    -0.207 N 
ATOM      2  C   UNL     1      -1.127   4.427   0.000  0.00  0.00    +0.281 A 
ATOM      3  O   UNL     1      -1.127   5.252   0.000  0.00  0.00    -0.266 OA
ATOM      4  C   UNL     1      -1.841   4.014   0.000  0.00  0.00    +0.130 A 
ATOM      5  C   UNL     1      -1.841   3.189   0.000  0.00  0.00    +0.025 A 
ATOM      6  C   UNL     1      -1.127   2.777   0.000  0.00  0.00    +0.078 A 
ATOM      7  N   UNL     1      -0.412   3.189   0.000  0.00  0.00    -0.171 NA
ENDROOT
BRANCH   4   8
ATOM      8  C   UNL     1      -2.556   4.427   0.000  0.00  0.00    +0.423 C 
ATOM      9  F   UNL     1      -2.968   3.712   0.000  0.00  0.00    -0.166 F 
ATOM     10  F   UNL     1      -2.143   5.141   0.000  0.00  0.00    -0.166 F 
ATOM     11  F   UNL     1      -3.270   4.840   0.000  0.00  0.00    -0.166 F 
ENDBRANCH   4   8
BRANCH   6  12
ATOM     12  C   UNL     1      -1.127   1.952   0.000  0.00  0.00    +0.042 C 
ATOM     13  C   UNL     1      -1.540   1.238   0.000  0.00  0.00    +0.006 C 
ATOM     14  C   UNL     1      -0.715   1.238   0.000  0.00  0.00    +0.006 C 
ENDBRANCH   6  12
BRANCH   1  15
ATOM     15  C   UNL     1       0.302   4.427   0.000  0.00  0.00    +0.217 C 
BRANCH  15  17
ATOM     16  N   UNL     1       1.731   4.427   0.000  0.00  0.00    -0.207 NA
ATOM     17  C   UNL     1       1.016   4.014   0.000  0.00  0.00    +0.266 C 
ATOM     18  O   UNL     1       1.016   3.189   0.000  0.00  0.00    -0.271 OA
BRANCH  16  20
ATOM     19  C   UNL     1       3.160   3.602   0.000  0.00  0.00    +0.022 C 
ATOM     20  C   UNL     1       2.445   4.014   0.000  0.00  0.00    +0.079 C 
ATOM     21  C   UNL     1       2.033   3.300   0.000  0.00  0.00    +0.022 C 
ATOM     22  C   UNL     1       2.858   4.729   0.000  0.00  0.00    +0.022 C 
ENDBRANCH  16  20
ENDBRANCH  15  17
ENDBRANCH   1  15
TORSDOF 5
