REMARK  Name = 
REMARK  5 active torsions:
REMARK  status: ('A' for Active; 'I' for Inactive)
REMARK    1  A    between atoms: C_2  and  C_5
REMARK    2  A    between atoms: C_8  and  C_9
REMARK    3  A    between atoms: C_9  and  C_10
REMARK    4  A    between atoms: C_10  and  N_11
REMARK    5  A    between atoms: C_12  and  C_14
REMARK                            x       y       z     vdW  Elec       q    Type
REMARK                         _______ _______ _______ _____ _____    ______ ____
ROOT
ATOM      1  C   UNL     1      -2.247   2.755   0.000  0.00  0.00    +0.065 A 
ATOM      2  N   UNL     1      -1.695   2.142   0.000  0.00  0.00    -0.247 NA
ATOM      3  C   UNL     1      -0.941   2.478   0.000  0.00  0.00    +0.090 A 
ATOM      4  S   UNL     1      -1.028   3.298   0.000  0.00  0.00    -0.071 S 
ATOM      5  C   UNL     1      -1.835   3.470   0.000  0.00  0.00    +0.051 A 
ENDROOT
BRANCH   1   7
ATOM      6  C   UNL     1      -3.888   2.583   0.000  0.00  0.00    +0.006 C 
ATOM      7  C   UNL     1      -3.068   2.669   0.000  0.00  0.00    +0.036 C 
ATOM      8  C   UNL     1      -3.154   3.489   0.000  0.00  0.00    +0.006 C 
ATOM      9  C   UNL     1      -2.981   1.849   0.000  0.00  0.00    +0.006 C 
ENDBRANCH   1   7
BRANCH   3  10
ATOM     10  C   UNL     1      -0.227   2.065   0.000  0.00  0.00    +0.076 C 
BRANCH  10  11
ATOM     11  C   UNL     1       0.487   2.478   0.000  0.00  0.00    +0.122 C 
BRANCH  11  12
ATOM     12  N   UNL     1       1.202   2.065   0.000  0.00  0.00    -0.205 NA
ATOM     13  C   UNL     1       1.917   2.478   0.000  0.00  0.00    +0.241 C 
ATOM     14  O   UNL     1       1.917   3.303   0.000  0.00  0.00    -0.273 OA
BRANCH  13  15
ATOM     15  C   UNL     1       2.631   2.065   0.000  0.00  0.00    +0.078 C 
ATOM     16  C   UNL     1       3.043   1.351   0.000  0.00  0.00    +0.010 C 
ATOM     17  C   UNL     1       3.456   2.065   0.000  0.00  0.00    +0.010 C 
ENDBRANCH  13  15
ENDBRANCH  11  12
ENDBRANCH  10  11
ENDBRANCH   3  10
TORSDOF 5
