REMARK  Name = 
REMARK  7 active torsions:
REMARK  status: ('A' for Active; 'I' for Inactive)
REMARK    1  A    between atoms: N_2  and  C_10
REMARK    2  A    between atoms: C_5  and  N_11
REMARK    3  A    between atoms: C_10  and  C_12
REMARK    4  A    between atoms: N_11  and  C_16
REMARK    5  A    between atoms: C_12  and  C_20
REMARK    6  A    between atoms: C_14  and  C_15
REMARK    7  A    between atoms: C_14  and  C_16
REMARK                            x       y       z     vdW  Elec       q    Type
REMARK                         _______ _______ _______ _____ _____    ______ ____
ROOT
ATOM      1  C   UNL     1       2.562   0.825   0.000  0.00  0.00    +0.149 A 
ATOM      2  C   UNL     1       3.275   1.238   0.000  0.00  0.00    +0.154 A 
ATOM      3  N   UNL     1       3.992   0.825   0.000  0.00  0.00    -0.207 NA
ATOM      4  C   UNL     1       3.992   0.000   0.000  0.00  0.00    +0.201 A 
ATOM      5  N   UNL     1       3.275  -0.412   0.000  0.00  0.00    -0.205 NA
ATOM      6  N   UNL     1       1.779   1.083   0.000  0.00  0.00    -0.219 NA
ATOM      7  C   UNL     1       1.292   0.412   0.000  0.00  0.00    +0.180 A 
ATOM      8  N   UNL     1       1.779  -0.254   0.000  0.00  0.00    -0.294 N 
ATOM      9  C   UNL     1       2.562   0.000   0.000  0.00  0.00    +0.167 A 
ENDROOT
BRANCH   2  10
ATOM     10  N   UNL     1       3.275   2.062   0.000  0.00  0.00    -0.290 N 
ATOM     11  C   UNL     1       2.562   2.475   0.000  0.00  0.00    +0.114 C 
BRANCH  10  12
ATOM     12  C   UNL     1       3.992   2.475   0.000  0.00  0.00    +0.094 C 
BRANCH  12  13
ATOM     13  C   UNL     1       3.992   3.300   0.000  0.00  0.00    +0.037 C 
BRANCH  13  14
ATOM     14  C   UNL     1       4.704   3.712   0.000  0.00  0.00    +0.059 C 
ATOM     15  C   UNL     1       4.704   4.533   0.000  0.00  0.00    +0.016 C 
ATOM     16  C   UNL     1       5.421   4.950   0.000  0.00  0.00    +0.003 C 
ATOM     17  C   UNL     1       6.133   4.533   0.000  0.00  0.00    +0.017 C 
ATOM     18  C   UNL     1       6.133   3.712   0.000  0.00  0.00    +0.072 C 
ATOM     19  N   UNL     1       5.421   3.300   0.000  0.00  0.00    -0.273 NA
ATOM     20  C   UNL     1       5.421   2.475   0.000  0.00  0.00    +0.090 C 
ENDBRANCH  13  14
ENDBRANCH  12  13
ENDBRANCH  10  12
ENDBRANCH   2  10
BRANCH   8  21
ATOM     21  C   UNL     1       1.521  -1.038   0.000  0.00  0.00    +0.112 C 
BRANCH  21  22
ATOM     22  C   UNL     1       2.075  -1.650   0.000  0.00  0.00    +0.056 C 
ATOM     23  C   UNL     1       2.583  -1.000   0.000  0.00  0.00    +0.037 C 
ATOM     24  C   UNL     1       3.400  -1.117   0.000  0.00  0.00    +0.142 C 
ATOM     25  O   UNL     1       3.708  -1.879   0.000  0.00  0.00    -0.354 OA
ATOM     26  C   UNL     1       3.200  -2.529   0.000  0.00  0.00    +0.142 C 
ATOM     27  C   UNL     1       2.383  -2.417   0.000  0.00  0.00    +0.037 C 
BRANCH  22  28
ATOM     28  C   UNL     1       1.375  -2.087   0.000  0.00  0.00    +0.184 C 
ATOM     29  O   UNL     1       1.404  -2.913   0.000  0.00  0.00    -0.220 OA
ENDBRANCH  22  28
ENDBRANCH  21  22
ENDBRANCH   8  21
TORSDOF 7
