REMARK  Name = 
REMARK  2 active torsions:
REMARK  status: ('A' for Active; 'I' for Inactive)
REMARK    1  A    between atoms: N_5  and  C_6
REMARK    2  A    between atoms: C_6  and  C_7
REMARK                            x       y       z     vdW  Elec       q    Type
REMARK                         _______ _______ _______ _____ _____    ______ ____
ROOT
ATOM      1  C   UNL     1      -1.441   0.892   0.000  0.00  0.00    +0.052 C 
ATOM      2  C   UNL     1      -1.441   0.067   0.000  0.00  0.00    +0.062 A 
ATOM      3  C   UNL     1      -2.155  -0.345   0.000  0.00  0.00    +0.048 A 
ATOM      4  C   UNL     1      -2.870   0.067   0.000  0.00  0.00    +0.037 C 
ATOM      5  C   UNL     1      -2.155  -1.171   0.000  0.00  0.00    +0.259 A 
ATOM      6  O   UNL     1      -2.870  -1.583   0.000  0.00  0.00    -0.267 OA
ATOM      7  N   UNL     1      -1.441  -1.583   0.000  0.00  0.00    -0.276 N 
ATOM      8  C   UNL     1      -0.726  -1.171   0.000  0.00  0.00    +0.181 A 
ATOM      9  N   UNL     1      -0.726  -0.345   0.000  0.00  0.00    -0.230 NA
ENDROOT
BRANCH   7  10
ATOM     10  C   UNL     1      -1.441  -2.408   0.000  0.00  0.00    +0.141 C 
BRANCH  10  11
ATOM     11  C   UNL     1      -0.726  -2.821   0.000  0.00  0.00    +0.147 C 
ATOM     12  C   UNL     1      -0.196  -3.453   0.000  0.00  0.00    +0.032 C 
ATOM     13  C   UNL     1       0.617  -3.309   0.000  0.00  0.00    +0.003 C 
ATOM     14  C   UNL     1       0.899  -2.534   0.000  0.00  0.00    +0.000 C 
ATOM     15  C   UNL     1       0.368  -1.902   0.000  0.00  0.00    +0.003 C 
ATOM     16  C   UNL     1      -0.444  -2.045   0.000  0.00  0.00    +0.032 C 
ATOM     17  O   UNL     1      -1.257  -3.453   0.000  0.00  0.00    -0.224 OA
ENDBRANCH  10  11
ENDBRANCH   7  10
TORSDOF 2
