REMARK  Name = 
REMARK  5 active torsions:
REMARK  status: ('A' for Active; 'I' for Inactive)
REMARK    1  A    between atoms: C_2  and  C_3
REMARK    2  A    between atoms: C_3  and  N_4
REMARK    3  A    between atoms: C_3  and  C_16
REMARK    4  A    between atoms: C_5  and  C_7
REMARK    5  A    between atoms: C_7  and  C_8
REMARK                            x       y       z     vdW  Elec       q    Type
REMARK                         _______ _______ _______ _____ _____    ______ ____
ROOT
ATOM      1  N   UNL     1       1.238  -0.935   0.000  0.00  0.00    -0.207 NA
ATOM      2  C   UNL     1       1.650  -1.650   0.000  0.00  0.00    +0.246 C 
ATOM      3  O   UNL     1       1.238  -2.365   0.000  0.00  0.00    -0.273 OA
ENDROOT
BRANCH   1   4
ATOM      4  C   UNL     1       0.412  -0.935   0.000  0.00  0.00    +0.095 C 
BRANCH   4   5
ATOM      5  C   UNL     1       0.000  -0.221   0.000  0.00  0.00    +0.020 C 
ATOM      6  C   UNL     1       0.412   0.493   0.000  0.00  0.00    +0.002 C 
ATOM      7  C   UNL     1       0.000   1.208   0.000  0.00  0.00    +0.000 C 
ATOM      8  C   UNL     1      -0.825   1.208   0.000  0.00  0.00    +0.000 C 
ATOM      9  C   UNL     1      -1.238   0.493   0.000  0.00  0.00    +0.000 C 
ATOM     10  C   UNL     1      -0.825  -0.221   0.000  0.00  0.00    +0.002 C 
ENDBRANCH   4   5
BRANCH   4  12
ATOM     11  C   UNL     1      -0.825  -1.650   0.000  0.00  0.00    +0.002 C 
ATOM     12  C   UNL     1       0.000  -1.650   0.000  0.00  0.00    +0.022 C 
ENDBRANCH   4  12
ENDBRANCH   1   4
BRANCH   2  13
ATOM     13  C   UNL     1       2.475  -1.650   0.000  0.00  0.00    +0.115 C 
BRANCH  13  14
ATOM     14  C   UNL     1       2.888  -2.365   0.000  0.00  0.00    +0.015 A 
ATOM     15  C   UNL     1       2.552  -3.118   0.000  0.00  0.00    +0.054 A 
ATOM     16  C   UNL     1       1.745  -3.290   0.000  0.00  0.00    +0.051 C 
ATOM     17  N   UNL     1       3.165  -3.670   0.000  0.00  0.00    -0.253 N 
ATOM     18  C   UNL     1       3.079  -4.491   0.000  0.00  0.00    +0.153 C 
ATOM     19  N   UNL     1       3.880  -3.258   0.000  0.00  0.00    -0.174 NA
ATOM     20  C   UNL     1       3.708  -2.451   0.000  0.00  0.00    +0.077 A 
ATOM     21  C   UNL     1       4.260  -1.838   0.000  0.00  0.00    +0.054 C 
ENDBRANCH  13  14
ENDBRANCH   2  13
TORSDOF 5
