REMARK  Name = 
REMARK  5 active torsions:
REMARK  status: ('A' for Active; 'I' for Inactive)
REMARK    1  A    between atoms: C_2  and  C_3
REMARK    2  A    between atoms: C_2  and  N_16
REMARK    3  A    between atoms: N_5  and  C_6
REMARK    4  A    between atoms: N_9  and  C_10
REMARK    5  A    between atoms: C_10  and  C_11
REMARK                            x       y       z     vdW  Elec       q    Type
REMARK                         _______ _______ _______ _____ _____    ______ ____
ROOT
ATOM      1  C   UNL     1      -2.037  -1.299   0.000  0.00  0.00    +0.264 C 
ATOM      2  N   UNL     1      -2.037  -0.474   0.000  0.00  0.00    -0.205 NA
ATOM      3  O   UNL     1      -2.751  -1.712   0.000  0.00  0.00    -0.271 OA
ENDROOT
BRANCH   2   4
ATOM      4  C   UNL     1      -2.751  -0.062   0.000  0.00  0.00    +0.098 C 
ATOM      5  C   UNL     1      -2.751   0.763   0.000  0.00  0.00    +0.039 C 
ATOM      6  C   UNL     1      -3.466   1.176   0.000  0.00  0.00    +0.074 C 
ATOM      7  N   UNL     1      -4.180   0.763   0.000  0.00  0.00    -0.265 NA
ATOM      8  C   UNL     1      -4.180  -0.062   0.000  0.00  0.00    +0.074 C 
ATOM      9  C   UNL     1      -3.466  -0.474   0.000  0.00  0.00    +0.039 C 
BRANCH   7  10
ATOM     10  C   UNL     1      -4.895   1.176   0.000  0.00  0.00    +0.162 C 
BRANCH  10  11
ATOM     11  C   UNL     1      -4.895   2.001   0.000  0.00  0.00    +0.277 C 
ATOM     12  N   UNL     1      -4.180   2.413   0.000  0.00  0.00    -0.087 NA
ATOM     13  O   UNL     1      -5.609   2.413   0.000  0.00  0.00    -0.270 OA
ENDBRANCH  10  11
ENDBRANCH   7  10
ENDBRANCH   2   4
BRANCH   1  15
ATOM     14  C   UNL     1      -0.608  -1.299   0.000  0.00  0.00    +0.036 C 
ATOM     15  C   UNL     1      -1.322  -1.712   0.000  0.00  0.00    +0.183 C 
BRANCH  15  16
ATOM     16  N   UNL     1      -1.322  -2.537   0.000  0.00  0.00    -0.242 N 
ATOM     17  N   UNL     1      -1.990  -3.022   0.000  0.00  0.00    -0.167 NA
ATOM     18  C   UNL     1      -1.735  -3.806   0.000  0.00  0.00    +0.122 A 
ATOM     19  C   UNL     1      -0.910  -3.806   0.000  0.00  0.00    +0.043 A 
ATOM     20  C   UNL     1      -0.655  -3.022   0.000  0.00  0.00    +0.097 A 
ENDBRANCH  15  16
ENDBRANCH   1  15
TORSDOF 5
