REMARK  Name = 
REMARK  3 active torsions:
REMARK  status: ('A' for Active; 'I' for Inactive)
REMARK    1  A    between atoms: C_7  and  N_8
REMARK    2  A    between atoms: N_8  and  C_9
REMARK    3  A    between atoms: C_9  and  C_10
REMARK                            x       y       z     vdW  Elec       q    Type
REMARK                         _______ _______ _______ _____ _____    ______ ____
ROOT
ATOM      1  C   UNL     1       0.715  -0.412   0.000  0.00  0.00    +0.153 C 
ATOM      2  O   UNL     1       0.715  -1.238   0.000  0.00  0.00    -0.352 OA
ATOM      3  C   UNL     1       1.429  -1.650   0.000  0.00  0.00    +0.158 C 
ATOM      4  C   UNL     1       2.143  -1.238   0.000  0.00  0.00    +0.087 C 
ATOM      5  N   UNL     1       2.143  -0.412   0.000  0.00  0.00    -0.270 NA
ATOM      6  C   UNL     1       2.858   0.000   0.000  0.00  0.00    +0.072 C 
ATOM      7  C   UNL     1       3.572  -0.412   0.000  0.00  0.00    +0.017 C 
ATOM      8  C   UNL     1       3.572  -1.238   0.000  0.00  0.00    +0.003 C 
ATOM      9  C   UNL     1       2.858  -1.650   0.000  0.00  0.00    +0.019 C 
ATOM     10  C   UNL     1       1.429   0.000   0.000  0.00  0.00    +0.104 C 
ENDROOT
BRANCH   1  11
ATOM     11  C   UNL     1       0.000   0.000   0.000  0.00  0.00    +0.143 C 
BRANCH  11  12
ATOM     12  N   UNL     1      -0.715  -0.412   0.000  0.00  0.00    -0.234 NA
BRANCH  12  15
ATOM     13 CL   UNL     1      -2.143  -1.238   0.000  0.00  0.00    -0.079 Cl
ATOM     14  C   UNL     1      -2.143  -0.412   0.000  0.00  0.00    +0.092 A 
ATOM     15  C   UNL     1      -1.429   0.000   0.000  0.00  0.00    +0.079 A 
ATOM     16  C   UNL     1      -1.429   0.825   0.000  0.00  0.00    +0.038 A 
ATOM     17  C   UNL     1      -2.143   1.238   0.000  0.00  0.00    +0.100 A 
ATOM     18  N   UNL     1      -2.858   0.825   0.000  0.00  0.00    -0.241 NA
ATOM     19  C   UNL     1      -2.858   0.000   0.000  0.00  0.00    +0.112 A 
ENDBRANCH  12  15
ENDBRANCH  11  12
ENDBRANCH   1  11
TORSDOF 3
