REMARK  Name = 
REMARK  2 active torsions:
REMARK  status: ('A' for Active; 'I' for Inactive)
REMARK    1  A    between atoms: C_1  and  C_6
REMARK    2  A    between atoms: C_5  and  C_14
REMARK                            x       y       z     vdW  Elec       q    Type
REMARK                         _______ _______ _______ _____ _____    ______ ____
ROOT
ATOM      1  C   UNL     1      -0.250  -4.154   0.000  0.00  0.00    +0.178 A 
ATOM      2  N   UNL     1      -1.075  -4.154   0.000  0.00  0.00    -0.130 NA
ATOM      3  N   UNL     1      -1.329  -3.371   0.000  0.00  0.00    -0.132 NA
ATOM      4  C   UNL     1      -0.662  -2.888   0.000  0.00  0.00    +0.162 A 
ATOM      5  N   UNL     1       0.004  -3.371   0.000  0.00  0.00    -0.211 NA
ENDROOT
BRANCH   1   6
ATOM      6  C   UNL     1       0.233  -4.821   0.000  0.00  0.00    +0.135 C 
ATOM      7  C   UNL     1       1.058  -4.821   0.000  0.00  0.00    +0.060 C 
ATOM      8  C   UNL     1       1.312  -5.608   0.000  0.00  0.00    +0.171 C 
ATOM      9  C   UNL     1       0.646  -6.092   0.000  0.00  0.00    +0.122 C 
ATOM     10  O   UNL     1       2.100  -5.862   0.000  0.00  0.00    -0.222 OA
ATOM     11  N   UNL     1      -0.021  -5.608   0.000  0.00  0.00    -0.209 NA
ENDBRANCH   1   6
BRANCH   4  12
ATOM     12  C   UNL     1      -0.662  -2.062   0.000  0.00  0.00    +0.068 C 
ATOM     13  C   UNL     1      -1.379  -1.650   0.000  0.00  0.00    +0.008 C 
ENDBRANCH   4  12
TORSDOF 2
REMARK  Name = 
REMARK  2 active torsions:
REMARK  status: ('A' for Active; 'I' for Inactive)
REMARK    1  A    between atoms: C_1  and  C_6
REMARK    2  A    between atoms: C_5  and  C_14
REMARK                            x       y       z     vdW  Elec       q    Type
REMARK                         _______ _______ _______ _____ _____    ______ ____
ROOT
ATOM      1 CL   UNL     1       0.000   0.000   0.000  0.00  0.00    +0.000 Cl
ENDROOT
TORSDOF 0
REMARK  Name = 
REMARK  2 active torsions:
REMARK  status: ('A' for Active; 'I' for Inactive)
REMARK    1  A    between atoms: C_1  and  C_6
REMARK    2  A    between atoms: C_5  and  C_14
REMARK                            x       y       z     vdW  Elec       q    Type
REMARK                         _______ _______ _______ _____ _____    ______ ____
ROOT
ATOM      1 CL   UNL     1       2.000   0.000   0.000  0.00  0.00    +0.000 Cl
ENDROOT
TORSDOF 0
