REMARK  Name = 
REMARK  1 active torsions:
REMARK  status: ('A' for Active; 'I' for Inactive)
REMARK    1  A    between atoms: N_9  and  C_10
REMARK                            x       y       z     vdW  Elec       q    Type
REMARK                         _______ _______ _______ _____ _____    ______ ____
ROOT
ATOM      1  C   UNL     1      -2.225  -0.481   0.000  0.00  0.00    +0.061 C 
ATOM      2  C   UNL     1      -2.225  -1.306   0.000  0.00  0.00    +0.113 A 
ATOM      3  S   UNL     1      -2.893  -1.791   0.000  0.00  0.00    -0.033 S 
ATOM      4  C   UNL     1      -2.638  -2.576   0.000  0.00  0.00    +0.209 A 
ATOM      5  N   UNL     1      -3.123  -3.243   0.000  0.00  0.00    -0.134 NA
ATOM      6  C   UNL     1      -2.787  -3.997   0.000  0.00  0.00    +0.345 C 
ATOM      7  N   UNL     1      -3.272  -4.664   0.000  0.00  0.00    -0.188 NA
ATOM      8  O   UNL     1      -1.967  -4.083   0.000  0.00  0.00    -0.249 OA
ATOM      9  N   UNL     1      -1.813  -2.576   0.000  0.00  0.00    -0.124 NA
ATOM     10  N   UNL     1      -1.558  -1.791   0.000  0.00  0.00    -0.144 NA
ENDROOT
BRANCH   7  11
ATOM     11  C   UNL     1      -2.937  -5.418   0.000  0.00  0.00    +0.110 C 
ATOM     12  C   UNL     1      -2.765  -6.225   0.000  0.00  0.00    +0.162 C 
ATOM     13  O   UNL     1      -1.945  -6.311   0.000  0.00  0.00    -0.352 OA
ATOM     14  C   UNL     1      -1.609  -5.558   0.000  0.00  0.00    +0.144 C 
ATOM     15  C   UNL     1      -2.222  -5.006   0.000  0.00  0.00    +0.055 C 
ATOM     16  C   UNL     1      -3.721  -5.673   0.000  0.00  0.00    +0.024 C 
ENDBRANCH   7  11
TORSDOF 1
