REMARK  Name = 
REMARK  6 active torsions:
REMARK  status: ('A' for Active; 'I' for Inactive)
REMARK    1  A    between atoms: C_2  and  C_4
REMARK    2  A    between atoms: C_4  and  C_5
REMARK    3  A    between atoms: C_8  and  C_11
REMARK    4  A    between atoms: C_11  and  C_13
REMARK    5  A    between atoms: C_13  and  N_14
REMARK    6  A    between atoms: C_20  and  C_21
REMARK                            x       y       z     vdW  Elec       q    Type
REMARK                         _______ _______ _______ _____ _____    ______ ____
ROOT
ATOM      1  C   UNL     1       1.429  -4.950   0.000  0.00  0.00    +0.199 C 
ATOM      2  O   UNL     1       0.715  -5.362   0.000  0.00  0.00    -0.216 OA
ENDROOT
BRANCH   1   6
ATOM      3  C   UNL     1       1.429  -2.475   0.000  0.00  0.00    -0.022 A 
ATOM      4  C   UNL     1       0.715  -2.888   0.000  0.00  0.00    -0.005 A 
ATOM      5  C   UNL     1       0.715  -3.712   0.000  0.00  0.00    -0.002 A 
ATOM      6  C   UNL     1       1.429  -4.125   0.000  0.00  0.00    +0.010 A 
ATOM      7  C   UNL     1       2.143  -3.712   0.000  0.00  0.00    -0.002 A 
ATOM      8  C   UNL     1       2.143  -2.888   0.000  0.00  0.00    -0.005 A 
BRANCH   3   9
ATOM      9  C   UNL     1       1.429  -1.650   0.000  0.00  0.00    +0.026 C 
BRANCH   9  11
ATOM     10  C   UNL     1       0.715  -0.412   0.000  0.00  0.00    +0.000 C 
ATOM     11  C   UNL     1       0.715  -1.238   0.000  0.00  0.00    +0.004 C 
ATOM     12  C   UNL     1       0.000  -1.650   0.000  0.00  0.00    +0.000 C 
ENDBRANCH   9  11
ENDBRANCH   3   9
ENDBRANCH   1   6
BRANCH   1  13
ATOM     13  C   UNL     1       2.143  -5.362   0.000  0.00  0.00    +0.168 C 
BRANCH  13  14
ATOM     14  N   UNL     1       2.143  -6.188   0.000  0.00  0.00    -0.213 N 
ATOM     15  C   UNL     1       1.429  -6.600   0.000  0.00  0.00    +0.286 A 
ATOM     16  O   UNL     1       0.715  -6.188   0.000  0.00  0.00    -0.265 OA
ATOM     17  C   UNL     1       1.429  -7.425   0.000  0.00  0.00    +0.123 A 
ATOM     18  C   UNL     1       2.143  -7.838   0.000  0.00  0.00    +0.008 A 
ATOM     19  C   UNL     1       2.143  -8.662   0.000  0.00  0.00    +0.033 C 
ATOM     20  C   UNL     1       2.858  -7.425   0.000  0.00  0.00    +0.076 A 
ATOM     21  C   UNL     1       3.572  -7.838   0.000  0.00  0.00    +0.054 C 
ATOM     22  N   UNL     1       2.858  -6.600   0.000  0.00  0.00    -0.171 NA
BRANCH  17  23
ATOM     23  C   UNL     1       0.715  -7.838   0.000  0.00  0.00    +0.105 C 
ATOM     24  N   UNL     1       0.000  -8.250   0.000  0.00  0.00    -0.191 NA
ENDBRANCH  17  23
ENDBRANCH  13  14
ENDBRANCH   1  13
TORSDOF 6
