REMARK  Name = 
REMARK  1 active torsions:
REMARK  status: ('A' for Active; 'I' for Inactive)
REMARK    1  A    between atoms: N_11  and  C_12
REMARK                            x       y       z     vdW  Elec       q    Type
REMARK                         _______ _______ _______ _____ _____    ______ ____
ROOT
ATOM      1  C   UNL     1      -2.694   4.667   0.000  0.00  0.00    +0.031 C 
ATOM      2  C   UNL     1      -1.980   4.254   0.000  0.00  0.00    -0.018 A 
ATOM      3  C   UNL     1      -1.980   3.429   0.000  0.00  0.00    +0.032 A 
ATOM      4  C   UNL     1      -1.265   3.017   0.000  0.00  0.00    +0.155 A 
ATOM      5  N   UNL     1      -1.265   2.192   0.000  0.00  0.00    -0.142 NA
ATOM      6  C   UNL     1      -0.551   1.779   0.000  0.00  0.00    +0.345 C 
ATOM      7  N   UNL     1      -0.551   0.954   0.000  0.00  0.00    -0.186 NA
ATOM      8  O   UNL     1       0.164   2.192   0.000  0.00  0.00    -0.249 OA
ATOM      9  N   UNL     1      -0.551   3.429   0.000  0.00  0.00    -0.233 NA
ATOM     10  C   UNL     1      -0.551   4.254   0.000  0.00  0.00    +0.061 A 
ATOM     11  C   UNL     1       0.164   4.667   0.000  0.00  0.00    +0.052 C 
ATOM     12  C   UNL     1      -1.265   4.667   0.000  0.00  0.00    +0.011 A 
ENDROOT
BRANCH   7  13
ATOM     13  C   UNL     1       0.164   0.542   0.000  0.00  0.00    +0.126 C 
ATOM     14  C   UNL     1       0.878   0.954   0.000  0.00  0.00    +0.135 C 
ATOM     15  O   UNL     1       0.672   0.129   0.000  0.00  0.00    -0.357 OA
ATOM     16  C   UNL     1       0.878  -0.696   0.000  0.00  0.00    +0.117 C 
ATOM     17  C   UNL     1       1.593  -0.283   0.000  0.00  0.00    +0.032 C 
ATOM     18  C   UNL     1       1.593   0.542   0.000  0.00  0.00    +0.034 C 
ATOM     19  C   UNL     1       0.164  -0.283   0.000  0.00  0.00    +0.054 C 
ENDBRANCH   7  13
TORSDOF 1
