REMARK  Name = 
REMARK  3 active torsions:
REMARK  status: ('A' for Active; 'I' for Inactive)
REMARK    1  A    between atoms: C_7  and  N_10
REMARK    2  A    between atoms: N_10  and  C_11
REMARK    3  A    between atoms: C_15  and  N_16
REMARK                            x       y       z     vdW  Elec       q    Type
REMARK                         _______ _______ _______ _____ _____    ______ ____
ROOT
ATOM      1  N   UNL     1      -0.608   4.353   0.000  0.00  0.00    -0.219 NA
ENDROOT
BRANCH   1   7
ATOM      2  N   UNL     1       2.250   6.828   0.000  0.00  0.00    -0.069 NA
ATOM      3  C   UNL     1       2.250   6.003   0.000  0.00  0.00    +0.343 C 
ATOM      4  N   UNL     1       1.536   5.590   0.000  0.00  0.00    -0.261 N 
ATOM      5  C   UNL     1       0.821   6.003   0.000  0.00  0.00    +0.096 C 
ATOM      6  C   UNL     1       0.107   5.590   0.000  0.00  0.00    +0.039 C 
ATOM      7  C   UNL     1       0.107   4.765   0.000  0.00  0.00    +0.076 C 
ATOM      8  C   UNL     1       0.821   4.353   0.000  0.00  0.00    +0.039 C 
ATOM      9  C   UNL     1       1.536   4.765   0.000  0.00  0.00    +0.096 C 
ATOM     10  O   UNL     1       2.965   5.590   0.000  0.00  0.00    -0.249 OA
ENDBRANCH   1   7
BRANCH   1  11
ATOM     11  C   UNL     1      -0.608   3.528   0.000  0.00  0.00    +0.093 C 
ATOM     12  C   UNL     1      -1.275   3.043   0.000  0.00  0.00    +0.103 C 
ATOM     13  C   UNL     1      -1.020   2.258   0.000  0.00  0.00    +0.024 C 
ATOM     14  C   UNL     1      -0.195   2.258   0.000  0.00  0.00    +0.003 C 
ATOM     15  C   UNL     1       0.060   3.043   0.000  0.00  0.00    +0.019 C 
BRANCH  12  16
ATOM     16  N   UNL     1      -2.060   3.298   0.000  0.00  0.00    -0.308 N 
ATOM     17  C   UNL     1      -2.315   4.082   0.000  0.00  0.00    +0.179 A 
ATOM     18  N   UNL     1      -3.140   4.082   0.000  0.00  0.00    -0.222 NA
ATOM     19  C   UNL     1      -3.395   3.298   0.000  0.00  0.00    +0.119 A 
ATOM     20  C   UNL     1      -2.727   2.813   0.000  0.00  0.00    +0.098 A 
ENDBRANCH  12  16
ENDBRANCH   1  11
TORSDOF 3
