REMARK  Name = 
REMARK  5 active torsions:
REMARK  status: ('A' for Active; 'I' for Inactive)
REMARK    1  A    between atoms: C_2  and  C_4
REMARK    2  A    between atoms: N_7  and  C_8
REMARK    3  A    between atoms: C_8  and  C_9
REMARK    4  A    between atoms: C_9  and  O_10
REMARK    5  A    between atoms: O_10  and  C_11
REMARK                            x       y       z     vdW  Elec       q    Type
REMARK                         _______ _______ _______ _____ _____    ______ ____
ROOT
ATOM      1  C   UNL     1       1.033  -4.387   0.000  0.00  0.00    +0.232 C 
ENDROOT
BRANCH   1   2
ATOM      2  C   UNL     1       1.854  -4.474   0.000  0.00  0.00    +0.175 C 
BRANCH   2   5
ATOM      3  C   UNL     1       2.751  -2.537   0.000  0.00  0.00    +0.096 A 
ATOM      4  C   UNL     1       2.084  -3.022   0.000  0.00  0.00    +0.101 A 
ATOM      5  N   UNL     1       2.339  -3.806   0.000  0.00  0.00    -0.245 N 
ATOM      6  N   UNL     1       3.164  -3.806   0.000  0.00  0.00    -0.167 NA
ATOM      7  C   UNL     1       3.419  -3.022   0.000  0.00  0.00    +0.126 A 
BRANCH   3   9
ATOM      8  N   UNL     1       3.466  -1.299   0.000  0.00  0.00    -0.084 NA
ATOM      9  C   UNL     1       2.751  -1.712   0.000  0.00  0.00    +0.287 C 
ATOM     10  O   UNL     1       2.037  -1.299   0.000  0.00  0.00    -0.267 OA
ENDBRANCH   3   9
ENDBRANCH   2   5
ENDBRANCH   1   2
BRANCH   1  11
ATOM     11  O   UNL     1       0.548  -5.055   0.000  0.00  0.00    -0.472 OA
BRANCH  11  12
ATOM     12  C   UNL     1      -0.272  -4.969   0.000  0.00  0.00    +0.149 A 
ATOM     13  C   UNL     1      -0.608  -4.215   0.000  0.00  0.00    +0.094 A 
ATOM     14 CL   UNL     1      -0.123  -3.547   0.000  0.00  0.00    -0.079 Cl
ATOM     15  C   UNL     1      -1.428  -4.129   0.000  0.00  0.00    +0.044 A 
ATOM     16  C   UNL     1      -1.913  -4.796   0.000  0.00  0.00    +0.141 A 
ATOM     17  F   UNL     1      -2.734  -4.710   0.000  0.00  0.00    -0.204 F 
ATOM     18  C   UNL     1      -1.577  -5.550   0.000  0.00  0.00    +0.033 A 
ATOM     19  C   UNL     1      -0.757  -5.636   0.000  0.00  0.00    +0.040 A 
ENDBRANCH  11  12
ENDBRANCH   1  11
TORSDOF 5
