REMARK  Name = 
REMARK  6 active torsions:
REMARK  status: ('A' for Active; 'I' for Inactive)
REMARK    1  A    between atoms: C_2  and  N_3
REMARK    2  A    between atoms: N_3  and  C_4
REMARK    3  A    between atoms: N_3  and  S_6
REMARK    4  A    between atoms: S_6  and  N_9
REMARK    5  A    between atoms: N_9  and  C_10
REMARK    6  A    between atoms: C_10  and  C_11
REMARK                            x       y       z     vdW  Elec       q    Type
REMARK                         _______ _______ _______ _____ _____    ______ ____
ROOT
ATOM      1  C   UNL     1       4.316  -5.061   0.000  0.00  0.00    +0.016 A 
ATOM      2  C   UNL     1       4.729  -5.775   0.000  0.00  0.00    +0.097 A 
ATOM      3  N   UNL     1       5.554  -5.775   0.000  0.00  0.00    -0.229 NA
ATOM      4  C   UNL     1       5.966  -5.061   0.000  0.00  0.00    +0.132 A 
ATOM      5  N   UNL     1       6.791  -5.061   0.000  0.00  0.00    -0.288 N 
ATOM      6  C   UNL     1       7.204  -5.775   0.000  0.00  0.00    +0.124 C 
ATOM      7  C   UNL     1       8.029  -5.775   0.000  0.00  0.00    +0.164 C 
ATOM      8  O   UNL     1       8.441  -5.061   0.000  0.00  0.00    -0.350 OA
ATOM      9  C   UNL     1       8.029  -4.346   0.000  0.00  0.00    +0.164 C 
ATOM     10  C   UNL     1       7.204  -4.346   0.000  0.00  0.00    +0.124 C 
ATOM     11  C   UNL     1       5.554  -4.346   0.000  0.00  0.00    +0.034 A 
ATOM     12  C   UNL     1       4.729  -4.346   0.000  0.00  0.00    +0.002 A 
ENDROOT
BRANCH   1  13
ATOM     13  C   UNL     1       3.491  -5.061   0.000  0.00  0.00    +0.144 C 
BRANCH  13  14
ATOM     14  N   UNL     1       3.079  -5.775   0.000  0.00  0.00    -0.062 NA
BRANCH  14  15
ATOM     15  S   UNL     1       2.254  -5.775   0.000  0.00  0.00    +0.116 S 
ATOM     16  O   UNL     1       2.254  -4.950   0.000  0.00  0.00    -0.140 OA
ATOM     17  O   UNL     1       2.254  -6.600   0.000  0.00  0.00    -0.140 OA
BRANCH  15  18
ATOM     18  N   UNL     1       1.429  -5.775   0.000  0.00  0.00    -0.144 NA
BRANCH  18  19
ATOM     19  C   UNL     1       1.016  -5.061   0.000  0.00  0.00    +0.097 C 
ATOM     20  C   UNL     1       1.429  -4.346   0.000  0.00  0.00    +0.021 C 
ENDBRANCH  18  19
BRANCH  18  22
ATOM     21  C   UNL     1       0.191  -6.489   0.000  0.00  0.00    +0.021 C 
ATOM     22  C   UNL     1       1.016  -6.489   0.000  0.00  0.00    +0.097 C 
ENDBRANCH  18  22
ENDBRANCH  15  18
ENDBRANCH  14  15
ENDBRANCH  13  14
ENDBRANCH   1  13
TORSDOF 6
