REMARK  Name = 
REMARK  4 active torsions:
REMARK  status: ('A' for Active; 'I' for Inactive)
REMARK    1  A    between atoms: C_4  and  C_5
REMARK    2  A    between atoms: C_5  and  C_6
REMARK    3  A    between atoms: C_6  and  N_7
REMARK    4  A    between atoms: C_8  and  C_10
REMARK                            x       y       z     vdW  Elec       q    Type
REMARK                         _______ _______ _______ _____ _____    ______ ____
ROOT
ATOM      1  C   UNL     1      -1.421   0.974   0.000  0.00  0.00    +0.121 C 
ENDROOT
BRANCH   1   2
ATOM      2  N   UNL     1      -0.707   0.562   0.000  0.00  0.00    -0.205 NA
ATOM      3  C   UNL     1       0.008   0.974   0.000  0.00  0.00    +0.241 C 
ATOM      4  O   UNL     1       0.008   1.799   0.000  0.00  0.00    -0.273 OA
BRANCH   3   5
ATOM      5  C   UNL     1       0.722   0.562   0.000  0.00  0.00    +0.078 C 
ATOM      6  C   UNL     1       0.936  -0.235   0.000  0.00  0.00    +0.009 C 
ATOM      7  C   UNL     1       1.733  -0.021   0.000  0.00  0.00    +0.001 C 
ATOM      8  C   UNL     1       1.519   0.775   0.000  0.00  0.00    +0.009 C 
ENDBRANCH   3   5
ENDBRANCH   1   2
BRANCH   1   9
ATOM      9  C   UNL     1      -2.136   0.562   0.000  0.00  0.00    +0.070 C 
BRANCH   9  14
ATOM     10  C   UNL     1      -4.079   2.720   0.000  0.00  0.00    +0.059 C 
ATOM     11  C   UNL     1      -3.743   1.966   0.000  0.00  0.00    +0.088 A 
ATOM     12  S   UNL     1      -4.156   1.252   0.000  0.00  0.00    -0.071 S 
ATOM     13  C   UNL     1      -3.604   0.639   0.000  0.00  0.00    +0.051 A 
ATOM     14  C   UNL     1      -2.850   0.974   0.000  0.00  0.00    +0.067 A 
ATOM     15  N   UNL     1      -2.936   1.795   0.000  0.00  0.00    -0.247 NA
ENDBRANCH   9  14
ENDBRANCH   1   9
TORSDOF 4
