REMARK  Name = 
REMARK  5 active torsions:
REMARK  status: ('A' for Active; 'I' for Inactive)
REMARK    1  A    between atoms: O_2  and  C_3
REMARK    2  A    between atoms: C_8  and  N_9
REMARK    3  A    between atoms: N_12  and  C_13
REMARK    4  A    between atoms: N_16  and  C_17
REMARK    5  A    between atoms: C_17  and  C_18
REMARK                            x       y       z     vdW  Elec       q    Type
REMARK                         _______ _______ _______ _____ _____    ______ ____
ROOT
ATOM      1  N   UNL     1       1.429  -2.475   0.000  0.00  0.00    -0.156 NA
ATOM      2  C   UNL     1       1.429  -1.650   0.000  0.00  0.00    +0.344 C 
ATOM      3  N   UNL     1       0.715  -1.238   0.000  0.00  0.00    -0.189 NA
ATOM      4  O   UNL     1       2.143  -1.238   0.000  0.00  0.00    -0.249 OA
ENDROOT
BRANCH   1   6
ATOM      5  C   UNL     1       2.858  -2.475   0.000  0.00  0.00    +0.241 A 
ATOM      6  C   UNL     1       2.143  -2.888   0.000  0.00  0.00    +0.128 A 
ATOM      7  C   UNL     1       2.143  -3.712   0.000  0.00  0.00    +0.023 A 
ATOM      8  C   UNL     1       2.858  -4.125   0.000  0.00  0.00    +0.022 A 
ATOM      9  C   UNL     1       3.572  -3.712   0.000  0.00  0.00    +0.102 A 
ATOM     10  N   UNL     1       3.572  -2.888   0.000  0.00  0.00    -0.209 NA
BRANCH   5  12
ATOM     11  C   UNL     1       3.572  -1.238   0.000  0.00  0.00    +0.254 C 
ATOM     12  O   UNL     1       2.858  -1.650   0.000  0.00  0.00    -0.455 OA
ENDBRANCH   5  12
ENDBRANCH   1   6
BRANCH   3  13
ATOM     13  C   UNL     1       0.715  -0.412   0.000  0.00  0.00    +0.100 C 
ATOM     14  C   UNL     1       1.429   0.000   0.000  0.00  0.00    +0.039 C 
ATOM     15  C   UNL     1       1.429   0.825   0.000  0.00  0.00    +0.074 C 
ATOM     16  N   UNL     1       0.715   1.238   0.000  0.00  0.00    -0.265 NA
ATOM     17  C   UNL     1       0.000   0.825   0.000  0.00  0.00    +0.074 C 
ATOM     18  C   UNL     1       0.000   0.000   0.000  0.00  0.00    +0.039 C 
BRANCH  16  19
ATOM     19  C   UNL     1       0.715   2.062   0.000  0.00  0.00    +0.162 C 
BRANCH  19  20
ATOM     20  C   UNL     1       1.429   2.475   0.000  0.00  0.00    +0.277 C 
ATOM     21  N   UNL     1       2.143   2.062   0.000  0.00  0.00    -0.087 NA
ATOM     22  O   UNL     1       1.429   3.300   0.000  0.00  0.00    -0.270 OA
ENDBRANCH  19  20
ENDBRANCH  16  19
ENDBRANCH   3  13
TORSDOF 5
