REMARK  Name = 
REMARK  4 active torsions:
REMARK  status: ('A' for Active; 'I' for Inactive)
REMARK    1  A    between atoms: N_8  and  C_9
REMARK    2  A    between atoms: C_9  and  C_10
REMARK    3  A    between atoms: C_10  and  C_11
REMARK    4  A    between atoms: C_11  and  N_12
REMARK                            x       y       z     vdW  Elec       q    Type
REMARK                         _______ _______ _______ _____ _____    ______ ____
ROOT
ATOM      1  C   UNL     1      -0.514  -1.967   0.000  0.00  0.00    +0.075 C 
ATOM      2  C   UNL     1      -0.179  -2.720   0.000  0.00  0.00    +0.156 A 
ATOM      3  O   UNL     1      -0.591  -3.435   0.000  0.00  0.00    -0.356 OA
ATOM      4  N   UNL     1      -0.039  -4.048   0.000  0.00  0.00    -0.060 NA
ATOM      5  C   UNL     1       0.715  -3.712   0.000  0.00  0.00    +0.197 A 
ATOM      6  N   UNL     1       1.429  -4.125   0.000  0.00  0.00    -0.139 NA
ATOM      7  C   UNL     1       2.143  -3.712   0.000  0.00  0.00    +0.345 C 
ATOM      8  N   UNL     1       2.858  -4.125   0.000  0.00  0.00    -0.187 NA
ATOM      9  O   UNL     1       2.143  -2.888   0.000  0.00  0.00    -0.249 OA
ATOM     10  C   UNL     1       0.628  -2.892   0.000  0.00  0.00    +0.075 A 
ENDROOT
BRANCH   8  11
ATOM     11  C   UNL     1       3.572  -3.712   0.000  0.00  0.00    +0.118 C 
BRANCH  11  12
ATOM     12  C   UNL     1       4.287  -4.125   0.000  0.00  0.00    +0.041 C 
BRANCH  12  13
ATOM     13  C   UNL     1       5.001  -3.712   0.000  0.00  0.00    +0.074 C 
BRANCH  13  14
ATOM     14  N   UNL     1       5.716  -4.125   0.000  0.00  0.00    -0.273 NA
ATOM     15  C   UNL     1       5.716  -4.950   0.000  0.00  0.00    +0.072 C 
ATOM     16  C   UNL     1       6.430  -5.362   0.000  0.00  0.00    +0.017 C 
ATOM     17  C   UNL     1       7.145  -4.950   0.000  0.00  0.00    +0.003 C 
ATOM     18  C   UNL     1       7.145  -4.125   0.000  0.00  0.00    +0.017 C 
ATOM     19  C   UNL     1       6.430  -3.712   0.000  0.00  0.00    +0.072 C 
ENDBRANCH  13  14
ENDBRANCH  12  13
ENDBRANCH  11  12
ENDBRANCH   8  11
TORSDOF 4
