REMARK  Name = 
REMARK  5 active torsions:
REMARK  status: ('A' for Active; 'I' for Inactive)
REMARK    1  A    between atoms: C_2  and  O_3
REMARK    2  A    between atoms: O_3  and  C_4
REMARK    3  A    between atoms: C_4  and  C_6
REMARK    4  A    between atoms: N_8  and  C_9
REMARK    5  A    between atoms: C_12  and  N_13
REMARK                            x       y       z     vdW  Elec       q    Type
REMARK                         _______ _______ _______ _____ _____    ______ ____
ROOT
ATOM      1  C   UNL     1       5.716  -6.600   0.000  0.00  0.00    +0.092 A 
ATOM      2  C   UNL     1       5.716  -7.425   0.000  0.00  0.00    +0.017 A 
ATOM      3  C   UNL     1       6.430  -7.838   0.000  0.00  0.00    +0.011 A 
ATOM      4  C   UNL     1       6.430  -8.662   0.000  0.00  0.00    +0.034 C 
ATOM      5  C   UNL     1       7.145  -7.425   0.000  0.00  0.00    +0.128 A 
ATOM      6  N   UNL     1       7.145  -6.600   0.000  0.00  0.00    -0.228 NA
ATOM      7  C   UNL     1       6.430  -6.188   0.000  0.00  0.00    +0.117 A 
ENDROOT
BRANCH   5   8
ATOM      8  N   UNL     1       7.859  -7.838   0.000  0.00  0.00    -0.293 N 
ATOM      9  C   UNL     1       7.859  -8.662   0.000  0.00  0.00    +0.092 C 
ATOM     10  C   UNL     1       8.574  -9.075   0.000  0.00  0.00    +0.022 C 
ATOM     11  C   UNL     1       9.288  -8.662   0.000  0.00  0.00    +0.004 C 
ATOM     12  C   UNL     1       9.288  -7.838   0.000  0.00  0.00    +0.022 C 
ATOM     13  C   UNL     1       8.574  -7.425   0.000  0.00  0.00    +0.092 C 
ENDBRANCH   5   8
BRANCH   1  15
ATOM     14  C   UNL     1       4.287  -6.600   0.000  0.00  0.00    +0.273 C 
ATOM     15  N   UNL     1       5.001  -6.188   0.000  0.00  0.00    -0.176 NA
ATOM     16  O   UNL     1       4.287  -7.425   0.000  0.00  0.00    -0.270 OA
BRANCH  14  17
ATOM     17  C   UNL     1       3.572  -6.188   0.000  0.00  0.00    +0.193 C 
ATOM     18  C   UNL     1       3.572  -5.362   0.000  0.00  0.00    +0.042 C 
BRANCH  17  19
ATOM     19  O   UNL     1       2.858  -6.600   0.000  0.00  0.00    -0.347 OA
BRANCH  19  21
ATOM     20  C   UNL     1       1.429  -6.600   0.000  0.00  0.00    +0.035 C 
ATOM     21  C   UNL     1       2.143  -6.188   0.000  0.00  0.00    +0.143 C 
ENDBRANCH  19  21
ENDBRANCH  17  19
ENDBRANCH  14  17
ENDBRANCH   1  15
TORSDOF 5
