REMARK  Name = 
REMARK  4 active torsions:
REMARK  status: ('A' for Active; 'I' for Inactive)
REMARK    1  A    between atoms: C_2  and  C_5
REMARK    2  A    between atoms: C_5  and  N_6
REMARK    3  A    between atoms: C_7  and  C_9
REMARK    4  A    between atoms: C_14  and  N_15
REMARK                            x       y       z     vdW  Elec       q    Type
REMARK                         _______ _______ _______ _____ _____    ______ ____
ROOT
ATOM      1  C   UNL     1       0.715  -1.238   0.000  0.00  0.00    +0.087 A 
ATOM      2  C   UNL     1       0.000  -1.650   0.000  0.00  0.00    +0.136 A 
ATOM      3  N   UNL     1       0.000  -2.475   0.000  0.00  0.00    -0.229 NA
ATOM      4  C   UNL     1       0.715  -2.888   0.000  0.00  0.00    +0.100 A 
ATOM      5  C   UNL     1       1.429  -2.475   0.000  0.00  0.00    +0.021 A 
ATOM      6  C   UNL     1       1.429  -1.650   0.000  0.00  0.00    +0.009 A 
ENDROOT
BRANCH   2   7
ATOM      7  N   UNL     1      -0.715  -1.238   0.000  0.00  0.00    -0.288 N 
ATOM      8  C   UNL     1      -0.715  -0.412   0.000  0.00  0.00    +0.124 C 
ATOM      9  C   UNL     1      -1.429   0.000   0.000  0.00  0.00    +0.164 C 
ATOM     10  O   UNL     1      -2.143  -0.412   0.000  0.00  0.00    -0.350 OA
ATOM     11  C   UNL     1      -2.143  -1.238   0.000  0.00  0.00    +0.164 C 
ATOM     12  C   UNL     1      -1.429  -1.650   0.000  0.00  0.00    +0.124 C 
ENDBRANCH   2   7
BRANCH   1  14
ATOM     13  N   UNL     1       1.429   0.000   0.000  0.00  0.00    -0.192 NA
ATOM     14  C   UNL     1       0.715  -0.412   0.000  0.00  0.00    +0.268 C 
ATOM     15  O   UNL     1       0.000   0.000   0.000  0.00  0.00    -0.268 OA
BRANCH  13  16
ATOM     16  C   UNL     1       1.429   0.825   0.000  0.00  0.00    +0.218 C 
BRANCH  16  18
ATOM     17  F   UNL     1       2.858   1.650   0.000  0.00  0.00    -0.168 F 
ATOM     18  C   UNL     1       2.143   1.238   0.000  0.00  0.00    +0.417 C 
ATOM     19  F   UNL     1       2.556   0.523   0.000  0.00  0.00    -0.168 F 
ATOM     20  F   UNL     1       1.731   1.952   0.000  0.00  0.00    -0.168 F 
ENDBRANCH  16  18
ENDBRANCH  13  16
ENDBRANCH   1  14
TORSDOF 4
