REMARK  Name = 
REMARK  2 active torsions:
REMARK  status: ('A' for Active; 'I' for Inactive)
REMARK    1  A    between atoms: O_2  and  C_3
REMARK    2  A    between atoms: C_6  and  N_7
REMARK                            x       y       z     vdW  Elec       q    Type
REMARK                         _______ _______ _______ _____ _____    ______ ____
ROOT
ATOM      1  C   UNL     1       3.479  -1.705   0.000  0.00  0.00    +0.096 C 
ATOM      2  C   UNL     1       2.896  -2.288   0.000  0.00  0.00    +0.041 C 
ATOM      3  C   UNL     1       2.192  -1.857   0.000  0.00  0.00    +0.004 C 
ATOM      4  C   UNL     1       2.192  -2.720   0.000  0.00  0.00    +0.004 C 
ATOM      5  C   UNL     1       3.479  -2.872   0.000  0.00  0.00    +0.101 C 
ATOM      6  C   UNL     1       4.062  -2.288   0.000  0.00  0.00    +0.049 C 
ATOM      7  C   UNL     1       2.896  -1.122   0.000  0.00  0.00    +0.030 C 
ENDROOT
BRANCH   5   8
ATOM      8  N   UNL     1       3.479  -3.697   0.000  0.00  0.00    -0.188 NA
ATOM      9  C   UNL     1       2.765  -4.109   0.000  0.00  0.00    +0.345 C 
ATOM     10  N   UNL     1       2.765  -4.934   0.000  0.00  0.00    -0.136 NA
ATOM     11  C   UNL     1       2.050  -5.347   0.000  0.00  0.00    +0.187 A 
ATOM     12  S   UNL     1       1.296  -5.011   0.000  0.00  0.00    -0.049 S 
ATOM     13  C   UNL     1       0.744  -5.624   0.000  0.00  0.00    +0.059 A 
ATOM     14  C   UNL     1       1.157  -6.339   0.000  0.00  0.00    +0.108 A 
ATOM     15  N   UNL     1       1.964  -6.167   0.000  0.00  0.00    -0.221 NA
ATOM     16  O   UNL     1       2.050  -3.697   0.000  0.00  0.00    -0.249 OA
ENDBRANCH   5   8
BRANCH   1  18
ATOM     17  C   UNL     1       4.859  -1.335   0.000  0.00  0.00    +0.174 C 
ATOM     18  O   UNL     1       4.062  -1.122   0.000  0.00  0.00    -0.356 OA
ENDBRANCH   1  18
TORSDOF 2
