REMARK  Name = 
REMARK  5 active torsions:
REMARK  status: ('A' for Active; 'I' for Inactive)
REMARK    1  A    between atoms: C_2  and  N_3
REMARK    2  A    between atoms: C_2  and  C_14
REMARK    3  A    between atoms: N_3  and  C_4
REMARK    4  A    between atoms: C_4  and  C_6
REMARK    5  A    between atoms: C_14  and  N_16
REMARK                            x       y       z     vdW  Elec       q    Type
REMARK                         _______ _______ _______ _____ _____    ______ ____
ROOT
ATOM      1  N   UNL     1       2.143  -1.238   0.000  0.00  0.00    -0.210 NA
ENDROOT
BRANCH   1   3
ATOM      2  C   UNL     1       2.858  -2.475   0.000  0.00  0.00    +0.021 C 
ATOM      3  C   UNL     1       2.858  -1.650   0.000  0.00  0.00    +0.096 C 
BRANCH   3   4
ATOM      4  C   UNL     1       3.572  -1.238   0.000  0.00  0.00    +0.121 C 
ATOM      5  C   UNL     1       3.572  -0.412   0.000  0.00  0.00    +0.028 C 
BRANCH   4   6
ATOM      6  N   UNL     1       4.287  -1.650   0.000  0.00  0.00    -0.250 N 
ATOM      7  N   UNL     1       4.373  -2.470   0.000  0.00  0.00    -0.168 NA
ATOM      8  C   UNL     1       5.180  -2.642   0.000  0.00  0.00    +0.122 A 
ATOM      9  C   UNL     1       5.593  -1.927   0.000  0.00  0.00    +0.043 A 
ATOM     10  C   UNL     1       5.040  -1.314   0.000  0.00  0.00    +0.097 A 
ENDBRANCH   4   6
ENDBRANCH   3   4
ENDBRANCH   1   3
BRANCH   1  11
ATOM     11  C   UNL     1       1.429  -1.650   0.000  0.00  0.00    +0.149 C 
ATOM     12  C   UNL     1       1.429  -2.475   0.000  0.00  0.00    +0.029 C 
BRANCH  11  13
ATOM     13  C   UNL     1       0.715  -1.238   0.000  0.00  0.00    +0.242 C 
ATOM     14  N   UNL     1       0.000  -1.650   0.000  0.00  0.00    -0.273 N 
ATOM     15  C   UNL     1      -0.715  -1.238   0.000  0.00  0.00    +0.126 C 
ATOM     16  C   UNL     1      -1.429  -1.650   0.000  0.00  0.00    +0.164 C 
ATOM     17  O   UNL     1      -1.429  -2.475   0.000  0.00  0.00    -0.350 OA
ATOM     18  C   UNL     1      -0.715  -2.888   0.000  0.00  0.00    +0.164 C 
ATOM     19  C   UNL     1       0.000  -2.475   0.000  0.00  0.00    +0.126 C 
ATOM     20  O   UNL     1       0.715  -0.412   0.000  0.00  0.00    -0.273 OA
ENDBRANCH  11  13
ENDBRANCH   1  11
TORSDOF 5
