REMARK  Name = 
REMARK  2 active torsions:
REMARK  status: ('A' for Active; 'I' for Inactive)
REMARK    1  A    between atoms: C_6  and  C_7
REMARK    2  A    between atoms: C_7  and  C_8
REMARK                            x       y       z     vdW  Elec       q    Type
REMARK                         _______ _______ _______ _____ _____    ______ ____
ROOT
ATOM      1  C   UNL     1       0.715   2.062   0.000  0.00  0.00    +0.074 C 
ATOM      2  C   UNL     1       0.715   1.238   0.000  0.00  0.00    +0.142 A 
ATOM      3  N   UNL     1       0.000   0.825   0.000  0.00  0.00    -0.193 NA
ATOM      4  C   UNL     1       0.000   0.000   0.000  0.00  0.00    +0.278 A 
ATOM      5  O   UNL     1      -0.715  -0.412   0.000  0.00  0.00    -0.265 OA
ATOM      6  C   UNL     1       0.715  -0.412   0.000  0.00  0.00    +0.061 A 
ATOM      7  C   UNL     1       1.429   0.000   0.000  0.00  0.00    +0.062 A 
ATOM      8  C   UNL     1       2.143  -0.412   0.000  0.00  0.00    +0.052 C 
ATOM      9  N   UNL     1       1.429   0.825   0.000  0.00  0.00    -0.235 NA
ENDROOT
BRANCH   6  10
ATOM     10  C   UNL     1       0.715  -1.238   0.000  0.00  0.00    +0.146 C 
BRANCH  10  11
ATOM     11  C   UNL     1       0.000  -1.650   0.000  0.00  0.00    +0.369 C 
ATOM     12  O   UNL     1      -0.715  -1.238   0.000  0.00  0.00    -0.245 OA
ATOM     13  O   UNL     1       0.000  -2.475   0.000  0.00  0.00    -0.245 OA
ENDBRANCH  10  11
ENDBRANCH   6  10
TORSDOF 2
