REMARK  Name = 
REMARK  6 active torsions:
REMARK  status: ('A' for Active; 'I' for Inactive)
REMARK    1  A    between atoms: C_2  and  C_3
REMARK    2  A    between atoms: C_2  and  C_6
REMARK    3  A    between atoms: C_3  and  C_4
REMARK    4  A    between atoms: C_6  and  N_7
REMARK    5  A    between atoms: C_8  and  C_10
REMARK    6  A    between atoms: C_10  and  N_11
REMARK                            x       y       z     vdW  Elec       q    Type
REMARK                         _______ _______ _______ _____ _____    ______ ____
ROOT
ATOM      1  N   UNL     1       7.083  -3.908   0.000  0.00  0.00    -0.204 NA
ATOM      2  C   UNL     1       7.798  -4.321   0.000  0.00  0.00    +0.266 C 
ATOM      3  O   UNL     1       7.798  -5.146   0.000  0.00  0.00    -0.271 OA
ENDROOT
BRANCH   1   4
ATOM      4  C   UNL     1       6.369  -4.321   0.000  0.00  0.00    +0.115 C 
BRANCH   4   6
ATOM      5  C   UNL     1       5.654  -3.083   0.000  0.00  0.00    +0.002 C 
ATOM      6  C   UNL     1       5.654  -3.908   0.000  0.00  0.00    +0.024 C 
BRANCH   6   7
ATOM      7  C   UNL     1       4.940  -4.321   0.000  0.00  0.00    +0.037 C 
BRANCH   7   8
ATOM      8  C   UNL     1       4.225  -3.908   0.000  0.00  0.00    +0.182 C 
ATOM      9  O   UNL     1       3.511  -4.321   0.000  0.00  0.00    -0.220 OA
ENDBRANCH   7   8
ENDBRANCH   6   7
ENDBRANCH   4   6
ENDBRANCH   1   4
BRANCH   2  10
ATOM     10  C   UNL     1       8.512  -3.908   0.000  0.00  0.00    +0.213 C 
BRANCH  10  11
ATOM     11  N   UNL     1       9.227  -4.321   0.000  0.00  0.00    -0.245 N 
ATOM     12  C   UNL     1       9.313  -5.141   0.000  0.00  0.00    +0.068 A 
ATOM     13  C   UNL     1       8.700  -5.693   0.000  0.00  0.00    +0.053 C 
ATOM     14  C   UNL     1      10.120  -5.312   0.000  0.00  0.00    +0.086 A 
ATOM     15 CL   UNL     1      10.455  -6.066   0.000  0.00  0.00    -0.080 Cl
ATOM     16  C   UNL     1      10.532  -4.598   0.000  0.00  0.00    +0.091 A 
ATOM     17  C   UNL     1      11.353  -4.512   0.000  0.00  0.00    +0.055 C 
ATOM     18  N   UNL     1       9.980  -3.985   0.000  0.00  0.00    -0.173 NA
ENDBRANCH  10  11
ENDBRANCH   2  10
TORSDOF 6
