REMARK  Name = 
REMARK  5 active torsions:
REMARK  status: ('A' for Active; 'I' for Inactive)
REMARK    1  A    between atoms: C_2  and  C_3
REMARK    2  A    between atoms: C_6  and  N_7
REMARK    3  A    between atoms: N_7  and  C_8
REMARK    4  A    between atoms: C_15  and  C_16
REMARK    5  A    between atoms: C_18  and  C_19
REMARK                            x       y       z     vdW  Elec       q    Type
REMARK                         _______ _______ _______ _____ _____    ______ ____
ROOT
ATOM      1  C   UNL     1      -0.551   3.429   0.000  0.00  0.00    +0.077 A 
ATOM      2  C   UNL     1      -1.265   3.017   0.000  0.00  0.00    +0.006 A 
ATOM      3  C   UNL     1      -1.265   2.192   0.000  0.00  0.00    +0.100 A 
ATOM      4  C   UNL     1      -0.551   1.779   0.000  0.00  0.00    +0.179 A 
ATOM      5  N   UNL     1       0.164   2.192   0.000  0.00  0.00    -0.131 NA
ATOM      6  N   UNL     1       0.164   3.017   0.000  0.00  0.00    -0.151 NA
ENDROOT
BRANCH   1   8
ATOM      7  C   UNL     1      -1.265   4.667   0.000  0.00  0.00    +0.007 C 
ATOM      8  C   UNL     1      -0.551   4.254   0.000  0.00  0.00    +0.047 C 
ENDBRANCH   1   8
BRANCH   2   9
ATOM      9  C   UNL     1      -1.980   3.429   0.000  0.00  0.00    +0.028 C 
ATOM     10  C   UNL     1      -1.980   4.254   0.000  0.00  0.00    +0.005 C 
ENDBRANCH   2   9
BRANCH   3  11
ATOM     11  C   UNL     1      -1.980   1.779   0.000  0.00  0.00    +0.103 C 
ATOM     12  N   UNL     1      -2.694   1.367   0.000  0.00  0.00    -0.191 NA
ENDBRANCH   3  11
BRANCH   4  13
ATOM     13  N   UNL     1      -0.551   0.954   0.000  0.00  0.00    -0.218 NA
BRANCH  13  14
ATOM     14  C   UNL     1       0.164   0.542   0.000  0.00  0.00    +0.124 C 
ATOM     15  C   UNL     1       0.878   0.954   0.000  0.00  0.00    +0.135 C 
ATOM     16  O   UNL     1       0.672   0.129   0.000  0.00  0.00    -0.357 OA
ATOM     17  C   UNL     1       0.878  -0.696   0.000  0.00  0.00    +0.117 C 
ATOM     18  C   UNL     1       1.593  -0.283   0.000  0.00  0.00    +0.032 C 
ATOM     19  C   UNL     1       1.593   0.542   0.000  0.00  0.00    +0.034 C 
ATOM     20  C   UNL     1       0.164  -0.283   0.000  0.00  0.00    +0.054 C 
ENDBRANCH  13  14
ENDBRANCH   4  13
TORSDOF 5
