REMARK  Name = 
REMARK  2 active torsions:
REMARK  status: ('A' for Active; 'I' for Inactive)
REMARK    1  A    between atoms: N_2  and  C_9
REMARK    2  A    between atoms: C_8  and  C_9
REMARK                            x       y       z     vdW  Elec       q    Type
REMARK                         _______ _______ _______ _____ _____    ______ ____
ROOT
ATOM      1  C   UNL     1       3.742   1.842   0.000  0.00  0.00    +0.149 A 
ATOM      2  C   UNL     1       2.917   1.842   0.000  0.00  0.00    +0.154 A 
ATOM      3  N   UNL     1       2.504   2.558   0.000  0.00  0.00    -0.207 NA
ATOM      4  C   UNL     1       2.917   3.271   0.000  0.00  0.00    +0.201 A 
ATOM      5  N   UNL     1       3.742   3.271   0.000  0.00  0.00    -0.205 NA
ATOM      6  N   UNL     1       2.504   1.129   0.000  0.00  0.00    -0.287 N 
ATOM      7  C   UNL     1       2.917   0.412   0.000  0.00  0.00    +0.124 C 
ATOM      8  C   UNL     1       2.504  -0.300   0.000  0.00  0.00    +0.163 C 
ATOM      9  O   UNL     1       1.679  -0.300   0.000  0.00  0.00    -0.352 OA
ATOM     10  C   UNL     1       1.267   0.412   0.000  0.00  0.00    +0.141 C 
ATOM     11  C   UNL     1       0.783   1.083   0.000  0.00  0.00    +0.171 C 
ATOM     12  O   UNL     1       0.000   0.825   0.000  0.00  0.00    -0.351 OA
ATOM     13  C   UNL     1       0.000   0.000   0.000  0.00  0.00    +0.145 C 
ATOM     14  C   UNL     1       0.783  -0.254   0.000  0.00  0.00    +0.063 C 
ATOM     15  C   UNL     1       1.679   1.129   0.000  0.00  0.00    +0.122 C 
ATOM     16  N   UNL     1       4.296   1.229   0.000  0.00  0.00    -0.219 NA
ATOM     17  C   UNL     1       5.050   1.567   0.000  0.00  0.00    +0.180 A 
ATOM     18  N   UNL     1       4.963   2.388   0.000  0.00  0.00    -0.292 N 
ATOM     19  C   UNL     1       4.154   2.558   0.000  0.00  0.00    +0.167 A 
ENDROOT
BRANCH  18  20
ATOM     20  C   UNL     1       5.575   2.938   0.000  0.00  0.00    +0.142 C 
BRANCH  20  21
ATOM     21  C   UNL     1       6.358   2.683   0.000  0.00  0.00    +0.174 C 
ATOM     22  O   UNL     1       5.733   2.146   0.000  0.00  0.00    -0.221 OA
ATOM     23  C   UNL     1       6.967   2.125   0.000  0.00  0.00    +0.067 C 
ATOM     24  C   UNL     1       7.688   2.529   0.000  0.00  0.00    +0.145 C 
ATOM     25  O   UNL     1       7.521   3.337   0.000  0.00  0.00    -0.354 OA
ATOM     26  C   UNL     1       6.704   3.433   0.000  0.00  0.00    +0.145 C 
ATOM     27  C   UNL     1       6.300   4.150   0.000  0.00  0.00    +0.035 C 
ENDBRANCH  20  21
ENDBRANCH  18  20
TORSDOF 2
