REMARK  Name = 
REMARK  5 active torsions:
REMARK  status: ('A' for Active; 'I' for Inactive)
REMARK    1  A    between atoms: N_5  and  C_6
REMARK    2  A    between atoms: C_6  and  C_7
REMARK    3  A    between atoms: C_7  and  C_9
REMARK    4  A    between atoms: C_9  and  O_10
REMARK    5  A    between atoms: O_10  and  C_11
REMARK                            x       y       z     vdW  Elec       q    Type
REMARK                         _______ _______ _______ _____ _____    ______ ____
ROOT
ATOM      1  C   UNL     1      -0.126  -3.030   0.000  0.00  0.00    +0.147 C 
ENDROOT
BRANCH   1   9
ATOM      2  C   UNL     1      -2.069  -0.872   0.000  0.00  0.00    +0.135 C 
ATOM      3  N   UNL     1      -1.733  -1.625   0.000  0.00  0.00    -0.278 N 
ATOM      4  C   UNL     1      -2.146  -2.340   0.000  0.00  0.00    +0.080 A 
ATOM      5  C   UNL     1      -1.594  -2.953   0.000  0.00  0.00    +0.080 A 
ATOM      6  C   UNL     1      -1.849  -3.737   0.000  0.00  0.00    +0.019 A 
ATOM      7  C   UNL     1      -2.656  -3.909   0.000  0.00  0.00    +0.002 A 
ATOM      8  C   UNL     1      -3.208  -3.296   0.000  0.00  0.00    +0.002 A 
ATOM      9  N   UNL     1      -0.840  -2.617   0.000  0.00  0.00    -0.277 N 
ATOM     10  C   UNL     1      -2.953  -2.511   0.000  0.00  0.00    +0.019 A 
ATOM     11  C   UNL     1      -0.926  -1.797   0.000  0.00  0.00    +0.332 A 
ATOM     12  O   UNL     1      -0.313  -1.245   0.000  0.00  0.00    -0.246 OA
ENDBRANCH   1   9
BRANCH   1  13
ATOM     13  C   UNL     1       0.589  -2.617   0.000  0.00  0.00    +0.218 C 
ATOM     14  O   UNL     1       0.589  -1.792   0.000  0.00  0.00    -0.217 OA
BRANCH  13  15
ATOM     15  C   UNL     1       1.303  -3.030   0.000  0.00  0.00    +0.240 C 
BRANCH  15  16
ATOM     16  O   UNL     1       2.018  -2.617   0.000  0.00  0.00    -0.473 OA
BRANCH  16  17
ATOM     17  C   UNL     1       2.732  -3.030   0.000  0.00  0.00    +0.139 A 
ATOM     18  C   UNL     1       2.732  -3.855   0.000  0.00  0.00    +0.039 A 
ATOM     19  C   UNL     1       3.447  -4.267   0.000  0.00  0.00    +0.033 A 
ATOM     20  C   UNL     1       4.161  -3.855   0.000  0.00  0.00    +0.140 A 
ATOM     21  F   UNL     1       4.876  -4.267   0.000  0.00  0.00    -0.204 F 
ATOM     22  C   UNL     1       4.161  -3.030   0.000  0.00  0.00    +0.033 A 
ATOM     23  C   UNL     1       3.447  -2.617   0.000  0.00  0.00    +0.039 A 
ENDBRANCH  16  17
ENDBRANCH  15  16
ENDBRANCH  13  15
ENDBRANCH   1  13
TORSDOF 5
