REMARK  Name = 
REMARK  5 active torsions:
REMARK  status: ('A' for Active; 'I' for Inactive)
REMARK    1  A    between atoms: C_2  and  N_4
REMARK    2  A    between atoms: N_3  and  C_10
REMARK    3  A    between atoms: C_13  and  C_21
REMARK    4  A    between atoms: C_14  and  C_22
REMARK    5  A    between atoms: C_14  and  C_23
REMARK                            x       y       z     vdW  Elec       q    Type
REMARK                         _______ _______ _______ _____ _____    ______ ____
ROOT
ATOM      1  C   UNL     1       2.567   0.826   0.000  0.00  0.00    +0.149 A 
ATOM      2  N   UNL     1       1.782   1.085   0.000  0.00  0.00    -0.219 NA
ATOM      3  C   UNL     1       1.294   0.413   0.000  0.00  0.00    +0.180 A 
ATOM      4  N   UNL     1       1.782  -0.255   0.000  0.00  0.00    -0.296 N 
ATOM      5  C   UNL     1       2.567   0.000   0.000  0.00  0.00    +0.167 A 
ATOM      6  N   UNL     1       3.280  -0.413   0.000  0.00  0.00    -0.205 NA
ATOM      7  C   UNL     1       3.998   0.000   0.000  0.00  0.00    +0.201 A 
ATOM      8  N   UNL     1       3.998   0.826   0.000  0.00  0.00    -0.207 NA
ATOM      9  C   UNL     1       3.280   1.240   0.000  0.00  0.00    +0.154 A 
ENDROOT
BRANCH   9  10
ATOM     10  N   UNL     1       3.280   2.066   0.000  0.00  0.00    -0.295 N 
ATOM     11  C   UNL     1       2.454   2.275   0.000  0.00  0.00    +0.077 C 
ATOM     12  C   UNL     1       2.867   2.988   0.000  0.00  0.00    +0.022 C 
ATOM     13  C   UNL     1       3.694   2.988   0.000  0.00  0.00    +0.021 C 
ATOM     14  C   UNL     1       2.867   1.561   0.000  0.00  0.00    +0.053 C 
ATOM     15  C   UNL     1       3.694   1.561   0.000  0.00  0.00    +0.024 C 
ATOM     16  C   UNL     1       4.107   2.275   0.000  0.00  0.00    +0.074 C 
BRANCH  14  17
ATOM     17  C   UNL     1       2.179   0.768   0.000  0.00  0.00    +0.184 C 
ATOM     18  O   UNL     1       3.088   0.276   0.000  0.00  0.00    -0.220 OA
ENDBRANCH  14  17
ENDBRANCH   9  10
BRANCH   4  19
ATOM     19  C   UNL     1       1.523  -1.039   0.000  0.00  0.00    +0.089 C 
ATOM     20  C   UNL     1       0.789  -1.415   0.000  0.00  0.00    +0.028 C 
ATOM     21  C   UNL     1       1.164  -2.149   0.000  0.00  0.00    +0.065 C 
ATOM     22  C   UNL     1       1.899  -1.774   0.000  0.00  0.00    +0.028 C 
BRANCH  21  23
ATOM     23  C   UNL     1       1.486  -2.972   0.000  0.00  0.00    +0.185 C 
ATOM     24  O   UNL     1       1.357  -3.811   0.000  0.00  0.00    -0.220 OA
ENDBRANCH  21  23
BRANCH  21  25
ATOM     25  C   UNL     1       0.300  -2.433   0.000  0.00  0.00    +0.185 C 
ATOM     26  O   UNL     1      -0.538  -2.245   0.000  0.00  0.00    -0.220 OA
ENDBRANCH  21  25
ENDBRANCH   4  19
TORSDOF 5
