REMARK  Name = 
REMARK  2 active torsions:
REMARK  status: ('A' for Active; 'I' for Inactive)
REMARK    1  A    between atoms: N_10  and  C_11
REMARK    2  A    between atoms: C_16  and  C_17
REMARK                            x       y       z     vdW  Elec       q    Type
REMARK                         _______ _______ _______ _____ _____    ______ ____
ROOT
ATOM      1  C   UNL     1       1.322  -1.712   0.000  0.00  0.00    +0.157 C 
ATOM      2  N   UNL     1       1.322  -2.537   0.000  0.00  0.00    -0.217 N 
ATOM      3  C   UNL     1       0.655  -3.022   0.000  0.00  0.00    +0.243 A 
ATOM      4  N   UNL     1      -0.130  -2.767   0.000  0.00  0.00    -0.125 NA
ATOM      5  C   UNL     1      -0.301  -1.960   0.000  0.00  0.00    +0.346 C 
ATOM      6  N   UNL     1       0.312  -1.408   0.000  0.00  0.00    -0.189 NA
ATOM      7  O   UNL     1      -1.086  -1.705   0.000  0.00  0.00    -0.249 OA
ATOM      8  N   UNL     1       0.910  -3.806   0.000  0.00  0.00    -0.189 NA
ATOM      9  C   UNL     1       1.735  -3.806   0.000  0.00  0.00    +0.222 A 
ATOM     10  N   UNL     1       1.990  -3.022   0.000  0.00  0.00    -0.144 NA
ENDROOT
BRANCH   6  11
ATOM     11  C   UNL     1       0.140  -0.601   0.000  0.00  0.00    +0.099 C 
ATOM     12  C   UNL     1       0.753  -0.049   0.000  0.00  0.00    +0.053 C 
ATOM     13  C   UNL     1       0.582   0.758   0.000  0.00  0.00    +0.004 C 
ATOM     14  C   UNL     1      -0.203   1.013   0.000  0.00  0.00    +0.000 C 
ATOM     15  C   UNL     1      -0.816   0.461   0.000  0.00  0.00    +0.002 C 
ATOM     16  C   UNL     1      -0.644  -0.346   0.000  0.00  0.00    +0.022 C 
BRANCH  12  17
ATOM     17  C   UNL     1       1.538  -0.303   0.000  0.00  0.00    +0.184 C 
ATOM     18  O   UNL     1       1.710  -1.111   0.000  0.00  0.00    -0.220 OA
ENDBRANCH  12  17
ENDBRANCH   6  11
TORSDOF 2
