REMARK  Name = 
REMARK  2 active torsions:
REMARK  status: ('A' for Active; 'I' for Inactive)
REMARK    1  A    between atoms: C_1  and  C_2
REMARK    2  A    between atoms: C_1  and  N_7
REMARK                            x       y       z     vdW  Elec       q    Type
REMARK                         _______ _______ _______ _____ _____    ______ ____
ROOT
ATOM      1  C   UNL     1       2.533   0.170   0.000  0.00  0.00    +0.145 C 
ENDROOT
BRANCH   1   2
ATOM      2  N   UNL     1       3.248   0.582   0.000  0.00  0.00    -0.248 N 
ATOM      3  N   UNL     1       4.001   0.247   0.000  0.00  0.00    -0.168 NA
ATOM      4  C   UNL     1       4.553   0.860   0.000  0.00  0.00    +0.122 A 
ATOM      5  C   UNL     1       4.141   1.574   0.000  0.00  0.00    +0.043 A 
ATOM      6  C   UNL     1       3.334   1.403   0.000  0.00  0.00    +0.097 A 
ENDBRANCH   1   2
BRANCH   1   7
ATOM      7  C   UNL     1       2.533  -0.655   0.000  0.00  0.00    +0.097 C 
ATOM      8  N   UNL     1       1.865  -1.140   0.000  0.00  0.00    -0.217 NA
ATOM      9  C   UNL     1       2.120  -1.925   0.000  0.00  0.00    +0.089 C 
ATOM     10  C   UNL     1       2.946  -1.925   0.000  0.00  0.00    +0.020 C 
ATOM     11  C   UNL     1       3.200  -1.140   0.000  0.00  0.00    +0.021 C 
ENDBRANCH   1   7
TORSDOF 2
