REMARK  Name = 
REMARK  6 active torsions:
REMARK  status: ('A' for Active; 'I' for Inactive)
REMARK    1  A    between atoms: C_2  and  C_4
REMARK    2  A    between atoms: C_7  and  O_8
REMARK    3  A    between atoms: O_8  and  C_9
REMARK    4  A    between atoms: C_9  and  C_10
REMARK    5  A    between atoms: C_10  and  C_12
REMARK    6  A    between atoms: C_12  and  N_13
REMARK                            x       y       z     vdW  Elec       q    Type
REMARK                         _______ _______ _______ _____ _____    ______ ____
ROOT
ATOM      1  C   UNL     1       4.923  -0.410   0.000  0.00  0.00    +0.218 C 
ATOM      2  O   UNL     1       4.923   0.415   0.000  0.00  0.00    -0.217 OA
ENDROOT
BRANCH   1   3
ATOM      3  C   UNL     1       5.637  -0.822   0.000  0.00  0.00    +0.144 C 
BRANCH   3   4
ATOM      4  N   UNL     1       6.351  -0.410   0.000  0.00  0.00    -0.312 N 
ATOM      5  C   UNL     1       7.105  -0.745   0.000  0.00  0.00    +0.079 A 
ATOM      6  C   UNL     1       7.657  -0.132   0.000  0.00  0.00    +0.098 A 
ATOM      7  C   UNL     1       8.464  -0.304   0.000  0.00  0.00    +0.021 A 
ATOM      8  C   UNL     1       8.719  -1.088   0.000  0.00  0.00    +0.002 A 
ATOM      9  C   UNL     1       8.167  -1.701   0.000  0.00  0.00    +0.002 A 
ATOM     10  N   UNL     1       7.245   0.582   0.000  0.00  0.00    -0.231 NA
ATOM     11  C   UNL     1       7.360  -1.530   0.000  0.00  0.00    +0.019 A 
ATOM     12  C   UNL     1       6.438   0.411   0.000  0.00  0.00    +0.121 A 
ATOM     13  C   UNL     1       5.825   0.963   0.000  0.00  0.00    +0.072 C 
ENDBRANCH   3   4
ENDBRANCH   1   3
BRANCH   1  14
ATOM     14  C   UNL     1       4.208  -0.822   0.000  0.00  0.00    +0.240 C 
BRANCH  14  15
ATOM     15  O   UNL     1       3.494  -0.410   0.000  0.00  0.00    -0.473 OA
BRANCH  15  19
ATOM     16  C   UNL     1       1.350  -1.647   0.000  0.00  0.00    +0.035 A 
ATOM     17  C   UNL     1       2.065  -2.060   0.000  0.00  0.00    +0.006 A 
ATOM     18  C   UNL     1       2.779  -1.647   0.000  0.00  0.00    +0.037 A 
ATOM     19  C   UNL     1       2.779  -0.822   0.000  0.00  0.00    +0.139 A 
ATOM     20  C   UNL     1       2.065  -0.410   0.000  0.00  0.00    +0.037 A 
ATOM     21  C   UNL     1       1.350  -0.822   0.000  0.00  0.00    +0.006 A 
BRANCH  16  23
ATOM     22  C   UNL     1       0.636  -2.885   0.000  0.00  0.00    +0.077 C 
ATOM     23  C   UNL     1       0.636  -2.060   0.000  0.00  0.00    +0.173 C 
ATOM     24  O   UNL     1      -0.079  -1.647   0.000  0.00  0.00    -0.291 OA
ENDBRANCH  16  23
ENDBRANCH  15  19
ENDBRANCH  14  15
ENDBRANCH   1  14
TORSDOF 6
