REMARK  Name = 
REMARK  4 active torsions:
REMARK  status: ('A' for Active; 'I' for Inactive)
REMARK    1  A    between atoms: C_11  and  C_12
REMARK    2  A    between atoms: C_12  and  N_13
REMARK    3  A    between atoms: N_16  and  C_17
REMARK    4  A    between atoms: C_17  and  C_18
REMARK                            x       y       z     vdW  Elec       q    Type
REMARK                         _______ _______ _______ _____ _____    ______ ____
ROOT
ATOM      1  C   UNL     1      -4.287   1.650   0.000  0.00  0.00    +0.034 C 
ATOM      2  C   UNL     1      -3.572   1.238   0.000  0.00  0.00    +0.135 C 
ATOM      3  O   UNL     1      -3.572   0.412   0.000  0.00  0.00    -0.353 OA
ATOM      4  C   UNL     1      -2.858   0.000   0.000  0.00  0.00    +0.163 C 
ATOM      5  C   UNL     1      -2.143   0.412   0.000  0.00  0.00    +0.124 C 
ATOM      6  N   UNL     1      -2.143   1.238   0.000  0.00  0.00    -0.288 N 
ATOM      7  C   UNL     1      -1.429   1.650   0.000  0.00  0.00    +0.132 A 
ATOM      8  N   UNL     1      -0.715   1.238   0.000  0.00  0.00    -0.229 NA
ATOM      9  C   UNL     1       0.000   1.650   0.000  0.00  0.00    +0.098 A 
ATOM     10  C   UNL     1       0.000   2.475   0.000  0.00  0.00    +0.019 A 
ATOM     11  C   UNL     1      -0.715   2.888   0.000  0.00  0.00    +0.002 A 
ATOM     12  C   UNL     1      -1.429   2.475   0.000  0.00  0.00    +0.034 A 
ATOM     13  C   UNL     1      -2.858   1.650   0.000  0.00  0.00    +0.122 C 
ENDROOT
BRANCH  10  14
ATOM     14  C   UNL     1       0.715   2.888   0.000  0.00  0.00    +0.145 C 
BRANCH  14  15
ATOM     15  N   UNL     1       1.429   2.475   0.000  0.00  0.00    -0.182 NA
ATOM     16  C   UNL     1       2.143   2.888   0.000  0.00  0.00    +0.340 C 
ATOM     17  N   UNL     1       2.858   2.475   0.000  0.00  0.00    -0.184 NA
ATOM     18  O   UNL     1       2.143   3.712   0.000  0.00  0.00    -0.249 OA
BRANCH  17  19
ATOM     19  C   UNL     1       3.572   2.888   0.000  0.00  0.00    +0.152 C 
BRANCH  19  20
ATOM     20  C   UNL     1       4.287   2.475   0.000  0.00  0.00    +0.205 C 
ATOM     21  O   UNL     1       5.001   2.888   0.000  0.00  0.00    -0.218 OA
ENDBRANCH  19  20
ENDBRANCH  17  19
ENDBRANCH  14  15
ENDBRANCH  10  14
TORSDOF 4
