REMARK  Name = 
REMARK  3 active torsions:
REMARK  status: ('A' for Active; 'I' for Inactive)
REMARK    1  A    between atoms: O_2  and  C_3
REMARK    2  A    between atoms: C_8  and  N_9
REMARK    3  A    between atoms: N_12  and  C_13
REMARK                            x       y       z     vdW  Elec       q    Type
REMARK                         _______ _______ _______ _____ _____    ______ ____
ROOT
ATOM      1  N   UNL     1       1.429  -2.475   0.000  0.00  0.00    -0.139 NA
ATOM      2  C   UNL     1       1.429  -1.650   0.000  0.00  0.00    +0.345 C 
ATOM      3  N   UNL     1       0.715  -1.238   0.000  0.00  0.00    -0.186 NA
ATOM      4  O   UNL     1       2.143  -1.238   0.000  0.00  0.00    -0.249 OA
ENDROOT
BRANCH   1   6
ATOM      5  C   UNL     1       2.858  -2.475   0.000  0.00  0.00    +0.172 A 
ATOM      6  C   UNL     1       2.143  -2.888   0.000  0.00  0.00    +0.190 A 
ATOM      7  N   UNL     1       2.143  -3.712   0.000  0.00  0.00    -0.225 NA
ATOM      8  C   UNL     1       2.858  -4.125   0.000  0.00  0.00    +0.101 A 
ATOM      9  C   UNL     1       3.572  -3.712   0.000  0.00  0.00    +0.024 A 
ATOM     10  C   UNL     1       3.572  -2.888   0.000  0.00  0.00    +0.041 A 
BRANCH   5  12
ATOM     11  C   UNL     1       3.572  -1.238   0.000  0.00  0.00    +0.253 C 
ATOM     12  O   UNL     1       2.858  -1.650   0.000  0.00  0.00    -0.469 OA
ENDBRANCH   5  12
ENDBRANCH   1   6
BRANCH   3  13
ATOM     13  C   UNL     1       0.715  -0.412   0.000  0.00  0.00    +0.127 C 
ATOM     14  C   UNL     1       1.429   0.000   0.000  0.00  0.00    +0.164 C 
ATOM     15  O   UNL     1       1.429   0.825   0.000  0.00  0.00    -0.352 OA
ATOM     16  C   UNL     1       0.715   1.238   0.000  0.00  0.00    +0.142 C 
ATOM     17  C   UNL     1       0.000   0.825   0.000  0.00  0.00    +0.034 C 
ATOM     18  C   UNL     1       0.000   0.000   0.000  0.00  0.00    +0.027 C 
ENDBRANCH   3  13
TORSDOF 3
