REMARK  Name = 
REMARK  4 active torsions:
REMARK  status: ('A' for Active; 'I' for Inactive)
REMARK    1  A    between atoms: C_2  and  C_5
REMARK    2  A    between atoms: N_9  and  C_10
REMARK    3  A    between atoms: C_10  and  C_11
REMARK    4  A    between atoms: N_13  and  C_14
REMARK                            x       y       z     vdW  Elec       q    Type
REMARK                         _______ _______ _______ _____ _____    ______ ____
ROOT
ATOM      1  C   UNL     1       3.454  -3.251   0.000  0.00  0.00    +0.217 C 
ENDROOT
BRANCH   1   3
ATOM      2  C   UNL     1       2.002  -3.021   0.000  0.00  0.00    +0.161 A 
ATOM      3  N   UNL     1       2.669  -3.506   0.000  0.00  0.00    -0.208 N 
ATOM      4  N   UNL     1       2.414  -4.290   0.000  0.00  0.00    -0.043 NA
ATOM      5  N   UNL     1       1.589  -4.290   0.000  0.00  0.00    -0.023 NA
ATOM      6  N   UNL     1       1.334  -3.506   0.000  0.00  0.00    -0.113 NA
BRANCH   2   8
ATOM      7  C   UNL     1       2.002  -1.371   0.000  0.00  0.00    +0.008 C 
ATOM      8  C   UNL     1       2.002  -2.196   0.000  0.00  0.00    +0.054 C 
ATOM      9  C   UNL     1       2.827  -2.196   0.000  0.00  0.00    +0.008 C 
ATOM     10  C   UNL     1       1.177  -2.196   0.000  0.00  0.00    +0.008 C 
ENDBRANCH   2   8
ENDBRANCH   1   3
BRANCH   1  11
ATOM     11  C   UNL     1       4.067  -3.803   0.000  0.00  0.00    +0.266 C 
ATOM     12  N   UNL     1       4.852  -3.548   0.000  0.00  0.00    -0.206 NA
ATOM     13  O   UNL     1       3.896  -4.610   0.000  0.00  0.00    -0.271 OA
BRANCH  12  14
ATOM     14  C   UNL     1       5.465  -4.100   0.000  0.00  0.00    +0.095 C 
ATOM     15  C   UNL     1       5.233  -4.892   0.000  0.00  0.00    +0.022 C 
ATOM     16  C   UNL     1       5.708  -5.566   0.000  0.00  0.00    +0.002 C 
ATOM     17  C   UNL     1       6.532  -5.616   0.000  0.00  0.00    +0.000 C 
ATOM     18  C   UNL     1       7.084  -5.003   0.000  0.00  0.00    +0.000 C 
ATOM     19  C   UNL     1       6.949  -4.189   0.000  0.00  0.00    +0.002 C 
ATOM     20  C   UNL     1       6.228  -3.787   0.000  0.00  0.00    +0.022 C 
ENDBRANCH  12  14
ENDBRANCH   1  11
TORSDOF 4
