REMARK  Name = 
REMARK  5 active torsions:
REMARK  status: ('A' for Active; 'I' for Inactive)
REMARK    1  A    between atoms: C_2  and  C_4
REMARK    2  A    between atoms: C_4  and  N_5
REMARK    3  A    between atoms: C_6  and  C_8
REMARK    4  A    between atoms: C_8  and  C_9
REMARK    5  A    between atoms: C_9  and  C_10
REMARK                            x       y       z     vdW  Elec       q    Type
REMARK                         _______ _______ _______ _____ _____    ______ ____
ROOT
ATOM      1  C   UNL     1       5.716  -6.600   0.000  0.00  0.00    +0.050 A 
ATOM      2  C   UNL     1       5.716  -7.425   0.000  0.00  0.00    +0.279 A 
ATOM      3  O   UNL     1       5.001  -7.838   0.000  0.00  0.00    -0.265 OA
ATOM      4  N   UNL     1       6.430  -7.838   0.000  0.00  0.00    -0.175 NA
ATOM      5  C   UNL     1       7.145  -7.425   0.000  0.00  0.00    +0.223 A 
ATOM      6  N   UNL     1       7.859  -7.838   0.000  0.00  0.00    -0.273 N 
ATOM      7  C   UNL     1       7.859  -8.662   0.000  0.00  0.00    +0.126 C 
ATOM      8  C   UNL     1       8.574  -9.075   0.000  0.00  0.00    +0.164 C 
ATOM      9  O   UNL     1       9.288  -8.662   0.000  0.00  0.00    -0.350 OA
ATOM     10  C   UNL     1       9.288  -7.838   0.000  0.00  0.00    +0.164 C 
ATOM     11  C   UNL     1       8.574  -7.425   0.000  0.00  0.00    +0.126 C 
ATOM     12  N   UNL     1       7.145  -6.600   0.000  0.00  0.00    -0.218 NA
ATOM     13  C   UNL     1       6.430  -6.188   0.000  0.00  0.00    +0.063 A 
ATOM     14  C   UNL     1       6.430  -5.362   0.000  0.00  0.00    +0.052 C 
ENDROOT
BRANCH   1  15
ATOM     15  C   UNL     1       5.001  -6.188   0.000  0.00  0.00    +0.042 C 
BRANCH  15  16
ATOM     16  C   UNL     1       4.287  -6.600   0.000  0.00  0.00    +0.092 C 
BRANCH  16  18
ATOM     17  N   UNL     1       2.858  -6.600   0.000  0.00  0.00    -0.205 NA
ATOM     18  C   UNL     1       3.572  -6.188   0.000  0.00  0.00    +0.242 C 
ATOM     19  O   UNL     1       3.572  -5.362   0.000  0.00  0.00    -0.273 OA
BRANCH  17  20
ATOM     20  C   UNL     1       2.143  -6.188   0.000  0.00  0.00    +0.115 C 
BRANCH  20  22
ATOM     21  C   UNL     1       0.715  -6.188   0.000  0.00  0.00    +0.002 C 
ATOM     22  C   UNL     1       1.429  -6.600   0.000  0.00  0.00    +0.022 C 
ATOM     23  C   UNL     1       1.429  -7.425   0.000  0.00  0.00    +0.002 C 
ENDBRANCH  20  22
ENDBRANCH  17  20
ENDBRANCH  16  18
ENDBRANCH  15  16
ENDBRANCH   1  15
TORSDOF 5
