REMARK  Name = 
REMARK  6 active torsions:
REMARK  status: ('A' for Active; 'I' for Inactive)
REMARK    1  A    between atoms: C_4  and  C_5
REMARK    2  A    between atoms: C_5  and  C_6
REMARK    3  A    between atoms: C_6  and  C_8
REMARK    4  A    between atoms: N_10  and  C_11
REMARK    5  A    between atoms: C_11  and  C_13
REMARK    6  A    between atoms: C_13  and  N_14
REMARK                            x       y       z     vdW  Elec       q    Type
REMARK                         _______ _______ _______ _____ _____    ______ ____
ROOT
ATOM      1 CL   UNL     1       0.000   0.000   0.000  0.00  0.00    +0.000 Cl
ENDROOT
TORSDOF 0
REMARK  Name = 
REMARK  6 active torsions:
REMARK  status: ('A' for Active; 'I' for Inactive)
REMARK    1  A    between atoms: C_4  and  C_5
REMARK    2  A    between atoms: C_5  and  C_6
REMARK    3  A    between atoms: C_6  and  C_8
REMARK    4  A    between atoms: N_10  and  C_11
REMARK    5  A    between atoms: C_11  and  C_13
REMARK    6  A    between atoms: C_13  and  N_14
REMARK                            x       y       z     vdW  Elec       q    Type
REMARK                         _______ _______ _______ _____ _____    ______ ____
ROOT
ATOM      1 CL   UNL     1       2.004   0.000   0.000  0.00  0.00    +0.000 Cl
ENDROOT
TORSDOF 0
REMARK  Name = 
REMARK  6 active torsions:
REMARK  status: ('A' for Active; 'I' for Inactive)
REMARK    1  A    between atoms: C_4  and  C_5
REMARK    2  A    between atoms: C_5  and  C_6
REMARK    3  A    between atoms: C_6  and  C_8
REMARK    4  A    between atoms: N_10  and  C_11
REMARK    5  A    between atoms: C_11  and  C_13
REMARK    6  A    between atoms: C_13  and  N_14
REMARK                            x       y       z     vdW  Elec       q    Type
REMARK                         _______ _______ _______ _____ _____    ______ ____
ROOT
ATOM      1  C   UNL     1      -0.949  -2.888   0.000  0.00  0.00    +0.259 C 
ATOM      2  N   UNL     1      -0.235  -2.475   0.000  0.00  0.00    -0.204 NA
ATOM      3  O   UNL     1      -0.949  -3.712   0.000  0.00  0.00    -0.272 OA
ENDROOT
BRANCH   1   4
ATOM      4  C   UNL     1      -1.663  -2.475   0.000  0.00  0.00    +0.169 C 
ATOM      5  N   UNL     1      -1.663  -1.650   0.000  0.00  0.00    -0.123 NA
BRANCH   4   6
ATOM      6  C   UNL     1      -2.378  -2.888   0.000  0.00  0.00    +0.028 C 
BRANCH   6   8
ATOM      7  C   UNL     1      -3.807  -2.888   0.000  0.00  0.00    +0.000 C 
ATOM      8  C   UNL     1      -3.092  -2.475   0.000  0.00  0.00    +0.002 C 
ENDBRANCH   6   8
ENDBRANCH   4   6
ENDBRANCH   1   4
BRANCH   2   9
ATOM      9  C   UNL     1       0.480  -2.888   0.000  0.00  0.00    +0.120 C 
ATOM     10  C   UNL     1       0.480  -3.712   0.000  0.00  0.00    +0.026 C 
BRANCH   9  11
ATOM     11  C   UNL     1       1.194  -2.475   0.000  0.00  0.00    +0.149 C 
BRANCH  11  12
ATOM     12  N   UNL     1       1.909  -2.888   0.000  0.00  0.00    -0.248 N 
ATOM     13  N   UNL     1       1.995  -3.708   0.000  0.00  0.00    -0.168 NA
ATOM     14  C   UNL     1       2.802  -3.880   0.000  0.00  0.00    +0.122 A 
ATOM     15  C   UNL     1       3.215  -3.165   0.000  0.00  0.00    +0.043 A 
ATOM     16  C   UNL     1       2.663  -2.552   0.000  0.00  0.00    +0.097 A 
ENDBRANCH  11  12
ENDBRANCH   9  11
ENDBRANCH   2   9
TORSDOF 6
