REMARK  Name = 
REMARK  4 active torsions:
REMARK  status: ('A' for Active; 'I' for Inactive)
REMARK    1  A    between atoms: C_2  and  C_3
REMARK    2  A    between atoms: C_3  and  N_4
REMARK    3  A    between atoms: N_10  and  C_11
REMARK    4  A    between atoms: C_11  and  C_12
REMARK                            x       y       z     vdW  Elec       q    Type
REMARK                         _______ _______ _______ _____ _____    ______ ____
ROOT
ATOM      1  O   UNL     1       1.847  -0.386   0.000  0.00  0.00    -0.271 OA
ATOM      2  C   UNL     1       1.847  -1.211   0.000  0.00  0.00    +0.266 C 
ATOM      3  N   UNL     1       2.561  -1.624   0.000  0.00  0.00    -0.204 NA
ENDROOT
BRANCH   3   4
ATOM      4  C   UNL     1       3.276  -1.211   0.000  0.00  0.00    +0.115 C 
BRANCH   4   5
ATOM      5  C   UNL     1       3.990  -1.624   0.000  0.00  0.00    +0.022 C 
ATOM      6  C   UNL     1       4.402  -2.338   0.000  0.00  0.00    +0.002 C 
ATOM      7  C   UNL     1       4.815  -1.624   0.000  0.00  0.00    +0.002 C 
ENDBRANCH   4   5
ENDBRANCH   3   4
BRANCH   2   8
ATOM      8  C   UNL     1       1.132  -1.624   0.000  0.00  0.00    +0.217 C 
BRANCH   8   9
ATOM      9  N   UNL     1       0.418  -1.211   0.000  0.00  0.00    -0.201 N 
ATOM     10  C   UNL     1       0.331  -0.391   0.000  0.00  0.00    +0.310 A 
ATOM     11  O   UNL     1       0.944   0.161   0.000  0.00  0.00    -0.258 OA
ATOM     12  S   UNL     1      -0.476  -0.219   0.000  0.00  0.00    -0.003 S 
ATOM     13  C   UNL     1      -0.888  -0.934   0.000  0.00  0.00    +0.160 A 
ATOM     14  N   UNL     1      -0.336  -1.547   0.000  0.00  0.00    -0.157 NA
ENDBRANCH   8   9
ENDBRANCH   2   8
TORSDOF 4
