REMARK  Name = 
REMARK  5 active torsions:
REMARK  status: ('A' for Active; 'I' for Inactive)
REMARK    1  A    between atoms: C_2  and  O_3
REMARK    2  A    between atoms: O_3  and  C_4
REMARK    3  A    between atoms: C_9  and  N_10
REMARK    4  A    between atoms: N_13  and  C_14
REMARK    5  A    between atoms: C_20  and  C_22
REMARK                            x       y       z     vdW  Elec       q    Type
REMARK                         _______ _______ _______ _____ _____    ______ ____
ROOT
ATOM      1  N   UNL     1       3.160   6.902   0.000  0.00  0.00    -0.156 NA
ATOM      2  C   UNL     1       2.445   6.489   0.000  0.00  0.00    +0.344 C 
ATOM      3  N   UNL     1       2.445   5.665   0.000  0.00  0.00    -0.189 NA
ATOM      4  O   UNL     1       1.731   6.902   0.000  0.00  0.00    -0.249 OA
ENDROOT
BRANCH   3   5
ATOM      5  C   UNL     1       1.731   5.252   0.000  0.00  0.00    +0.100 C 
ATOM      6  C   UNL     1       1.016   5.665   0.000  0.00  0.00    +0.043 C 
ATOM      7  C   UNL     1       0.302   5.252   0.000  0.00  0.00    +0.095 C 
ATOM      8  N   UNL     1       0.302   4.427   0.000  0.00  0.00    -0.279 N 
ATOM      9  C   UNL     1      -0.412   4.014   0.000  0.00  0.00    +0.225 C 
ATOM     10  O   UNL     1      -1.127   4.427   0.000  0.00  0.00    -0.275 OA
ATOM     11  C   UNL     1       1.016   4.014   0.000  0.00  0.00    +0.095 C 
ATOM     12  C   UNL     1       1.731   4.427   0.000  0.00  0.00    +0.043 C 
BRANCH   9  13
ATOM     13  C   UNL     1      -0.412   3.189   0.000  0.00  0.00    +0.077 C 
ATOM     14  C   UNL     1      -0.825   2.475   0.000  0.00  0.00    +0.010 C 
ATOM     15  C   UNL     1       0.000   2.475   0.000  0.00  0.00    +0.010 C 
ENDBRANCH   9  13
ENDBRANCH   3   5
BRANCH   1  17
ATOM     16  C   UNL     1       2.445   8.139   0.000  0.00  0.00    +0.241 A 
ATOM     17  C   UNL     1       3.160   7.727   0.000  0.00  0.00    +0.128 A 
ATOM     18  C   UNL     1       3.874   8.139   0.000  0.00  0.00    +0.023 A 
ATOM     19  C   UNL     1       3.874   8.964   0.000  0.00  0.00    +0.022 A 
ATOM     20  C   UNL     1       3.160   9.377   0.000  0.00  0.00    +0.102 A 
ATOM     21  N   UNL     1       2.445   8.964   0.000  0.00  0.00    -0.209 NA
BRANCH  16  22
ATOM     22  O   UNL     1       1.731   7.727   0.000  0.00  0.00    -0.459 OA
BRANCH  22  24
ATOM     23  C   UNL     1       0.302   7.727   0.000  0.00  0.00    +0.051 C 
ATOM     24  C   UNL     1       1.016   8.139   0.000  0.00  0.00    +0.207 C 
ENDBRANCH  22  24
ENDBRANCH  16  22
ENDBRANCH   1  17
TORSDOF 5
