REMARK  Name = 
REMARK  5 active torsions:
REMARK  status: ('A' for Active; 'I' for Inactive)
REMARK    1  A    between atoms: C_5  and  C_6
REMARK    2  A    between atoms: C_6  and  C_7
REMARK    3  A    between atoms: N_9  and  C_10
REMARK    4  A    between atoms: C_10  and  C_12
REMARK    5  A    between atoms: C_10  and  C_14
REMARK                            x       y       z     vdW  Elec       q    Type
REMARK                         _______ _______ _______ _____ _____    ______ ____
ROOT
ATOM      1  C   UNL     1       1.033  -5.212   0.000  0.00  0.00    +0.247 C 
ATOM      2  N   UNL     1       0.548  -5.880   0.000  0.00  0.00    -0.206 NA
ATOM      3  O   UNL     1       0.698  -4.459   0.000  0.00  0.00    -0.273 OA
ENDROOT
BRANCH   2   4
ATOM      4  C   UNL     1      -0.272  -5.794   0.000  0.00  0.00    +0.109 C 
ATOM      5  C   UNL     1      -0.186  -4.973   0.000  0.00  0.00    +0.024 C 
BRANCH   4   6
ATOM      6  C   UNL     1      -1.093  -5.707   0.000  0.00  0.00    +0.021 C 
ATOM      7  C   UNL     1      -1.428  -4.954   0.000  0.00  0.00    +0.002 C 
ATOM      8  C   UNL     1      -2.249  -4.867   0.000  0.00  0.00    +0.000 C 
ATOM      9  C   UNL     1      -2.734  -5.535   0.000  0.00  0.00    +0.000 C 
ATOM     10  C   UNL     1      -2.398  -6.288   0.000  0.00  0.00    +0.000 C 
ATOM     11  C   UNL     1      -1.577  -6.375   0.000  0.00  0.00    +0.002 C 
ENDBRANCH   4   6
BRANCH   4  12
ATOM     12  C   UNL     1      -0.358  -6.614   0.000  0.00  0.00    +0.202 C 
ATOM     13  O   UNL     1      -1.112  -6.950   0.000  0.00  0.00    -0.219 OA
ENDBRANCH   4  12
ENDBRANCH   2   4
BRANCH   1  14
ATOM     14  C   UNL     1       1.854  -5.299   0.000  0.00  0.00    +0.134 C 
BRANCH  14  18
ATOM     15  C   UNL     1       2.751  -2.537   0.000  0.00  0.00    +0.154 C 
ATOM     16  N   UNL     1       2.751  -3.362   0.000  0.00  0.00    -0.248 N 
ATOM     17  N   UNL     1       2.084  -3.846   0.000  0.00  0.00    -0.173 NA
ATOM     18  C   UNL     1       2.339  -4.631   0.000  0.00  0.00    +0.089 A 
ATOM     19  C   UNL     1       3.164  -4.631   0.000  0.00  0.00    +0.037 A 
ATOM     20  C   UNL     1       3.419  -3.846   0.000  0.00  0.00    +0.096 A 
ENDBRANCH  14  18
ENDBRANCH   1  14
TORSDOF 5
