REMARK  Name = 
REMARK  3 active torsions:
REMARK  status: ('A' for Active; 'I' for Inactive)
REMARK    1  A    between atoms: C_2  and  C_3
REMARK    2  A    between atoms: C_3  and  N_4
REMARK    3  A    between atoms: C_5  and  C_6
REMARK                            x       y       z     vdW  Elec       q    Type
REMARK                         _______ _______ _______ _____ _____    ______ ____
ROOT
ATOM      1  N   UNL     1       1.139  -1.365   0.000  0.00  0.00    -0.311 N 
ATOM      2  C   UNL     1       1.923  -1.110   0.000  0.00  0.00    +0.080 A 
ATOM      3  C   UNL     1       1.923  -0.285   0.000  0.00  0.00    +0.098 A 
ATOM      4  C   UNL     1       2.638   0.127   0.000  0.00  0.00    +0.021 A 
ATOM      5  C   UNL     1       3.352  -0.285   0.000  0.00  0.00    +0.013 A 
ATOM      6  C   UNL     1       3.352  -1.110   0.000  0.00  0.00    +0.059 A 
ATOM      7 CL   UNL     1       4.067  -1.523   0.000  0.00  0.00    -0.082 Cl
ATOM      8  N   UNL     1       1.139  -0.030   0.000  0.00  0.00    -0.230 NA
ATOM      9  C   UNL     1       2.638  -1.523   0.000  0.00  0.00    +0.030 A 
ATOM     10  C   UNL     1       0.654  -0.698   0.000  0.00  0.00    +0.137 A 
ENDROOT
BRANCH  10  11
ATOM     11  C   UNL     1      -0.171  -0.698   0.000  0.00  0.00    +0.158 C 
ATOM     12 CL   UNL     1      -0.584   0.017   0.000  0.00  0.00    -0.105 Cl
ENDBRANCH  10  11
BRANCH   1  13
ATOM     13  C   UNL     1       0.884  -2.150   0.000  0.00  0.00    +0.143 C 
BRANCH  13  15
ATOM     14  O   UNL     1      -0.178  -3.106   0.000  0.00  0.00    -0.218 OA
ATOM     15  C   UNL     1       0.077  -2.321   0.000  0.00  0.00    +0.206 C 
ENDBRANCH  13  15
ENDBRANCH   1  13
TORSDOF 3
