REMARK  Name = 
REMARK  7 active torsions:
REMARK  status: ('A' for Active; 'I' for Inactive)
REMARK    1  A    between atoms: C_2  and  N_3
REMARK    2  A    between atoms: C_2  and  C_13
REMARK    3  A    between atoms: N_3  and  C_4
REMARK    4  A    between atoms: C_4  and  C_5
REMARK    5  A    between atoms: N_7  and  C_8
REMARK    6  A    between atoms: C_8  and  C_9
REMARK    7  A    between atoms: C_13  and  N_15
REMARK                            x       y       z     vdW  Elec       q    Type
REMARK                         _______ _______ _______ _____ _____    ______ ____
ROOT
ATOM      1  N   UNL     1       4.592  -2.952   0.000  0.00  0.00    -0.208 NA
ENDROOT
BRANCH   1   3
ATOM      2  C   UNL     1       5.307  -4.189   0.000  0.00  0.00    +0.021 C 
ATOM      3  C   UNL     1       5.307  -3.364   0.000  0.00  0.00    +0.096 C 
BRANCH   3   4
ATOM      4  C   UNL     1       6.021  -2.952   0.000  0.00  0.00    +0.121 C 
ATOM      5  C   UNL     1       6.021  -2.127   0.000  0.00  0.00    +0.028 C 
BRANCH   4   6
ATOM      6  N   UNL     1       6.736  -3.364   0.000  0.00  0.00    -0.250 N 
ATOM      7  N   UNL     1       6.822  -4.185   0.000  0.00  0.00    -0.168 NA
ATOM      8  C   UNL     1       7.629  -4.356   0.000  0.00  0.00    +0.122 A 
ATOM      9  C   UNL     1       8.041  -3.642   0.000  0.00  0.00    +0.043 A 
ATOM     10  C   UNL     1       7.489  -3.029   0.000  0.00  0.00    +0.097 A 
ENDBRANCH   4   6
ENDBRANCH   3   4
ENDBRANCH   1   3
BRANCH   1  11
ATOM     11  C   UNL     1       3.878  -3.364   0.000  0.00  0.00    +0.175 C 
BRANCH  11  12
ATOM     12  C   UNL     1       3.163  -2.952   0.000  0.00  0.00    +0.259 C 
ATOM     13  N   UNL     1       2.449  -3.364   0.000  0.00  0.00    -0.195 NA
ATOM     14  O   UNL     1       3.163  -2.127   0.000  0.00  0.00    -0.272 OA
BRANCH  13  15
ATOM     15  C   UNL     1       1.734  -2.952   0.000  0.00  0.00    +0.218 C 
BRANCH  15  16
ATOM     16  C   UNL     1       1.020  -3.364   0.000  0.00  0.00    +0.417 C 
ATOM     17  F   UNL     1       0.608  -2.650   0.000  0.00  0.00    -0.168 F 
ATOM     18  F   UNL     1       1.433  -4.079   0.000  0.00  0.00    -0.168 F 
ATOM     19  F   UNL     1       0.305  -3.777   0.000  0.00  0.00    -0.168 F 
ENDBRANCH  15  16
ENDBRANCH  13  15
ENDBRANCH  11  12
ENDBRANCH   1  11
TORSDOF 7
