REMARK  Name = 
REMARK  4 active torsions:
REMARK  status: ('A' for Active; 'I' for Inactive)
REMARK    1  A    between atoms: C_3  and  C_5
REMARK    2  A    between atoms: C_5  and  C_6
REMARK    3  A    between atoms: C_9  and  C_10
REMARK    4  A    between atoms: C_10  and  C_11
REMARK                            x       y       z     vdW  Elec       q    Type
REMARK                         _______ _______ _______ _____ _____    ______ ____
ROOT
ATOM      1  C   UNL     1       1.581  -1.655   0.000  0.00  0.00    +0.190 A 
ATOM      2  N   UNL     1       0.913  -2.140   0.000  0.00  0.00    -0.194 NA
ATOM      3  C   UNL     1       1.168  -2.925   0.000  0.00  0.00    +0.236 A 
ATOM      4  O   UNL     1       1.993  -2.925   0.000  0.00  0.00    -0.337 OA
ATOM      5  N   UNL     1       2.248  -2.140   0.000  0.00  0.00    -0.060 NA
ENDROOT
BRANCH   1   6
ATOM      6  C   UNL     1       1.581  -0.830   0.000  0.00  0.00    +0.156 C 
BRANCH   6   9
ATOM      7  C   UNL     1       3.010   0.820   0.000  0.00  0.00    +0.139 C 
ATOM      8  N   UNL     1       2.295   0.407   0.000  0.00  0.00    -0.203 NA
ATOM      9  C   UNL     1       2.295  -0.418   0.000  0.00  0.00    +0.249 C 
ATOM     10  O   UNL     1       3.010  -0.830   0.000  0.00  0.00    -0.273 OA
ENDBRANCH   6   9
ENDBRANCH   1   6
BRANCH   3  11
ATOM     11  C   UNL     1       0.683  -3.592   0.000  0.00  0.00    +0.088 C 
BRANCH  11  12
ATOM     12  C   UNL     1      -0.137  -3.506   0.000  0.00  0.00    +0.009 C 
ATOM     13  C   UNL     1      -0.416  -2.729   0.000  0.00  0.00    +0.000 C 
ATOM     14  C   UNL     1      -1.196  -2.463   0.000  0.00  0.00    +0.000 C 
ATOM     15  C   UNL     1      -1.891  -2.907   0.000  0.00  0.00    +0.000 C 
ATOM     16  C   UNL     1      -1.978  -3.728   0.000  0.00  0.00    +0.000 C 
ATOM     17  C   UNL     1      -1.390  -4.306   0.000  0.00  0.00    +0.000 C 
ATOM     18  C   UNL     1      -0.571  -4.208   0.000  0.00  0.00    +0.000 C 
ENDBRANCH  11  12
ENDBRANCH   3  11
TORSDOF 4
