REMARK  Name = 
REMARK  6 active torsions:
REMARK  status: ('A' for Active; 'I' for Inactive)
REMARK    1  A    between atoms: N_2  and  C_9
REMARK    2  A    between atoms: C_8  and  C_9
REMARK    3  A    between atoms: C_17  and  C_27
REMARK    4  A    between atoms: C_20  and  C_28
REMARK    5  A    between atoms: O_25  and  C_27
REMARK    6  A    between atoms: O_25  and  C_28
REMARK                            x       y       z     vdW  Elec       q    Type
REMARK                         _______ _______ _______ _____ _____    ______ ____
ROOT
ATOM      1  C   UNL     1       1.921  -0.283   0.000  0.00  0.00    +0.149 A 
ATOM      2  C   UNL     1       2.638   0.129   0.000  0.00  0.00    +0.154 A 
ATOM      3  N   UNL     1       3.350  -0.283   0.000  0.00  0.00    -0.207 NA
ATOM      4  C   UNL     1       3.350  -1.108   0.000  0.00  0.00    +0.201 A 
ATOM      5  N   UNL     1       2.638  -1.521   0.000  0.00  0.00    -0.205 NA
ATOM      6  N   UNL     1       2.638   0.954   0.000  0.00  0.00    -0.287 N 
ATOM      7  C   UNL     1       1.921   1.367   0.000  0.00  0.00    +0.124 C 
ATOM      8  C   UNL     1       1.921   2.192   0.000  0.00  0.00    +0.164 C 
ATOM      9  O   UNL     1       2.638   2.604   0.000  0.00  0.00    -0.350 OA
ATOM     10  C   UNL     1       3.350   2.192   0.000  0.00  0.00    +0.164 C 
ATOM     11  C   UNL     1       3.350   1.367   0.000  0.00  0.00    +0.124 C 
ATOM     12  N   UNL     1       1.137  -0.029   0.000  0.00  0.00    -0.219 NA
ATOM     13  C   UNL     1       0.650  -0.696   0.000  0.00  0.00    +0.180 A 
ATOM     14  N   UNL     1       1.137  -1.363   0.000  0.00  0.00    -0.292 N 
ATOM     15  C   UNL     1       1.921  -1.108   0.000  0.00  0.00    +0.167 A 
ENDROOT
BRANCH  10  16
ATOM     16  C   UNL     1       4.067   2.604   0.000  0.00  0.00    +0.173 C 
BRANCH  16  17
ATOM     17  O   UNL     1       4.779   2.192   0.000  0.00  0.00    -0.351 OA
BRANCH  17  18
ATOM     18  C   UNL     1       5.492   2.604   0.000  0.00  0.00    +0.142 C 
BRANCH  18  19
ATOM     19  C   UNL     1       6.208   2.192   0.000  0.00  0.00    +0.030 C 
ATOM     20  C   UNL     1       7.033   2.192   0.000  0.00  0.00    +0.003 C 
ATOM     21  C   UNL     1       6.621   1.479   0.000  0.00  0.00    +0.003 C 
ENDBRANCH  18  19
ENDBRANCH  17  18
ENDBRANCH  16  17
ENDBRANCH  10  16
BRANCH  14  22
ATOM     22  C   UNL     1       0.883  -2.150   0.000  0.00  0.00    +0.142 C 
BRANCH  22  23
ATOM     23  C   UNL     1       0.075  -2.321   0.000  0.00  0.00    +0.174 C 
ATOM     24  O   UNL     1       0.346  -1.542   0.000  0.00  0.00    -0.221 OA
ATOM     25  C   UNL     1      -0.729  -2.138   0.000  0.00  0.00    +0.067 C 
ATOM     26  C   UNL     1      -1.150  -2.850   0.000  0.00  0.00    +0.145 C 
ATOM     27  O   UNL     1      -0.604  -3.467   0.000  0.00  0.00    -0.354 OA
ATOM     28  C   UNL     1       0.154  -3.142   0.000  0.00  0.00    +0.145 C 
ATOM     29  C   UNL     1       0.863  -3.562   0.000  0.00  0.00    +0.035 C 
ENDBRANCH  22  23
ENDBRANCH  14  22
TORSDOF 6
