REMARK  Name = 
REMARK  5 active torsions:
REMARK  status: ('A' for Active; 'I' for Inactive)
REMARK    1  A    between atoms: C_2  and  C_3
REMARK    2  A    between atoms: C_3  and  C_4
REMARK    3  A    between atoms: C_4  and  N_5
REMARK    4  A    between atoms: C_8  and  N_9
REMARK    5  A    between atoms: C_11  and  C_13
REMARK                            x       y       z     vdW  Elec       q    Type
REMARK                         _______ _______ _______ _____ _____    ______ ____
ROOT
ATOM      1  N   UNL     1      -2.751   5.590   0.000  0.00  0.00    -0.264 N 
ATOM      2  C   UNL     1      -3.466   6.003   0.000  0.00  0.00    +0.354 A 
ATOM      3  O   UNL     1      -3.466   6.828   0.000  0.00  0.00    -0.244 OA
ATOM      4  N   UNL     1      -4.180   5.590   0.000  0.00  0.00    -0.152 NA
ATOM      5  C   UNL     1      -4.180   4.765   0.000  0.00  0.00    +0.300 A 
ATOM      6  O   UNL     1      -4.895   4.353   0.000  0.00  0.00    -0.264 OA
ATOM      7  C   UNL     1      -3.466   4.353   0.000  0.00  0.00    +0.146 A 
ATOM      8  C   UNL     1      -2.751   4.765   0.000  0.00  0.00    +0.173 A 
ATOM      9  N   UNL     1      -2.037   4.353   0.000  0.00  0.00    -0.107 NA
ENDROOT
BRANCH   7  10
ATOM     10  N   UNL     1      -3.466   3.528   0.000  0.00  0.00    -0.249 N 
ATOM     11  C   UNL     1      -2.751   3.115   0.000  0.00  0.00    +0.257 C 
ATOM     12  O   UNL     1      -2.037   3.528   0.000  0.00  0.00    -0.272 OA
ATOM     13  C   UNL     1      -4.180   3.115   0.000  0.00  0.00    +0.120 C 
BRANCH  11  14
ATOM     14  C   UNL     1      -2.751   2.290   0.000  0.00  0.00    +0.191 C 
ATOM     15  O   UNL     1      -3.419   1.805   0.000  0.00  0.00    -0.347 OA
ATOM     16  C   UNL     1      -3.164   1.021   0.000  0.00  0.00    +0.143 C 
ATOM     17  C   UNL     1      -2.339   1.021   0.000  0.00  0.00    +0.035 C 
ATOM     18  C   UNL     1      -2.084   1.805   0.000  0.00  0.00    +0.042 C 
ENDBRANCH  11  14
ENDBRANCH   7  10
BRANCH   1  19
ATOM     19  C   UNL     1      -2.037   6.003   0.000  0.00  0.00    +0.112 C 
BRANCH  19  20
ATOM     20  C   UNL     1      -2.037   6.828   0.000  0.00  0.00    +0.025 C 
BRANCH  20  22
ATOM     21  C   UNL     1      -1.322   8.065   0.000  0.00  0.00    +0.000 C 
ATOM     22  C   UNL     1      -1.322   7.240   0.000  0.00  0.00    +0.002 C 
ENDBRANCH  20  22
ENDBRANCH  19  20
ENDBRANCH   1  19
TORSDOF 5
