REMARK  Name = 
REMARK  6 active torsions:
REMARK  status: ('A' for Active; 'I' for Inactive)
REMARK    1  A    between atoms: N_2  and  C_10
REMARK    2  A    between atoms: C_5  and  N_9
REMARK    3  A    between atoms: C_6  and  N_9
REMARK    4  A    between atoms: C_12  and  O_21
REMARK    5  A    between atoms: C_15  and  C_23
REMARK    6  A    between atoms: C_15  and  C_24
REMARK                            x       y       z     vdW  Elec       q    Type
REMARK                         _______ _______ _______ _____ _____    ______ ____
ROOT
ATOM      1  C   UNL     1      -1.221   0.708   0.000  0.00  0.00    +0.149 A 
ATOM      2  C   UNL     1      -1.221  -0.117   0.000  0.00  0.00    +0.154 A 
ATOM      3  N   UNL     1      -1.938  -0.529   0.000  0.00  0.00    -0.207 NA
ATOM      4  C   UNL     1      -2.650  -0.117   0.000  0.00  0.00    +0.201 A 
ATOM      5  N   UNL     1      -2.650   0.708   0.000  0.00  0.00    -0.205 NA
ATOM      6  N   UNL     1      -0.608   1.258   0.000  0.00  0.00    -0.219 NA
ATOM      7  C   UNL     1      -0.946   2.013   0.000  0.00  0.00    +0.180 A 
ATOM      8  N   UNL     1      -1.767   1.925   0.000  0.00  0.00    -0.296 N 
ATOM      9  C   UNL     1      -1.938   1.121   0.000  0.00  0.00    +0.167 A 
ENDROOT
BRANCH   8  10
ATOM     10  C   UNL     1      -2.317   2.538   0.000  0.00  0.00    +0.089 C 
ATOM     11  C   UNL     1      -3.142   2.583   0.000  0.00  0.00    +0.028 C 
ATOM     12  C   UNL     1      -3.096   3.404   0.000  0.00  0.00    +0.065 C 
ATOM     13  C   UNL     1      -2.275   3.362   0.000  0.00  0.00    +0.028 C 
BRANCH  12  14
ATOM     14  C   UNL     1      -3.054   4.225   0.000  0.00  0.00    +0.185 C 
ATOM     15  O   UNL     1      -2.321   4.600   0.000  0.00  0.00    -0.220 OA
ENDBRANCH  12  14
BRANCH  12  16
ATOM     16  C   UNL     1      -3.921   3.450   0.000  0.00  0.00    +0.185 C 
ATOM     17  O   UNL     1      -4.371   2.758   0.000  0.00  0.00    -0.220 OA
ENDBRANCH  12  16
ENDBRANCH   8  10
BRANCH   2  18
ATOM     18  N   UNL     1      -0.508  -0.529   0.000  0.00  0.00    -0.292 N 
ATOM     19  C   UNL     1       0.208  -0.117   0.000  0.00  0.00    +0.114 C 
BRANCH  18  20
ATOM     20  C   UNL     1      -0.508  -1.354   0.000  0.00  0.00    +0.079 C 
ATOM     21  C   UNL     1      -1.092  -1.942   0.000  0.00  0.00    +0.049 C 
ATOM     22  C   UNL     1      -0.508  -2.525   0.000  0.00  0.00    +0.118 C 
ATOM     23  C   UNL     1       0.075  -1.942   0.000  0.00  0.00    +0.042 C 
ATOM     24  C   UNL     1       0.658  -2.525   0.000  0.00  0.00    +0.004 C 
ATOM     25  C   UNL     1       1.242  -1.942   0.000  0.00  0.00    +0.000 C 
ATOM     26  C   UNL     1       0.658  -1.354   0.000  0.00  0.00    +0.004 C 
BRANCH  22  27
ATOM     27  O   UNL     1      -0.508  -3.350   0.000  0.00  0.00    -0.353 OA
ATOM     28  C   UNL     1       0.208  -3.763   0.000  0.00  0.00    +0.174 C 
ENDBRANCH  22  27
ENDBRANCH  18  20
ENDBRANCH   2  18
TORSDOF 6
