REMARK  Name = 
REMARK  5 active torsions:
REMARK  status: ('A' for Active; 'I' for Inactive)
REMARK    1  A    between atoms: C_2  and  CA_3
REMARK    2  A    between atoms: CA_3  and  N_4
REMARK    3  A    between atoms: CA_3  and  C_16
REMARK    4  A    between atoms: C_5  and  C_7
REMARK    5  A    between atoms: C_7  and  N_10
REMARK                            x       y       z     vdW  Elec       q    Type
REMARK                         _______ _______ _______ _____ _____    ______ ____
ROOT
ATOM      1  N   UNL     1      -0.147   3.177   0.000  0.00  0.00    -0.194 NA
ATOM      2  C   UNL     1       0.568   2.764   0.000  0.00  0.00    +0.262 C 
ATOM      3  O   UNL     1       1.282   3.177   0.000  0.00  0.00    -0.271 OA
ENDROOT
BRANCH   2   4
ATOM      4  C   UNL     1       0.568   1.939   0.000  0.00  0.00    +0.156 C 
ATOM      5  C   UNL     1       1.393   1.939   0.000  0.00  0.00    +0.034 C 
ATOM      6  C   UNL     1      -0.257   1.939   0.000  0.00  0.00    +0.034 C 
BRANCH   4   7
ATOM      7  N   UNL     1       0.568   1.114   0.000  0.00  0.00    -0.244 N 
ATOM      8  N   UNL     1      -0.100   0.629   0.000  0.00  0.00    -0.166 NA
ATOM      9  C   UNL     1       0.155  -0.155   0.000  0.00  0.00    +0.133 A 
ATOM     10  C   UNL     1       0.980  -0.155   0.000  0.00  0.00    +0.097 A 
ATOM     11 CL   UNL     1       1.465  -0.823   0.000  0.00  0.00    -0.079 Cl
ATOM     12  C   UNL     1       1.235   0.629   0.000  0.00  0.00    +0.108 A 
ENDBRANCH   4   7
ENDBRANCH   2   4
BRANCH   1  13
ATOM     13  CA  UNL     1      -0.147   4.002   0.000  0.00  0.00    +0.198 C 
BRANCH  13  14
ATOM     14  C   UNL     1       0.568   4.414   0.000  0.00  0.00    +0.384 C 
ATOM     15  OXT UNL     1       0.568   5.239   0.000  0.00  0.00    -0.244 OA
ATOM     16  O   UNL     1       1.282   4.002   0.000  0.00  0.00    -0.244 OA
ENDBRANCH  13  14
BRANCH  13  18
ATOM     17  C   UNL     1      -0.861   5.239   0.000  0.00  0.00    +0.002 C 
ATOM     18  C   UNL     1      -0.861   4.414   0.000  0.00  0.00    +0.033 C 
ENDBRANCH  13  18
ENDBRANCH   1  13
TORSDOF 5
