REMARK  Name = 
REMARK  6 active torsions:
REMARK  status: ('A' for Active; 'I' for Inactive)
REMARK    1  A    between atoms: C_2  and  N_3
REMARK    2  A    between atoms: C_7  and  C_8
REMARK    3  A    between atoms: C_8  and  C_9
REMARK    4  A    between atoms: C_9  and  N_10
REMARK    5  A    between atoms: C_11  and  C_13
REMARK    6  A    between atoms: C_13  and  N_15
REMARK                            x       y       z     vdW  Elec       q    Type
REMARK                         _______ _______ _______ _____ _____    ______ ____
ROOT
ATOM      1  N   UNL     1       2.733  -4.050   0.000  0.00  0.00    -0.204 NA
ATOM      2  C   UNL     1       3.447  -4.462   0.000  0.00  0.00    +0.256 C 
ATOM      3  O   UNL     1       3.447  -5.287   0.000  0.00  0.00    -0.272 OA
ENDROOT
BRANCH   2   4
ATOM      4  C   UNL     1       4.162  -4.050   0.000  0.00  0.00    +0.137 C 
ATOM      5  C   UNL     1       4.162  -3.225   0.000  0.00  0.00    +0.027 C 
BRANCH   4   6
ATOM      6  N   UNL     1       4.876  -4.462   0.000  0.00  0.00    -0.267 NA
ATOM      7  C   UNL     1       4.814  -5.285   0.000  0.00  0.00    +0.072 C 
ATOM      8  C   UNL     1       5.419  -5.846   0.000  0.00  0.00    +0.017 C 
ATOM      9  C   UNL     1       6.235  -5.723   0.000  0.00  0.00    +0.001 C 
ATOM     10  C   UNL     1       6.648  -5.008   0.000  0.00  0.00    +0.001 C 
ATOM     11  C   UNL     1       6.346  -4.240   0.000  0.00  0.00    +0.017 C 
ATOM     12  C   UNL     1       5.558  -3.997   0.000  0.00  0.00    +0.072 C 
ENDBRANCH   4   6
ENDBRANCH   2   4
BRANCH   1  13
ATOM     13  C   UNL     1       2.018  -4.462   0.000  0.00  0.00    +0.123 C 
BRANCH  13  14
ATOM     14  C   UNL     1       1.304  -4.050   0.000  0.00  0.00    +0.089 C 
BRANCH  14  16
ATOM     15  N   UNL     1       0.503  -5.283   0.000  0.00  0.00    -0.296 N 
ATOM     16  C   UNL     1       0.589  -4.462   0.000  0.00  0.00    +0.145 A 
ATOM     17  N   UNL     1      -0.164  -4.127   0.000  0.00  0.00    -0.133 NA
ATOM     18  N   UNL     1      -0.716  -4.740   0.000  0.00  0.00    -0.126 NA
ATOM     19  C   UNL     1      -0.304  -5.454   0.000  0.00  0.00    +0.202 A 
BRANCH  15  21
ATOM     20  C   UNL     1       0.945  -6.642   0.000  0.00  0.00    +0.027 C 
ATOM     21  C   UNL     1       1.116  -5.835   0.000  0.00  0.00    +0.109 C 
ENDBRANCH  15  21
ENDBRANCH  14  16
ENDBRANCH  13  14
ENDBRANCH   1  13
TORSDOF 6
