REMARK  Name = 
REMARK  4 active torsions:
REMARK  status: ('A' for Active; 'I' for Inactive)
REMARK    1  A    between atoms: C_6  and  N_7
REMARK    2  A    between atoms: N_10  and  C_11
REMARK    3  A    between atoms: N_15  and  C_16
REMARK    4  A    between atoms: C_16  and  C_17
REMARK                            x       y       z     vdW  Elec       q    Type
REMARK                         _______ _______ _______ _____ _____    ______ ____
ROOT
ATOM      1  C   UNL     1      -3.572  -6.188   0.000  0.00  0.00    +0.173 C 
ATOM      2  C   UNL     1      -4.287  -6.600   0.000  0.00  0.00    +0.246 C 
ATOM      3  O   UNL     1      -5.001  -6.188   0.000  0.00  0.00    -0.273 OA
ATOM      4  N   UNL     1      -4.287  -7.425   0.000  0.00  0.00    -0.270 N 
ATOM      5  C   UNL     1      -3.572  -7.838   0.000  0.00  0.00    +0.094 C 
ATOM      6  C   UNL     1      -2.858  -7.425   0.000  0.00  0.00    +0.024 C 
ATOM      7  C   UNL     1      -2.858  -6.600   0.000  0.00  0.00    +0.033 C 
ENDROOT
BRANCH   1  10
ATOM      8  N   UNL     1      -2.858  -4.125   0.000  0.00  0.00    -0.142 NA
ATOM      9  C   UNL     1      -2.858  -4.950   0.000  0.00  0.00    +0.345 C 
ATOM     10  N   UNL     1      -3.572  -5.362   0.000  0.00  0.00    -0.179 NA
ATOM     11  O   UNL     1      -2.143  -5.362   0.000  0.00  0.00    -0.249 OA
BRANCH   8  15
ATOM     12  C   UNL     1      -1.429  -1.650   0.000  0.00  0.00    +0.052 C 
ATOM     13  C   UNL     1      -1.429  -2.475   0.000  0.00  0.00    +0.061 A 
ATOM     14  N   UNL     1      -2.143  -2.888   0.000  0.00  0.00    -0.233 NA
ATOM     15  C   UNL     1      -2.143  -3.712   0.000  0.00  0.00    +0.156 A 
ATOM     16  C   UNL     1      -1.429  -4.125   0.000  0.00  0.00    +0.036 A 
ATOM     17  C   UNL     1      -0.715  -3.712   0.000  0.00  0.00    +0.004 A 
ATOM     18  C   UNL     1      -0.715  -2.888   0.000  0.00  0.00    +0.015 A 
ENDBRANCH   8  15
ENDBRANCH   1  10
BRANCH   4  19
ATOM     19  C   UNL     1      -5.001  -7.838   0.000  0.00  0.00    +0.197 C 
BRANCH  19  20
ATOM     20  C   UNL     1      -5.001  -8.662   0.000  0.00  0.00    +0.416 C 
ATOM     21  F   UNL     1      -4.176  -8.662   0.000  0.00  0.00    -0.168 F 
ATOM     22  F   UNL     1      -5.826  -8.662   0.000  0.00  0.00    -0.168 F 
ATOM     23  F   UNL     1      -5.001  -9.488   0.000  0.00  0.00    -0.168 F 
ENDBRANCH  19  20
ENDBRANCH   4  19
TORSDOF 4
