REMARK  Name = 
REMARK  2 active torsions:
REMARK  status: ('A' for Active; 'I' for Inactive)
REMARK    1  A    between atoms: C_5  and  N_6
REMARK    2  A    between atoms: C_7  and  C_9
REMARK                            x       y       z     vdW  Elec       q    Type
REMARK                         _______ _______ _______ _____ _____    ______ ____
ROOT
ATOM      1  N   UNL     1       1.429  -4.950   0.000  0.00  0.00    -0.158 NA
ATOM      2  C   UNL     1       2.143  -5.362   0.000  0.00  0.00    +0.277 C 
ATOM      3  O   UNL     1       2.858  -4.950   0.000  0.00  0.00    -0.270 OA
ENDROOT
BRANCH   1   9
ATOM      4 CL   UNL     1       1.429  -1.650   0.000  0.00  0.00    -0.080 Cl
ATOM      5  C   UNL     1       1.429  -2.475   0.000  0.00  0.00    +0.087 A 
ATOM      6  C   UNL     1       0.715  -2.888   0.000  0.00  0.00    +0.073 A 
ATOM      7 CL   UNL     1       0.000  -2.475   0.000  0.00  0.00    -0.081 Cl
ATOM      8  C   UNL     1       0.715  -3.712   0.000  0.00  0.00    +0.048 A 
ATOM      9  C   UNL     1       1.429  -4.125   0.000  0.00  0.00    +0.155 A 
ATOM     10  N   UNL     1       2.143  -3.712   0.000  0.00  0.00    -0.226 NA
ATOM     11  C   UNL     1       2.143  -2.888   0.000  0.00  0.00    +0.113 A 
ENDBRANCH   1   9
BRANCH   2  12
ATOM     12  C   UNL     1       2.143  -6.188   0.000  0.00  0.00    +0.223 C 
ATOM     13  O   UNL     1       1.429  -6.600   0.000  0.00  0.00    -0.342 OA
ATOM     14  C   UNL     1       1.429  -7.425   0.000  0.00  0.00    +0.175 C 
ATOM     15  C   UNL     1       2.143  -7.838   0.000  0.00  0.00    +0.174 C 
ATOM     16  O   UNL     1       2.858  -7.425   0.000  0.00  0.00    -0.348 OA
ATOM     17  C   UNL     1       2.858  -6.600   0.000  0.00  0.00    +0.181 C 
ENDBRANCH   2  12
TORSDOF 2
