REMARK  Name = 
REMARK  2 active torsions:
REMARK  status: ('A' for Active; 'I' for Inactive)
REMARK    1  A    between atoms: N_9  and  C_10
REMARK    2  A    between atoms: N_13  and  C_16
REMARK                            x       y       z     vdW  Elec       q    Type
REMARK                         _______ _______ _______ _____ _____    ______ ____
ROOT
ATOM      1  C   UNL     1       1.429  -9.075   0.000  0.00  0.00    +0.100 C 
ATOM      2  C   UNL     1       0.715  -8.662   0.000  0.00  0.00    +0.039 C 
ATOM      3  C   UNL     1       0.000  -9.075   0.000  0.00  0.00    +0.074 C 
ATOM      4  N   UNL     1       0.000  -9.900   0.000  0.00  0.00    -0.274 NA
ATOM      5  C   UNL     1       0.715 -10.312   0.000  0.00  0.00    +0.074 C 
ATOM      6  C   UNL     1       1.429  -9.900   0.000  0.00  0.00    +0.039 C 
ENDROOT
BRANCH   1  14
ATOM      7  C   UNL     1       2.858  -4.125   0.000  0.00  0.00    +0.033 C 
ATOM      8  C   UNL     1       2.858  -4.950   0.000  0.00  0.00    -0.003 A 
ATOM      9  C   UNL     1       2.143  -5.362   0.000  0.00  0.00    +0.096 A 
ATOM     10  N   UNL     1       2.143  -6.188   0.000  0.00  0.00    -0.228 NA
ATOM     11  C   UNL     1       2.858  -6.600   0.000  0.00  0.00    +0.156 A 
ATOM     12  N   UNL     1       2.858  -7.425   0.000  0.00  0.00    -0.142 NA
ATOM     13  C   UNL     1       2.143  -7.838   0.000  0.00  0.00    +0.345 C 
ATOM     14  N   UNL     1       2.143  -8.662   0.000  0.00  0.00    -0.189 NA
ATOM     15  O   UNL     1       1.429  -7.425   0.000  0.00  0.00    -0.249 OA
ATOM     16  C   UNL     1       3.572  -6.188   0.000  0.00  0.00    +0.036 A 
ATOM     17  C   UNL     1       3.572  -5.362   0.000  0.00  0.00    +0.000 A 
ENDBRANCH   1  14
BRANCH   4  18
ATOM     18  C   UNL     1      -0.715 -10.312   0.000  0.00  0.00    +0.058 C 
ATOM     19  C   UNL     1      -1.429  -9.900   0.000  0.00  0.00    +0.016 C 
ATOM     20  C   UNL     1      -2.143 -10.312   0.000  0.00  0.00    +0.001 C 
ATOM     21  C   UNL     1      -2.143 -11.137   0.000  0.00  0.00    +0.000 C 
ATOM     22  C   UNL     1      -1.429 -11.550   0.000  0.00  0.00    +0.001 C 
ATOM     23  C   UNL     1      -0.715 -11.137   0.000  0.00  0.00    +0.016 C 
ENDBRANCH   4  18
TORSDOF 2
