REMARK  Name = 
REMARK  3 active torsions:
REMARK  status: ('A' for Active; 'I' for Inactive)
REMARK    1  A    between atoms: C_2  and  C_3
REMARK    2  A    between atoms: C_2  and  N_14
REMARK    3  A    between atoms: C_3  and  N_4
REMARK                            x       y       z     vdW  Elec       q    Type
REMARK                         _______ _______ _______ _____ _____    ______ ____
ROOT
ATOM      1  N   UNL     1       2.143  -1.238   0.000  0.00  0.00    -0.185 NA
ATOM      2  C   UNL     1       2.858  -0.825   0.000  0.00  0.00    +0.345 C 
ATOM      3  N   UNL     1       3.572  -1.238   0.000  0.00  0.00    -0.134 NA
ATOM      4  C   UNL     1       4.287  -0.825   0.000  0.00  0.00    +0.209 A 
ATOM      5  S   UNL     1       5.040  -1.161   0.000  0.00  0.00    -0.033 S 
ATOM      6  C   UNL     1       5.593  -0.547   0.000  0.00  0.00    +0.113 A 
ATOM      7  C   UNL     1       6.413  -0.634   0.000  0.00  0.00    +0.061 C 
ATOM      8  N   UNL     1       5.180   0.167   0.000  0.00  0.00    -0.144 NA
ATOM      9  N   UNL     1       4.373  -0.004   0.000  0.00  0.00    -0.124 NA
ATOM     10  O   UNL     1       2.858   0.000   0.000  0.00  0.00    -0.249 OA
ENDROOT
BRANCH   1  11
ATOM     11  C   UNL     1       1.429  -0.825   0.000  0.00  0.00    +0.133 C 
BRANCH  11  13
ATOM     12  C   UNL     1       0.715  -2.062   0.000  0.00  0.00    +0.019 C 
ATOM     13  C   UNL     1       0.715  -1.238   0.000  0.00  0.00    +0.079 C 
BRANCH  13  14
ATOM     14  N   UNL     1       0.000  -0.825   0.000  0.00  0.00    -0.268 NA
ATOM     15  C   UNL     1       0.000   0.000   0.000  0.00  0.00    +0.105 C 
ATOM     16  C   UNL     1      -0.715   0.412   0.000  0.00  0.00    +0.159 C 
ATOM     17  O   UNL     1      -1.429   0.000   0.000  0.00  0.00    -0.351 OA
ATOM     18  C   UNL     1      -1.429  -0.825   0.000  0.00  0.00    +0.159 C 
ATOM     19  C   UNL     1      -0.715  -1.238   0.000  0.00  0.00    +0.105 C 
ENDBRANCH  13  14
ENDBRANCH  11  13
ENDBRANCH   1  11
TORSDOF 3
