REMARK  Name = 
REMARK  5 active torsions:
REMARK  status: ('A' for Active; 'I' for Inactive)
REMARK    1  A    between atoms: O_2  and  C_3
REMARK    2  A    between atoms: C_6  and  N_7
REMARK    3  A    between atoms: N_10  and  C_11
REMARK    4  A    between atoms: C_11  and  C_12
REMARK    5  A    between atoms: C_12  and  C_13
REMARK                            x       y       z     vdW  Elec       q    Type
REMARK                         _______ _______ _______ _____ _____    ______ ____
ROOT
ATOM      1  N   UNL     1       2.143  -3.712   0.000  0.00  0.00    -0.160 NA
ATOM      2  C   UNL     1       2.858  -4.125   0.000  0.00  0.00    +0.344 C 
ATOM      3  N   UNL     1       3.572  -3.712   0.000  0.00  0.00    -0.187 NA
ATOM      4  O   UNL     1       2.858  -4.950   0.000  0.00  0.00    -0.249 OA
ENDROOT
BRANCH   1   9
ATOM      5  C   UNL     1       0.000  -4.950   0.000  0.00  0.00    +0.225 A 
ATOM      6  N   UNL     1       0.715  -5.362   0.000  0.00  0.00    -0.215 NA
ATOM      7  C   UNL     1       1.429  -4.950   0.000  0.00  0.00    +0.078 A 
ATOM      8  C   UNL     1       2.143  -5.362   0.000  0.00  0.00    +0.054 C 
ATOM      9  C   UNL     1       1.429  -4.125   0.000  0.00  0.00    +0.089 A 
ATOM     10  C   UNL     1       0.715  -3.712   0.000  0.00  0.00    +0.023 A 
ATOM     11  C   UNL     1       0.000  -4.125   0.000  0.00  0.00    +0.059 A 
BRANCH   5  13
ATOM     12  C   UNL     1      -0.715  -6.188   0.000  0.00  0.00    +0.254 C 
ATOM     13  O   UNL     1      -0.715  -5.362   0.000  0.00  0.00    -0.456 OA
ENDBRANCH   5  13
ENDBRANCH   1   9
BRANCH   3  14
ATOM     14  C   UNL     1       4.287  -4.125   0.000  0.00  0.00    +0.117 C 
BRANCH  14  15
ATOM     15  C   UNL     1       5.001  -3.712   0.000  0.00  0.00    +0.024 C 
BRANCH  15  16
ATOM     16  C   UNL     1       5.716  -4.125   0.000  0.00  0.00    +0.005 C 
ATOM     17  C   UNL     1       5.716  -4.950   0.000  0.00  0.00    +0.017 C 
ATOM     18  C   UNL     1       6.430  -5.362   0.000  0.00  0.00    +0.072 C 
ATOM     19  N   UNL     1       7.145  -4.950   0.000  0.00  0.00    -0.272 NA
ATOM     20  C   UNL     1       7.859  -5.362   0.000  0.00  0.00    +0.090 C 
ATOM     21  C   UNL     1       7.145  -4.125   0.000  0.00  0.00    +0.072 C 
ATOM     22  C   UNL     1       6.430  -3.712   0.000  0.00  0.00    +0.017 C 
ENDBRANCH  15  16
ENDBRANCH  14  15
ENDBRANCH   3  14
TORSDOF 5
