REMARK  Name = 
REMARK  5 active torsions:
REMARK  status: ('A' for Active; 'I' for Inactive)
REMARK    1  A    between atoms: N_5  and  C_6
REMARK    2  A    between atoms: C_6  and  C_7
REMARK    3  A    between atoms: C_7  and  N_8
REMARK    4  A    between atoms: N_8  and  C_9
REMARK    5  A    between atoms: C_9  and  C_10
REMARK                            x       y       z     vdW  Elec       q    Type
REMARK                         _______ _______ _______ _____ _____    ______ ____
ROOT
ATOM      1  N   UNL     1      -0.444  -1.121   0.000  0.00  0.00    -0.213 NA
ENDROOT
BRANCH   1   2
ATOM      2  C   UNL     1      -1.159  -1.533   0.000  0.00  0.00    +0.115 C 
BRANCH   2   3
ATOM      3  C   UNL     1      -1.873  -1.121   0.000  0.00  0.00    +0.146 C 
BRANCH   3   7
ATOM      4  C   UNL     1      -3.816  -3.279   0.000  0.00  0.00    +0.034 C 
ATOM      5  C   UNL     1      -3.481  -2.525   0.000  0.00  0.00    +0.018 A 
ATOM      6  C   UNL     1      -2.674  -2.354   0.000  0.00  0.00    +0.092 A 
ATOM      7  N   UNL     1      -2.587  -1.533   0.000  0.00  0.00    -0.248 N 
ATOM      8  N   UNL     1      -3.341  -1.198   0.000  0.00  0.00    -0.168 NA
ATOM      9  C   UNL     1      -3.893  -1.811   0.000  0.00  0.00    +0.117 A 
ENDBRANCH   3   7
ENDBRANCH   2   3
ENDBRANCH   1   2
BRANCH   1  10
ATOM     10  C   UNL     1       0.270  -1.533   0.000  0.00  0.00    +0.119 C 
BRANCH  10  11
ATOM     11  C   UNL     1       0.985  -1.121   0.000  0.00  0.00    +0.143 C 
ATOM     12  C   UNL     1       1.797  -0.978   0.000  0.00  0.00    +0.032 C 
ATOM     13  C   UNL     1       2.079  -0.202   0.000  0.00  0.00    +0.003 C 
ATOM     14  C   UNL     1       1.549   0.430   0.000  0.00  0.00    +0.000 C 
ATOM     15  C   UNL     1       0.737   0.286   0.000  0.00  0.00    +0.003 C 
ATOM     16  C   UNL     1       0.455  -0.489   0.000  0.00  0.00    +0.032 C 
ATOM     17  O   UNL     1       1.267  -1.896   0.000  0.00  0.00    -0.224 OA
ENDBRANCH  10  11
ENDBRANCH   1  10
TORSDOF 5
