REMARK  Name = 
REMARK  3 active torsions:
REMARK  status: ('A' for Active; 'I' for Inactive)
REMARK    1  A    between atoms: C_2  and  C_4
REMARK    2  A    between atoms: C_4  and  N_5
REMARK    3  A    between atoms: C_7  and  N_8
REMARK                            x       y       z     vdW  Elec       q    Type
REMARK                         _______ _______ _______ _____ _____    ______ ____
ROOT
ATOM      1  N   UNL     1       1.429  -2.475   0.000  0.00  0.00    -0.239 N 
ATOM      2  N   UNL     1       0.761  -2.960   0.000  0.00  0.00    -0.166 NA
ATOM      3  C   UNL     1       1.016  -3.744   0.000  0.00  0.00    +0.138 A 
ATOM      4  C   UNL     1       1.841  -3.744   0.000  0.00  0.00    +0.114 A 
ATOM      5  C   UNL     1       2.096  -2.960   0.000  0.00  0.00    +0.114 A 
ENDROOT
BRANCH   4   6
ATOM      6  N   UNL     1       2.326  -4.412   0.000  0.00  0.00    -0.159 NA
ATOM      7  C   UNL     1       3.147  -4.326   0.000  0.00  0.00    +0.328 C 
ATOM      8  N   UNL     1       3.632  -4.993   0.000  0.00  0.00    -0.261 N 
ATOM      9  C   UNL     1       3.296  -5.747   0.000  0.00  0.00    +0.107 C 
ATOM     10  C   UNL     1       3.781  -6.414   0.000  0.00  0.00    +0.079 C 
ATOM     11  S   UNL     1       4.602  -6.328   0.000  0.00  0.00    -0.137 S 
ATOM     12  C   UNL     1       4.937  -5.574   0.000  0.00  0.00    +0.079 C 
ATOM     13  C   UNL     1       4.452  -4.907   0.000  0.00  0.00    +0.107 C 
ATOM     14  O   UNL     1       3.482  -3.572   0.000  0.00  0.00    -0.250 OA
ENDBRANCH   4   6
BRANCH   1  15
ATOM     15  C   UNL     1       1.429  -1.650   0.000  0.00  0.00    +0.215 C 
BRANCH  15  17
ATOM     16  N   UNL     1       0.715  -0.412   0.000  0.00  0.00    -0.086 NA
ATOM     17  C   UNL     1       0.715  -1.238   0.000  0.00  0.00    +0.286 C 
ATOM     18  O   UNL     1       0.000  -1.650   0.000  0.00  0.00    -0.269 OA
ENDBRANCH  15  17
ENDBRANCH   1  15
TORSDOF 3
