REMARK  Name = 
REMARK  5 active torsions:
REMARK  status: ('A' for Active; 'I' for Inactive)
REMARK    1  A    between atoms: N_7  and  C_8
REMARK    2  A    between atoms: C_8  and  C_9
REMARK    3  A    between atoms: N_11  and  C_12
REMARK    4  A    between atoms: C_12  and  C_13
REMARK    5  A    between atoms: C_13  and  C_14
REMARK                            x       y       z     vdW  Elec       q    Type
REMARK                         _______ _______ _______ _____ _____    ______ ____
ROOT
ATOM      1  C   UNL     1       2.858  -4.125   0.000  0.00  0.00    +0.265 C 
ATOM      2  N   UNL     1       3.572  -3.712   0.000  0.00  0.00    -0.203 NA
ATOM      3  O   UNL     1       2.858  -4.950   0.000  0.00  0.00    -0.271 OA
ENDROOT
BRANCH   1   4
ATOM      4  C   UNL     1       2.143  -3.712   0.000  0.00  0.00    +0.197 C 
BRANCH   4   9
ATOM      5  C   UNL     1       0.715  -6.188   0.000  0.00  0.00    +0.138 C 
ATOM      6  N   UNL     1       0.715  -5.362   0.000  0.00  0.00    -0.247 N 
ATOM      7  C   UNL     1       1.429  -4.950   0.000  0.00  0.00    +0.334 A 
ATOM      8  O   UNL     1       2.143  -5.362   0.000  0.00  0.00    -0.246 OA
ATOM      9  N   UNL     1       1.429  -4.125   0.000  0.00  0.00    -0.271 N 
ATOM     10  C   UNL     1       0.715  -3.712   0.000  0.00  0.00    +0.085 A 
ATOM     11  C   UNL     1       0.000  -4.125   0.000  0.00  0.00    +0.080 A 
ATOM     12  C   UNL     1       0.000  -4.950   0.000  0.00  0.00    +0.266 A 
ATOM     13  O   UNL     1      -0.715  -5.362   0.000  0.00  0.00    -0.267 OA
ENDBRANCH   4   9
ENDBRANCH   1   4
BRANCH   2  14
ATOM     14  C   UNL     1       4.287  -4.125   0.000  0.00  0.00    +0.120 C 
BRANCH  14  15
ATOM     15  C   UNL     1       5.001  -3.712   0.000  0.00  0.00    +0.045 C 
BRANCH  15  16
ATOM     16  C   UNL     1       5.716  -4.125   0.000  0.00  0.00    -0.047 C 
ATOM     17  C   UNL     1       5.716  -4.950   0.000  0.00  0.00    +0.022 C 
ATOM     18  C   UNL     1       6.430  -5.362   0.000  0.00  0.00    +0.005 C 
ATOM     19  C   UNL     1       7.145  -4.950   0.000  0.00  0.00    +0.005 C 
ATOM     20  C   UNL     1       7.145  -4.125   0.000  0.00  0.00    +0.025 C 
ATOM     21  C   UNL     1       6.430  -3.712   0.000  0.00  0.00    -0.035 C 
ENDBRANCH  15  16
ENDBRANCH  14  15
ENDBRANCH   2  14
TORSDOF 5
