REMARK  Name = 
REMARK  3 active torsions:
REMARK  status: ('A' for Active; 'I' for Inactive)
REMARK    1  A    between atoms: C_2  and  N_3
REMARK    2  A    between atoms: C_2  and  C_7
REMARK    3  A    between atoms: N_9  and  C_10
REMARK                            x       y       z     vdW  Elec       q    Type
REMARK                         _______ _______ _______ _____ _____    ______ ____
ROOT
ATOM      1  C   UNL     1       5.716  -6.600   0.000  0.00  0.00    +0.093 A 
ATOM      2  C   UNL     1       5.716  -7.425   0.000  0.00  0.00    +0.117 A 
ATOM      3  N   UNL     1       6.430  -7.838   0.000  0.00  0.00    -0.228 NA
ATOM      4  C   UNL     1       7.145  -7.425   0.000  0.00  0.00    +0.132 A 
ATOM      5  N   UNL     1       7.859  -7.838   0.000  0.00  0.00    -0.288 N 
ATOM      6  C   UNL     1       7.859  -8.662   0.000  0.00  0.00    +0.124 C 
ATOM      7  C   UNL     1       8.574  -9.075   0.000  0.00  0.00    +0.164 C 
ATOM      8  O   UNL     1       9.288  -8.662   0.000  0.00  0.00    -0.350 OA
ATOM      9  C   UNL     1       9.288  -7.838   0.000  0.00  0.00    +0.164 C 
ATOM     10  C   UNL     1       8.574  -7.425   0.000  0.00  0.00    +0.124 C 
ATOM     11  C   UNL     1       7.145  -6.600   0.000  0.00  0.00    +0.036 A 
ATOM     12  C   UNL     1       6.430  -6.188   0.000  0.00  0.00    +0.021 A 
ENDROOT
BRANCH   1  14
ATOM     13  C   UNL     1       4.287  -6.600   0.000  0.00  0.00    +0.266 C 
ATOM     14  N   UNL     1       5.001  -6.188   0.000  0.00  0.00    -0.176 NA
ATOM     15  O   UNL     1       4.287  -7.425   0.000  0.00  0.00    -0.271 OA
BRANCH  13  17
ATOM     16  C   UNL     1       3.572  -5.362   0.000  0.00  0.00    +0.033 C 
ATOM     17  C   UNL     1       3.572  -6.188   0.000  0.00  0.00    +0.175 C 
BRANCH  17  18
ATOM     18  N   UNL     1       2.858  -6.600   0.000  0.00  0.00    -0.178 NA
ATOM     19  C   UNL     1       2.143  -6.188   0.000  0.00  0.00    +0.359 C 
ATOM     20  N   UNL     1       2.143  -5.362   0.000  0.00  0.00    -0.068 NA
ATOM     21  O   UNL     1       1.429  -6.600   0.000  0.00  0.00    -0.247 OA
ENDBRANCH  17  18
ENDBRANCH  13  17
ENDBRANCH   1  14
TORSDOF 3
