REMARK  Name = 
REMARK  5 active torsions:
REMARK  status: ('A' for Active; 'I' for Inactive)
REMARK    1  A    between atoms: O_2  and  C_3
REMARK    2  A    between atoms: C_3  and  C_4
REMARK    3  A    between atoms: C_4  and  C_6
REMARK    4  A    between atoms: C_6  and  N_7
REMARK    5  A    between atoms: C_8  and  C_16
REMARK                            x       y       z     vdW  Elec       q    Type
REMARK                         _______ _______ _______ _____ _____    ______ ____
ROOT
ATOM      1  N   UNL     1       3.981   0.192   0.000  0.00  0.00    -0.306 N 
ATOM      2  C   UNL     1       3.313  -0.293   0.000  0.00  0.00    +0.079 A 
ATOM      3  C   UNL     1       3.568  -1.077   0.000  0.00  0.00    +0.099 A 
ATOM      4  C   UNL     1       3.016  -1.690   0.000  0.00  0.00    +0.021 A 
ATOM      5  C   UNL     1       2.209  -1.519   0.000  0.00  0.00    +0.002 A 
ATOM      6  C   UNL     1       1.954  -0.734   0.000  0.00  0.00    +0.002 A 
ATOM      7  N   UNL     1       4.393  -1.077   0.000  0.00  0.00    -0.223 NA
ATOM      8  C   UNL     1       2.506  -0.121   0.000  0.00  0.00    +0.019 A 
ATOM      9  C   UNL     1       4.648  -0.293   0.000  0.00  0.00    +0.217 A 
ENDROOT
BRANCH   9  10
ATOM     10  C   UNL     1       5.433  -0.038   0.000  0.00  0.00    +0.451 C 
ATOM     11  F   UNL     1       5.178   0.747   0.000  0.00  0.00    -0.163 F 
ATOM     12  F   UNL     1       5.688  -0.822   0.000  0.00  0.00    -0.163 F 
ATOM     13  F   UNL     1       6.218   0.217   0.000  0.00  0.00    -0.163 F 
ENDBRANCH   9  10
BRANCH   1  14
ATOM     14  C   UNL     1       3.981   1.017   0.000  0.00  0.00    +0.143 C 
BRANCH  14  15
ATOM     15  C   UNL     1       3.266   1.430   0.000  0.00  0.00    +0.204 C 
ATOM     16  O   UNL     1       3.266   2.255   0.000  0.00  0.00    -0.218 OA
BRANCH  15  17
ATOM     17  C   UNL     1       2.552   1.017   0.000  0.00  0.00    +0.177 C 
BRANCH  17  19
ATOM     18  C   UNL     1       1.123   1.017   0.000  0.00  0.00    +0.174 C 
ATOM     19  O   UNL     1       1.837   1.430   0.000  0.00  0.00    -0.348 OA
ENDBRANCH  17  19
ENDBRANCH  15  17
ENDBRANCH  14  15
ENDBRANCH   1  14
TORSDOF 5
