REMARK  Name = 
REMARK  7 active torsions:
REMARK  status: ('A' for Active; 'I' for Inactive)
REMARK    1  A    between atoms: O_2  and  C_3
REMARK    2  A    between atoms: C_5  and  C_6
REMARK    3  A    between atoms: C_10  and  O_11
REMARK    4  A    between atoms: O_11  and  C_12
REMARK    5  A    between atoms: C_12  and  C_13
REMARK    6  A    between atoms: C_13  and  N_14
REMARK    7  A    between atoms: C_15  and  C_23
REMARK                            x       y       z     vdW  Elec       q    Type
REMARK                         _______ _______ _______ _____ _____    ______ ____
ROOT
ATOM      1  C   UNL     1       0.884  -2.150   0.000  0.00  0.00    +0.154 C 
ENDROOT
BRANCH   1   2
ATOM      2  N   UNL     1       1.139  -1.365   0.000  0.00  0.00    -0.309 N 
ATOM      3  C   UNL     1       1.923  -1.110   0.000  0.00  0.00    +0.079 A 
ATOM      4  C   UNL     1       1.923  -0.285   0.000  0.00  0.00    +0.098 A 
ATOM      5  C   UNL     1       2.638   0.127   0.000  0.00  0.00    +0.021 A 
ATOM      6  C   UNL     1       3.352  -0.285   0.000  0.00  0.00    +0.002 A 
ATOM      7  C   UNL     1       3.352  -1.110   0.000  0.00  0.00    +0.002 A 
ATOM      8  N   UNL     1       1.139  -0.030   0.000  0.00  0.00    -0.228 NA
ATOM      9  C   UNL     1       2.638  -1.523   0.000  0.00  0.00    +0.019 A 
ATOM     10  C   UNL     1       0.654  -0.698   0.000  0.00  0.00    +0.151 A 
BRANCH  10  11
ATOM     11  C   UNL     1      -0.171  -0.698   0.000  0.00  0.00    +0.208 C 
ATOM     12  O   UNL     1      -0.584  -1.412   0.000  0.00  0.00    -0.215 OA
ATOM     13  C   UNL     1      -0.584   0.017   0.000  0.00  0.00    +0.044 C 
ENDBRANCH  10  11
ENDBRANCH   1   2
BRANCH   1  14
ATOM     14  C   UNL     1       0.077  -2.321   0.000  0.00  0.00    +0.230 C 
BRANCH  14  15
ATOM     15  O   UNL     1      -0.178  -3.106   0.000  0.00  0.00    -0.470 OA
BRANCH  15  17
ATOM     16  C   UNL     1      -1.240  -4.062   0.000  0.00  0.00    +0.173 A 
ATOM     17  C   UNL     1      -0.985  -3.278   0.000  0.00  0.00    +0.172 A 
ATOM     18  C   UNL     1      -1.537  -2.665   0.000  0.00  0.00    +0.041 A 
ATOM     19  C   UNL     1      -2.344  -2.836   0.000  0.00  0.00    +0.014 A 
ATOM     20  C   UNL     1      -2.599  -3.621   0.000  0.00  0.00    +0.072 A 
ATOM     21  C   UNL     1      -2.047  -4.234   0.000  0.00  0.00    +0.050 A 
BRANCH  20  22
ATOM     22  C   UNL     1      -3.406  -3.792   0.000  0.00  0.00    +0.101 C 
ATOM     23  N   UNL     1      -4.213  -3.964   0.000  0.00  0.00    -0.191 NA
ENDBRANCH  20  22
BRANCH  16  25
ATOM     24  C   UNL     1       0.119  -4.504   0.000  0.00  0.00    +0.253 C 
ATOM     25  O   UNL     1      -0.688  -4.675   0.000  0.00  0.00    -0.468 OA
ENDBRANCH  16  25
ENDBRANCH  15  17
ENDBRANCH  14  15
ENDBRANCH   1  14
TORSDOF 7
