REMARK  Name = 
REMARK  4 active torsions:
REMARK  status: ('A' for Active; 'I' for Inactive)
REMARK    1  A    between atoms: C_2  and  C_5
REMARK    2  A    between atoms: C_5  and  N_6
REMARK    3  A    between atoms: C_8  and  C_9
REMARK    4  A    between atoms: C_15  and  C_19
REMARK                            x       y       z     vdW  Elec       q    Type
REMARK                         _______ _______ _______ _____ _____    ______ ____
ROOT
ATOM      1  N   UNL     1       0.715  -1.238   0.000  0.00  0.00    -0.198 N 
ATOM      2  C   UNL     1       0.000  -1.650   0.000  0.00  0.00    +0.366 A 
ATOM      3  O   UNL     1      -0.715  -1.238   0.000  0.00  0.00    -0.243 OA
ATOM      4  N   UNL     1       0.000  -2.475   0.000  0.00  0.00    -0.190 NA
ATOM      5  C   UNL     1       0.715  -2.888   0.000  0.00  0.00    +0.105 A 
ATOM      6  C   UNL     1       1.429  -2.475   0.000  0.00  0.00    +0.119 A 
ATOM      7  N   UNL     1       1.429  -1.650   0.000  0.00  0.00    -0.164 NA
ENDROOT
BRANCH   5   8
ATOM      8  C   UNL     1       0.715  -3.712   0.000  0.00  0.00    +0.019 A 
ATOM      9  C   UNL     1       0.000  -4.125   0.000  0.00  0.00    +0.002 A 
ATOM     10  C   UNL     1       0.000  -4.950   0.000  0.00  0.00    +0.000 A 
ATOM     11  C   UNL     1       0.715  -5.362   0.000  0.00  0.00    +0.000 A 
ATOM     12  C   UNL     1       1.429  -4.950   0.000  0.00  0.00    +0.000 A 
ATOM     13  C   UNL     1       1.429  -4.125   0.000  0.00  0.00    +0.002 A 
ENDBRANCH   5   8
BRANCH   6  14
ATOM     14  C   UNL     1       2.143  -2.888   0.000  0.00  0.00    +0.021 A 
ATOM     15  C   UNL     1       2.143  -3.712   0.000  0.00  0.00    +0.002 A 
ATOM     16  C   UNL     1       2.858  -4.125   0.000  0.00  0.00    +0.000 A 
ATOM     17  C   UNL     1       3.572  -3.712   0.000  0.00  0.00    +0.000 A 
ATOM     18  C   UNL     1       3.572  -2.888   0.000  0.00  0.00    +0.000 A 
ATOM     19  C   UNL     1       2.858  -2.475   0.000  0.00  0.00    +0.002 A 
ENDBRANCH   6  14
BRANCH   1  20
ATOM     20  C   UNL     1       0.715  -0.412   0.000  0.00  0.00    +0.162 C 
BRANCH  20  22
ATOM     21  C   UNL     1      -0.715   0.412   0.000  0.00  0.00    +0.035 C 
ATOM     22  C   UNL     1       0.000   0.000   0.000  0.00  0.00    +0.149 C 
ATOM     23  O   UNL     1       0.412   0.715   0.000  0.00  0.00    -0.224 OA
ATOM     24  C   UNL     1      -0.412  -0.715   0.000  0.00  0.00    +0.035 C 
ENDBRANCH  20  22
ENDBRANCH   1  20
TORSDOF 4
