REMARK  Name = 
REMARK  7 active torsions:
REMARK  status: ('A' for Active; 'I' for Inactive)
REMARK    1  A    between atoms: N_1  and  C_12
REMARK    2  A    between atoms: N_2  and  C_14
REMARK    3  A    between atoms: C_4  and  C_13
REMARK    4  A    between atoms: N_8  and  C_20
REMARK    5  A    between atoms: C_12  and  C_13
REMARK    6  A    between atoms: C_20  and  C_26
REMARK    7  A    between atoms: O_24  and  C_26
REMARK                            x       y       z     vdW  Elec       q    Type
REMARK                         _______ _______ _______ _____ _____    ______ ____
ROOT
ATOM      1  C   UNL     1      -1.721  -4.325   0.000  0.00  0.00    +0.183 C 
ENDROOT
BRANCH   1   2
ATOM      2  N   UNL     1      -2.204  -4.992   0.000  0.00  0.00    -0.239 N 
ATOM      3  C   UNL     1      -1.871  -5.746   0.000  0.00  0.00    +0.294 A 
ATOM      4  O   UNL     1      -1.050  -5.829   0.000  0.00  0.00    -0.264 OA
ATOM      5  C   UNL     1      -2.354  -6.412   0.000  0.00  0.00    +0.213 A 
ATOM      6  C   UNL     1      -3.175  -6.325   0.000  0.00  0.00    +0.116 A 
ATOM      7  N   UNL     1      -3.508  -5.571   0.000  0.00  0.00    -0.255 N 
ATOM      8  F   UNL     1      -2.017  -7.167   0.000  0.00  0.00    -0.198 F 
ATOM      9  C   UNL     1      -3.025  -4.904   0.000  0.00  0.00    +0.336 A 
ATOM     10  O   UNL     1      -3.362  -4.150   0.000  0.00  0.00    -0.246 OA
BRANCH   7  11
ATOM     11  C   UNL     1      -4.329  -5.487   0.000  0.00  0.00    +0.208 C 
ATOM     12  C   UNL     1      -4.883  -6.100   0.000  0.00  0.00    +0.057 C 
ATOM     13  C   UNL     1      -5.638  -5.763   0.000  0.00  0.00    +0.037 C 
ATOM     14  C   UNL     1      -5.550  -4.942   0.000  0.00  0.00    +0.144 C 
ATOM     15  O   UNL     1      -4.742  -4.771   0.000  0.00  0.00    -0.335 OA
ENDBRANCH   7  11
ENDBRANCH   1   2
BRANCH   1  16
ATOM     16  C   UNL     1      -0.900  -4.408   0.000  0.00  0.00    +0.197 C 
ATOM     17  O   UNL     1      -0.562  -5.162   0.000  0.00  0.00    -0.289 OA
BRANCH  16  18
ATOM     18  C   UNL     1      -0.412  -3.742   0.000  0.00  0.00    +0.049 A 
ATOM     19  C   UNL     1       0.412  -3.742   0.000  0.00  0.00    +0.017 A 
ATOM     20  C   UNL     1       0.667  -2.958   0.000  0.00  0.00    +0.037 A 
ATOM     21  N   UNL     1       0.000  -2.475   0.000  0.00  0.00    -0.333 N 
ATOM     22  C   UNL     1       1.450  -2.704   0.000  0.00  0.00    +0.050 C 
ATOM     23  C   UNL     1      -0.671  -2.958   0.000  0.00  0.00    +0.040 A 
ATOM     24  C   UNL     1      -1.454  -2.704   0.000  0.00  0.00    +0.050 C 
BRANCH  21  25
ATOM     25  C   UNL     1       0.000  -1.650   0.000  0.00  0.00    +0.114 C 
ATOM     26  C   UNL     1      -0.717  -1.238   0.000  0.00  0.00    +0.027 C 
BRANCH  25  27
ATOM     27  C   UNL     1       0.713  -1.238   0.000  0.00  0.00    +0.165 C 
BRANCH  27  28
ATOM     28  O   UNL     1       0.713  -0.412   0.000  0.00  0.00    -0.349 OA
ATOM     29  C   UNL     1       1.425   0.000   0.000  0.00  0.00    +0.174 C 
ENDBRANCH  27  28
ENDBRANCH  25  27
ENDBRANCH  21  25
ENDBRANCH  16  18
ENDBRANCH   1  16
TORSDOF 7
