REMARK  Name = 
REMARK  4 active torsions:
REMARK  status: ('A' for Active; 'I' for Inactive)
REMARK    1  A    between atoms: C_2  and  C_3
REMARK    2  A    between atoms: N_7  and  C_8
REMARK    3  A    between atoms: C_8  and  C_9
REMARK    4  A    between atoms: C_9  and  N_10
REMARK                            x       y       z     vdW  Elec       q    Type
REMARK                         _______ _______ _______ _____ _____    ______ ____
ROOT
ATOM      1  N   UNL     1       3.861  -2.191   0.000  0.00  0.00    -0.186 NA
ATOM      2  C   UNL     1       4.575  -1.778   0.000  0.00  0.00    +0.323 C 
ATOM      3  N   UNL     1       4.575  -0.953   0.000  0.00  0.00    -0.264 N 
ATOM      4  C   UNL     1       5.242  -0.468   0.000  0.00  0.00    +0.077 C 
ATOM      5  C   UNL     1       4.987   0.316   0.000  0.00  0.00    +0.020 C 
ATOM      6  C   UNL     1       5.540   0.929   0.000  0.00  0.00    +0.002 C 
ATOM      7  C   UNL     1       6.346   0.758   0.000  0.00  0.00    +0.000 C 
ATOM      8  C   UNL     1       6.601  -0.027   0.000  0.00  0.00    +0.002 C 
ATOM      9  C   UNL     1       4.162   0.316   0.000  0.00  0.00    +0.023 C 
ATOM     10  C   UNL     1       6.050  -0.640   0.000  0.00  0.00    +0.020 C 
ATOM     11  C   UNL     1       3.908  -0.468   0.000  0.00  0.00    +0.095 C 
ATOM     12  O   UNL     1       5.290  -2.191   0.000  0.00  0.00    -0.251 OA
ENDROOT
BRANCH   1  13
ATOM     13  C   UNL     1       3.146  -1.778   0.000  0.00  0.00    +0.141 C 
BRANCH  13  14
ATOM     14  C   UNL     1       3.146  -0.953   0.000  0.00  0.00    +0.132 C 
BRANCH  14  16
ATOM     15  C   UNL     1       1.678  -0.876   0.000  0.00  0.00    +0.143 A 
ATOM     16  N   UNL     1       2.432  -0.541   0.000  0.00  0.00    -0.294 N 
ATOM     17  C   UNL     1       2.345   0.280   0.000  0.00  0.00    +0.202 A 
ATOM     18  N   UNL     1       1.538   0.451   0.000  0.00  0.00    -0.126 NA
ATOM     19  N   UNL     1       1.126  -0.263   0.000  0.00  0.00    -0.133 NA
BRANCH  15  21
ATOM     20  C   UNL     1       0.722  -1.938   0.000  0.00  0.00    +0.008 C 
ATOM     21  C   UNL     1       1.506  -1.683   0.000  0.00  0.00    +0.066 C 
ENDBRANCH  15  21
ENDBRANCH  14  16
ENDBRANCH  13  14
ENDBRANCH   1  13
TORSDOF 4
