REMARK  Name = 
REMARK  4 active torsions:
REMARK  status: ('A' for Active; 'I' for Inactive)
REMARK    1  A    between atoms: N_1  and  C_8
REMARK    2  A    between atoms: C_5  and  N_7
REMARK    3  A    between atoms: C_12  and  C_22
REMARK    4  A    between atoms: C_12  and  C_23
REMARK                            x       y       z     vdW  Elec       q    Type
REMARK                         _______ _______ _______ _____ _____    ______ ____
ROOT
ATOM      1  N   UNL     1       1.780  -0.254   0.000  0.00  0.00    -0.296 N 
ATOM      2  C   UNL     1       1.292   0.413   0.000  0.00  0.00    +0.180 A 
ATOM      3  N   UNL     1       1.780   1.084   0.000  0.00  0.00    -0.219 NA
ATOM      4  C   UNL     1       2.563   0.825   0.000  0.00  0.00    +0.149 A 
ATOM      5  C   UNL     1       3.276   1.238   0.000  0.00  0.00    +0.154 A 
ATOM      6  N   UNL     1       3.993   0.825   0.000  0.00  0.00    -0.207 NA
ATOM      7  C   UNL     1       3.993   0.000   0.000  0.00  0.00    +0.201 A 
ATOM      8  N   UNL     1       3.276  -0.413   0.000  0.00  0.00    -0.205 NA
ATOM      9  C   UNL     1       2.563   0.000   0.000  0.00  0.00    +0.167 A 
ENDROOT
BRANCH   5  10
ATOM     10  N   UNL     1       3.276   2.063   0.000  0.00  0.00    -0.291 N 
ATOM     11  C   UNL     1       2.534   2.422   0.000  0.00  0.00    +0.107 C 
ATOM     12  C   UNL     1       2.351   3.226   0.000  0.00  0.00    +0.113 C 
ATOM     13  S   UNL     1       2.863   3.872   0.000  0.00  0.00    +0.044 S 
ATOM     14  C   UNL     1       3.689   3.872   0.000  0.00  0.00    +0.093 C 
ATOM     15  C   UNL     1       4.206   3.226   0.000  0.00  0.00    +0.033 C 
ATOM     16  C   UNL     1       5.010   3.409   0.000  0.00  0.00    +0.003 C 
ATOM     17  O   UNL     1       2.509   4.614   0.000  0.00  0.00    -0.256 OA
ATOM     18  C   UNL     1       4.022   2.422   0.000  0.00  0.00    +0.093 C 
ENDBRANCH   5  10
BRANCH   1  19
ATOM     19  C   UNL     1       1.521  -1.038   0.000  0.00  0.00    +0.089 C 
ATOM     20  C   UNL     1       0.788  -1.413   0.000  0.00  0.00    +0.028 C 
ATOM     21  C   UNL     1       1.163  -2.147   0.000  0.00  0.00    +0.065 C 
ATOM     22  C   UNL     1       1.896  -1.771   0.000  0.00  0.00    +0.028 C 
BRANCH  21  23
ATOM     23  C   UNL     1       1.538  -2.884   0.000  0.00  0.00    +0.185 C 
ATOM     24  O   UNL     1       2.363  -2.926   0.000  0.00  0.00    -0.220 OA
ENDBRANCH  21  23
BRANCH  21  25
ATOM     25  C   UNL     1       0.429  -2.522   0.000  0.00  0.00    +0.185 C 
ATOM     26  O   UNL     1      -0.267  -2.071   0.000  0.00  0.00    -0.220 OA
ENDBRANCH  21  25
ENDBRANCH   1  19
TORSDOF 4
