REMARK  Name = 
REMARK  4 active torsions:
REMARK  status: ('A' for Active; 'I' for Inactive)
REMARK    1  A    between atoms: C_2  and  N_3
REMARK    2  A    between atoms: N_3  and  C_4
REMARK    3  A    between atoms: C_9  and  N_10
REMARK    4  A    between atoms: N_13  and  C_14
REMARK                            x       y       z     vdW  Elec       q    Type
REMARK                         _______ _______ _______ _____ _____    ______ ____
ROOT
ATOM      1  N   UNL     1       2.858  -4.950   0.000  0.00  0.00    -0.159 NA
ATOM      2  C   UNL     1       2.143  -5.362   0.000  0.00  0.00    +0.343 C 
ATOM      3  N   UNL     1       2.143  -6.188   0.000  0.00  0.00    -0.189 NA
ATOM      4  O   UNL     1       1.429  -4.950   0.000  0.00  0.00    -0.249 OA
ENDROOT
BRANCH   3   5
ATOM      5  C   UNL     1       1.429  -6.600   0.000  0.00  0.00    +0.100 C 
ATOM      6  C   UNL     1       0.715  -6.188   0.000  0.00  0.00    +0.043 C 
ATOM      7  C   UNL     1       0.000  -6.600   0.000  0.00  0.00    +0.095 C 
ATOM      8  N   UNL     1       0.000  -7.425   0.000  0.00  0.00    -0.279 N 
ATOM      9  C   UNL     1      -0.715  -7.838   0.000  0.00  0.00    +0.226 C 
ATOM     10  C   UNL     1      -1.429  -7.425   0.000  0.00  0.00    +0.095 C 
ATOM     11  O   UNL     1      -0.715  -8.662   0.000  0.00  0.00    -0.275 OA
ATOM     12  C   UNL     1       0.715  -7.838   0.000  0.00  0.00    +0.095 C 
ATOM     13  C   UNL     1       1.429  -7.425   0.000  0.00  0.00    +0.043 C 
ENDBRANCH   3   5
BRANCH   1  18
ATOM     14  N   UNL     1       2.858  -1.650   0.000  0.00  0.00    -0.293 N 
ATOM     15  C   UNL     1       2.858  -2.475   0.000  0.00  0.00    +0.132 A 
ATOM     16  N   UNL     1       2.143  -2.888   0.000  0.00  0.00    -0.228 NA
ATOM     17  C   UNL     1       2.143  -3.712   0.000  0.00  0.00    +0.117 A 
ATOM     18  C   UNL     1       2.858  -4.125   0.000  0.00  0.00    +0.094 A 
ATOM     19  C   UNL     1       3.572  -3.712   0.000  0.00  0.00    +0.021 A 
ATOM     20  C   UNL     1       3.572  -2.888   0.000  0.00  0.00    +0.036 A 
BRANCH  14  22
ATOM     21  C   UNL     1       4.287  -1.650   0.000  0.00  0.00    +0.023 C 
ATOM     22  C   UNL     1       3.572  -1.238   0.000  0.00  0.00    +0.092 C 
ENDBRANCH  14  22
BRANCH  14  23
ATOM     23  C   UNL     1       2.143  -1.238   0.000  0.00  0.00    +0.092 C 
ATOM     24  C   UNL     1       1.429  -1.650   0.000  0.00  0.00    +0.023 C 
ENDBRANCH  14  23
ENDBRANCH   1  18
TORSDOF 4
