REMARK  Name = 
REMARK  1 active torsions:
REMARK  status: ('A' for Active; 'I' for Inactive)
REMARK    1  A    between atoms: N_11  and  C_12
REMARK                            x       y       z     vdW  Elec       q    Type
REMARK                         _______ _______ _______ _____ _____    ______ ____
ROOT
ATOM      1  C   UNL     1      -3.036  -0.819   0.000  0.00  0.00    +0.031 C 
ATOM      2  C   UNL     1      -2.823  -0.022   0.000  0.00  0.00    -0.018 A 
ATOM      3  C   UNL     1      -2.026   0.192   0.000  0.00  0.00    +0.032 A 
ATOM      4  C   UNL     1      -1.812   0.989   0.000  0.00  0.00    +0.155 A 
ATOM      5  N   UNL     1      -1.015   1.202   0.000  0.00  0.00    -0.142 NA
ATOM      6  C   UNL     1      -0.432   0.619   0.000  0.00  0.00    +0.345 C 
ATOM      7  N   UNL     1       0.365   0.832   0.000  0.00  0.00    -0.189 NA
ATOM      8  O   UNL     1      -0.645  -0.178   0.000  0.00  0.00    -0.249 OA
ATOM      9  N   UNL     1      -2.396   1.572   0.000  0.00  0.00    -0.233 NA
ATOM     10  C   UNL     1      -3.192   1.358   0.000  0.00  0.00    +0.061 A 
ATOM     11  C   UNL     1      -3.776   1.942   0.000  0.00  0.00    +0.052 C 
ATOM     12  C   UNL     1      -3.406   0.561   0.000  0.00  0.00    +0.011 A 
ENDROOT
BRANCH   7  13
ATOM     13  C   UNL     1       0.948   0.249   0.000  0.00  0.00    +0.101 C 
ATOM     14  C   UNL     1       0.948  -0.576   0.000  0.00  0.00    +0.044 C 
ATOM     15  C   UNL     1       0.146  -0.769   0.000  0.00  0.00    +0.004 C 
ATOM     16  C   UNL     1       0.756  -1.378   0.000  0.00  0.00    +0.004 C 
ATOM     17  C   UNL     1       1.773  -0.576   0.000  0.00  0.00    +0.118 C 
ATOM     18  O   UNL     1       2.558  -0.831   0.000  0.00  0.00    -0.356 OA
ATOM     19  C   UNL     1       3.043  -0.164   0.000  0.00  0.00    +0.142 C 
ATOM     20  C   UNL     1       2.558   0.504   0.000  0.00  0.00    +0.036 C 
ATOM     21  C   UNL     1       1.773   0.249   0.000  0.00  0.00    +0.050 C 
ENDBRANCH   7  13
TORSDOF 1
