REMARK  Name = 
REMARK  5 active torsions:
REMARK  status: ('A' for Active; 'I' for Inactive)
REMARK    1  A    between atoms: C_7  and  N_8
REMARK    2  A    between atoms: N_11  and  C_12
REMARK    3  A    between atoms: C_12  and  C_13
REMARK    4  A    between atoms: C_13  and  N_14
REMARK    5  A    between atoms: C_13  and  C_20
REMARK                            x       y       z     vdW  Elec       q    Type
REMARK                         _______ _______ _______ _____ _____    ______ ____
ROOT
ATOM      1  C   UNL     1       0.715  -1.238   0.000  0.00  0.00    +0.104 C 
ENDROOT
BRANCH   1   2
ATOM      2  C   UNL     1       0.715  -0.412   0.000  0.00  0.00    +0.013 A 
ATOM      3  C   UNL     1       1.429   0.000   0.000  0.00  0.00    +0.096 A 
ATOM      4  N   UNL     1       1.429   0.825   0.000  0.00  0.00    -0.243 NA
ATOM      5  C   UNL     1       0.715   1.238   0.000  0.00  0.00    +0.099 A 
ATOM      6  C   UNL     1       0.000   0.825   0.000  0.00  0.00    +0.020 A 
ATOM      7  C   UNL     1       0.000   0.000   0.000  0.00  0.00    +0.000 A 
ENDBRANCH   1   2
BRANCH   1   8
ATOM      8  N   UNL     1       1.429  -1.650   0.000  0.00  0.00    -0.265 NA
ATOM      9  C   UNL     1       1.429  -2.475   0.000  0.00  0.00    +0.105 C 
ATOM     10  C   UNL     1       2.143  -2.888   0.000  0.00  0.00    +0.159 C 
ATOM     11  O   UNL     1       2.858  -2.475   0.000  0.00  0.00    -0.351 OA
ATOM     12  C   UNL     1       2.858  -1.650   0.000  0.00  0.00    +0.159 C 
ATOM     13  C   UNL     1       2.143  -1.238   0.000  0.00  0.00    +0.105 C 
ENDBRANCH   1   8
BRANCH   1  14
ATOM     14  C   UNL     1       0.000  -1.650   0.000  0.00  0.00    +0.137 C 
BRANCH  14  17
ATOM     15  N   UNL     1      -2.143  -1.238   0.000  0.00  0.00    -0.189 NA
ATOM     16  C   UNL     1      -1.429  -1.650   0.000  0.00  0.00    +0.339 C 
ATOM     17  N   UNL     1      -0.715  -1.238   0.000  0.00  0.00    -0.185 NA
ATOM     18  O   UNL     1      -1.429  -2.475   0.000  0.00  0.00    -0.249 OA
BRANCH  15  21
ATOM     19  C   UNL     1      -2.858  -3.291   0.000  0.00  0.00    +0.002 C 
ATOM     20  C   UNL     1      -2.944  -2.470   0.000  0.00  0.00    +0.019 C 
ATOM     21  C   UNL     1      -2.858  -1.650   0.000  0.00  0.00    +0.097 C 
ATOM     22  C   UNL     1      -3.612  -1.314   0.000  0.00  0.00    +0.022 C 
ATOM     23  C   UNL     1      -4.164  -1.927   0.000  0.00  0.00    +0.002 C 
ATOM     24  C   UNL     1      -3.751  -2.642   0.000  0.00  0.00    +0.002 C 
ATOM     25  C   UNL     1      -2.119  -2.470   0.000  0.00  0.00    +0.002 C 
ENDBRANCH  15  21
ENDBRANCH  14  17
ENDBRANCH   1  14
TORSDOF 5
