REMARK  Name = 
REMARK  6 active torsions:
REMARK  status: ('A' for Active; 'I' for Inactive)
REMARK    1  A    between atoms: C_2  and  O_3
REMARK    2  A    between atoms: O_3  and  C_4
REMARK    3  A    between atoms: C_4  and  C_5
REMARK    4  A    between atoms: N_7  and  C_8
REMARK    5  A    between atoms: C_11  and  O_12
REMARK    6  A    between atoms: C_15  and  N_16
REMARK                            x       y       z     vdW  Elec       q    Type
REMARK                         _______ _______ _______ _____ _____    ______ ____
ROOT
ATOM      1  C   UNL     1       4.206  -2.998   0.000  0.00  0.00    +0.105 A 
ATOM      2  C   UNL     1       4.618  -2.284   0.000  0.00  0.00    +0.150 A 
ATOM      3  N   UNL     1       4.206  -1.569   0.000  0.00  0.00    -0.195 NA
ATOM      4  C   UNL     1       3.381  -1.569   0.000  0.00  0.00    +0.226 A 
ATOM      5  C   UNL     1       2.968  -2.284   0.000  0.00  0.00    +0.059 A 
ATOM      6  C   UNL     1       3.381  -2.998   0.000  0.00  0.00    +0.024 A 
ENDROOT
BRANCH   2   7
ATOM      7  N   UNL     1       5.443  -2.284   0.000  0.00  0.00    -0.289 N 
ATOM      8  C   UNL     1       5.856  -2.998   0.000  0.00  0.00    +0.114 C 
ATOM      9  C   UNL     1       6.681  -2.998   0.000  0.00  0.00    +0.115 C 
ATOM     10  N   UNL     1       7.093  -2.284   0.000  0.00  0.00    -0.276 N 
ATOM     11  C   UNL     1       7.918  -2.284   0.000  0.00  0.00    +0.226 C 
ATOM     12  C   UNL     1       8.331  -2.998   0.000  0.00  0.00    +0.095 C 
ATOM     13  O   UNL     1       8.331  -1.569   0.000  0.00  0.00    -0.275 OA
ATOM     14  C   UNL     1       6.681  -1.569   0.000  0.00  0.00    +0.115 C 
ATOM     15  C   UNL     1       5.856  -1.569   0.000  0.00  0.00    +0.114 C 
ENDBRANCH   2   7
BRANCH   1  17
ATOM     16  C   UNL     1       4.206  -4.427   0.000  0.00  0.00    +0.276 C 
ATOM     17  N   UNL     1       4.618  -3.712   0.000  0.00  0.00    -0.174 NA
ATOM     18  O   UNL     1       4.618  -5.141   0.000  0.00  0.00    -0.270 OA
BRANCH  16  19
ATOM     19  C   UNL     1       3.381  -4.427   0.000  0.00  0.00    +0.229 C 
BRANCH  19  20
ATOM     20  O   UNL     1       2.968  -3.712   0.000  0.00  0.00    -0.344 OA
BRANCH  20  22
ATOM     21  C   UNL     1       1.731  -2.998   0.000  0.00  0.00    +0.035 C 
ATOM     22  C   UNL     1       2.143  -3.712   0.000  0.00  0.00    +0.143 C 
ENDBRANCH  20  22
ENDBRANCH  19  20
ENDBRANCH  16  19
ENDBRANCH   1  17
BRANCH   4  23
ATOM     23  O   UNL     1       2.968  -0.855   0.000  0.00  0.00    -0.456 OA
ATOM     24  C   UNL     1       3.381  -0.140   0.000  0.00  0.00    +0.254 C 
ENDBRANCH   4  23
TORSDOF 6
