REMARK  Name = 
REMARK  6 active torsions:
REMARK  status: ('A' for Active; 'I' for Inactive)
REMARK    1  A    between atoms: C_2  and  C_3
REMARK    2  A    between atoms: C_3  and  C_5
REMARK    3  A    between atoms: C_3  and  N_19
REMARK    4  A    between atoms: C_5  and  N_6
REMARK    5  A    between atoms: C_7  and  C_9
REMARK    6  A    between atoms: C_9  and  C_10
REMARK                            x       y       z     vdW  Elec       q    Type
REMARK                         _______ _______ _______ _____ _____    ______ ____
ROOT
ATOM      1  N   UNL     1       1.429  -2.475   0.000  0.00  0.00    -0.204 NA
ATOM      2  C   UNL     1       1.429  -3.300   0.000  0.00  0.00    +0.246 C 
ATOM      3  O   UNL     1       0.715  -3.712   0.000  0.00  0.00    -0.273 OA
ENDROOT
BRANCH   2   4
ATOM      4  C   UNL     1       2.143  -3.712   0.000  0.00  0.00    +0.119 C 
BRANCH   4   5
ATOM      5  C   UNL     1       2.143  -4.537   0.000  0.00  0.00    +0.058 A 
ATOM      6  C   UNL     1       1.429  -4.950   0.000  0.00  0.00    +0.278 A 
ATOM      7  O   UNL     1       0.715  -4.537   0.000  0.00  0.00    -0.265 OA
ATOM      8  N   UNL     1       1.429  -5.775   0.000  0.00  0.00    -0.193 NA
ATOM      9  C   UNL     1       2.143  -6.188   0.000  0.00  0.00    +0.142 A 
ATOM     10  C   UNL     1       2.143  -7.013   0.000  0.00  0.00    +0.074 C 
ATOM     11  N   UNL     1       2.858  -5.775   0.000  0.00  0.00    -0.235 NA
ATOM     12  C   UNL     1       2.858  -4.950   0.000  0.00  0.00    +0.062 A 
ATOM     13  C   UNL     1       3.572  -4.537   0.000  0.00  0.00    +0.052 C 
ENDBRANCH   4   5
ENDBRANCH   2   4
BRANCH   1  14
ATOM     14  C   UNL     1       0.715  -2.062   0.000  0.00  0.00    +0.130 C 
BRANCH  14  15
ATOM     15  C   UNL     1       0.715  -1.238   0.000  0.00  0.00    +0.066 C 
ATOM     16  C   UNL     1       1.540  -1.238   0.000  0.00  0.00    +0.018 C 
BRANCH  15  17
ATOM     17  N   UNL     1       0.715  -0.412   0.000  0.00  0.00    -0.269 NA
ATOM     18  C   UNL     1       1.429   0.000   0.000  0.00  0.00    +0.105 C 
ATOM     19  C   UNL     1       1.429   0.825   0.000  0.00  0.00    +0.159 C 
ATOM     20  O   UNL     1       0.715   1.238   0.000  0.00  0.00    -0.351 OA
ATOM     21  C   UNL     1       0.000   0.825   0.000  0.00  0.00    +0.159 C 
ATOM     22  C   UNL     1       0.000   0.000   0.000  0.00  0.00    +0.105 C 
ENDBRANCH  15  17
BRANCH  15  24
ATOM     23  C   UNL     1      -0.523  -0.523   0.000  0.00  0.00    +0.001 C 
ATOM     24  C   UNL     1      -0.111  -1.238   0.000  0.00  0.00    +0.016 C 
ENDBRANCH  15  24
ENDBRANCH  14  15
ENDBRANCH   1  14
TORSDOF 6
