REMARK  Name = 
REMARK  3 active torsions:
REMARK  status: ('A' for Active; 'I' for Inactive)
REMARK    1  A    between atoms: C_2  and  C_5
REMARK    2  A    between atoms: N_12  and  C_13
REMARK    3  A    between atoms: C_15  and  C_16
REMARK                            x       y       z     vdW  Elec       q    Type
REMARK                         _______ _______ _______ _____ _____    ______ ____
ROOT
ATOM      1  C   UNL     1       3.595  -1.611   0.000  0.00  0.00    +0.028 A 
ATOM      2  S   UNL     1       2.928  -2.096   0.000  0.00  0.00    -0.054 S 
ATOM      3  C   UNL     1       3.182  -2.881   0.000  0.00  0.00    +0.187 A 
ATOM      4  N   UNL     1       2.697  -3.548   0.000  0.00  0.00    -0.136 NA
ATOM      5  C   UNL     1       1.877  -3.462   0.000  0.00  0.00    +0.345 C 
ATOM      6  N   UNL     1       1.392  -4.130   0.000  0.00  0.00    -0.184 NA
ATOM      7  O   UNL     1       1.541  -2.708   0.000  0.00  0.00    -0.249 OA
ATOM      8  N   UNL     1       4.007  -2.881   0.000  0.00  0.00    -0.221 NA
ATOM      9  C   UNL     1       4.262  -2.096   0.000  0.00  0.00    +0.103 A 
ENDROOT
BRANCH   6  10
ATOM     10  C   UNL     1       0.572  -4.043   0.000  0.00  0.00    +0.119 C 
ATOM     11  C   UNL     1       0.159  -3.329   0.000  0.00  0.00    -0.009 C 
ATOM     12  C   UNL     1      -0.648  -3.500   0.000  0.00  0.00    -0.027 C 
ATOM     13  C   UNL     1      -0.734  -4.321   0.000  0.00  0.00    +0.057 C 
ATOM     14  C   UNL     1       0.020  -4.656   0.000  0.00  0.00    +0.033 C 
BRANCH  13  15
ATOM     15  C   UNL     1      -1.449  -4.733   0.000  0.00  0.00    +0.186 C 
ATOM     16  O   UNL     1      -1.449  -5.558   0.000  0.00  0.00    -0.220 OA
ENDBRANCH  13  15
ENDBRANCH   6  10
BRANCH   1  18
ATOM     17  C   UNL     1       3.595   0.039   0.000  0.00  0.00    +0.005 C 
ATOM     18  C   UNL     1       3.595  -0.786   0.000  0.00  0.00    +0.026 C 
ATOM     19  C   UNL     1       4.420  -0.786   0.000  0.00  0.00    +0.005 C 
ATOM     20  C   UNL     1       2.770  -0.786   0.000  0.00  0.00    +0.005 C 
ENDBRANCH   1  18
TORSDOF 3
