REMARK  Name = 
REMARK  6 active torsions:
REMARK  status: ('A' for Active; 'I' for Inactive)
REMARK    1  A    between atoms: N_2  and  C_8
REMARK    2  A    between atoms: C_5  and  N_7
REMARK    3  A    between atoms: N_7  and  C_9
REMARK    4  A    between atoms: N_7  and  C_21
REMARK    5  A    between atoms: C_13  and  C_22
REMARK    6  A    between atoms: C_13  and  C_23
REMARK                            x       y       z     vdW  Elec       q    Type
REMARK                         _______ _______ _______ _____ _____    ______ ____
ROOT
ATOM      1  C   UNL     1       2.567   0.826   0.000  0.00  0.00    +0.149 A 
ATOM      2  C   UNL     1       3.280   1.240   0.000  0.00  0.00    +0.155 A 
ATOM      3  N   UNL     1       3.998   0.826   0.000  0.00  0.00    -0.207 NA
ATOM      4  C   UNL     1       3.998   0.000   0.000  0.00  0.00    +0.201 A 
ATOM      5  N   UNL     1       3.280  -0.413   0.000  0.00  0.00    -0.205 NA
ATOM      6  N   UNL     1       1.782   1.085   0.000  0.00  0.00    -0.219 NA
ATOM      7  C   UNL     1       1.294   0.413   0.000  0.00  0.00    +0.180 A 
ATOM      8  N   UNL     1       1.782  -0.255   0.000  0.00  0.00    -0.296 N 
ATOM      9  C   UNL     1       2.567   0.000   0.000  0.00  0.00    +0.167 A 
ENDROOT
BRANCH   8  10
ATOM     10  C   UNL     1       1.523  -1.039   0.000  0.00  0.00    +0.089 C 
ATOM     11  C   UNL     1       0.789  -1.415   0.000  0.00  0.00    +0.028 C 
ATOM     12  C   UNL     1       1.164  -2.149   0.000  0.00  0.00    +0.065 C 
ATOM     13  C   UNL     1       1.899  -1.774   0.000  0.00  0.00    +0.028 C 
BRANCH  12  14
ATOM     14  C   UNL     1       1.540  -2.888   0.000  0.00  0.00    +0.185 C 
ATOM     15  O   UNL     1       2.366  -2.930   0.000  0.00  0.00    -0.220 OA
ENDBRANCH  12  14
BRANCH  12  16
ATOM     16  C   UNL     1       0.430  -2.525   0.000  0.00  0.00    +0.185 C 
ATOM     17  O   UNL     1      -0.267  -2.074   0.000  0.00  0.00    -0.220 OA
ENDBRANCH  12  16
ENDBRANCH   8  10
BRANCH   2  18
ATOM     18  N   UNL     1       3.280   2.066   0.000  0.00  0.00    -0.286 N 
BRANCH  18  19
ATOM     19  C   UNL     1       2.567   2.479   0.000  0.00  0.00    +0.154 C 
ATOM     20  C   UNL     1       1.811   2.145   0.000  0.00  0.00    +0.053 C 
ATOM     21  C   UNL     1       1.260   2.759   0.000  0.00  0.00    +0.117 C 
ATOM     22  N   UNL     1       1.674   3.477   0.000  0.00  0.00    -0.204 NA
ATOM     23  C   UNL     1       2.479   3.301   0.000  0.00  0.00    +0.259 C 
ATOM     24  O   UNL     1       3.093   3.856   0.000  0.00  0.00    -0.272 OA
ENDBRANCH  18  19
BRANCH  18  25
ATOM     25  C   UNL     1       3.998   2.479   0.000  0.00  0.00    +0.093 C 
ATOM     26  C   UNL     1       4.712   2.066   0.000  0.00  0.00    +0.023 C 
ENDBRANCH  18  25
ENDBRANCH   2  18
TORSDOF 6
