REMARK  Name = 
REMARK  2 active torsions:
REMARK  status: ('A' for Active; 'I' for Inactive)
REMARK    1  A    between atoms: C_2  and  C_4
REMARK    2  A    between atoms: C_8  and  N_10
REMARK                            x       y       z     vdW  Elec       q    Type
REMARK                         _______ _______ _______ _____ _____    ______ ____
ROOT
ATOM      1  C   UNL     1       0.715  -1.238   0.000  0.00  0.00    +0.100 A 
ATOM      2  C   UNL     1       0.000  -1.650   0.000  0.00  0.00    +0.024 A 
ATOM      3  C   UNL     1       0.000  -2.475   0.000  0.00  0.00    +0.068 A 
ATOM      4  C   UNL     1       0.715  -2.888   0.000  0.00  0.00    +0.113 A 
ATOM      5  N   UNL     1       1.429  -2.475   0.000  0.00  0.00    -0.241 NA
ATOM      6  C   UNL     1       1.429  -1.650   0.000  0.00  0.00    +0.106 A 
ENDROOT
BRANCH   3   7
ATOM      7  N   UNL     1      -0.715  -2.888   0.000  0.00  0.00    -0.302 N 
ATOM      8  C   UNL     1      -1.429  -2.475   0.000  0.00  0.00    +0.123 C 
ATOM      9  C   UNL     1      -2.143  -2.888   0.000  0.00  0.00    +0.164 C 
ATOM     10  O   UNL     1      -2.143  -3.712   0.000  0.00  0.00    -0.350 OA
ATOM     11  C   UNL     1      -1.429  -4.125   0.000  0.00  0.00    +0.164 C 
ATOM     12  C   UNL     1      -0.715  -3.712   0.000  0.00  0.00    +0.123 C 
ENDBRANCH   3   7
BRANCH   1  14
ATOM     13  O   UNL     1       1.429   0.000   0.000  0.00  0.00    -0.240 OA
ATOM     14  C   UNL     1       0.715  -0.412   0.000  0.00  0.00    +0.389 C 
ATOM     15  O   UNL     1       0.000   0.000   0.000  0.00  0.00    -0.240 OA
ENDBRANCH   1  14
TORSDOF 2
