REMARK  Name = 
REMARK  6 active torsions:
REMARK  status: ('A' for Active; 'I' for Inactive)
REMARK    1  A    between atoms: C_2  and  C_4
REMARK    2  A    between atoms: C_4  and  C_5
REMARK    3  A    between atoms: C_4  and  N_15
REMARK    4  A    between atoms: C_5  and  N_6
REMARK    5  A    between atoms: C_7  and  C_9
REMARK    6  A    between atoms: C_9  and  N_10
REMARK                            x       y       z     vdW  Elec       q    Type
REMARK                         _______ _______ _______ _____ _____    ______ ____
ROOT
ATOM      1  C   UNL     1       0.715  -1.238   0.000  0.00  0.00    +0.079 C 
ENDROOT
BRANCH   1   2
ATOM      2  N   UNL     1       0.000  -0.825   0.000  0.00  0.00    -0.272 NA
ATOM      3  C   UNL     1       0.000   0.000   0.000  0.00  0.00    +0.072 C 
ATOM      4  C   UNL     1      -0.715   0.412   0.000  0.00  0.00    +0.017 C 
ATOM      5  C   UNL     1      -1.429   0.000   0.000  0.00  0.00    +0.003 C 
ATOM      6  C   UNL     1      -2.143   0.412   0.000  0.00  0.00    +0.000 C 
ATOM      7  C   UNL     1      -1.429  -0.825   0.000  0.00  0.00    +0.017 C 
ATOM      8  C   UNL     1      -0.715  -1.238   0.000  0.00  0.00    +0.072 C 
ENDBRANCH   1   2
BRANCH   1  10
ATOM      9  C   UNL     1       1.429  -2.475   0.000  0.00  0.00    +0.001 C 
ATOM     10  C   UNL     1       0.715  -2.062   0.000  0.00  0.00    +0.016 C 
ATOM     11  C   UNL     1       0.000  -2.475   0.000  0.00  0.00    +0.001 C 
ENDBRANCH   1  10
BRANCH   1  12
ATOM     12  C   UNL     1       1.429  -0.825   0.000  0.00  0.00    +0.131 C 
BRANCH  12  13
ATOM     13  N   UNL     1       2.143  -1.238   0.000  0.00  0.00    -0.202 NA
ATOM     14  C   UNL     1       2.858  -0.825   0.000  0.00  0.00    +0.266 C 
ATOM     15  O   UNL     1       2.858   0.000   0.000  0.00  0.00    -0.271 OA
BRANCH  14  16
ATOM     16  C   UNL     1       3.572  -1.238   0.000  0.00  0.00    +0.217 C 
BRANCH  16  17
ATOM     17  N   UNL     1       4.287  -0.825   0.000  0.00  0.00    -0.201 N 
ATOM     18  N   UNL     1       5.040  -1.161   0.000  0.00  0.00    -0.042 NA
ATOM     19  N   UNL     1       5.593  -0.547   0.000  0.00  0.00    -0.023 NA
ATOM     20  N   UNL     1       5.180   0.167   0.000  0.00  0.00    -0.105 NA
ATOM     21  C   UNL     1       4.373  -0.004   0.000  0.00  0.00    +0.222 A 
ENDBRANCH  16  17
ENDBRANCH  14  16
ENDBRANCH  12  13
ENDBRANCH   1  12
TORSDOF 6
