REMARK  Name = 
REMARK  5 active torsions:
REMARK  status: ('A' for Active; 'I' for Inactive)
REMARK    1  A    between atoms: N_9  and  C_10
REMARK    2  A    between atoms: C_10  and  C_11
REMARK    3  A    between atoms: N_13  and  C_14
REMARK    4  A    between atoms: C_14  and  C_15
REMARK    5  A    between atoms: C_15  and  C_19
REMARK                            x       y       z     vdW  Elec       q    Type
REMARK                         _______ _______ _______ _____ _____    ______ ____
ROOT
ATOM      1  C   UNL     1       2.143  -1.238   0.000  0.00  0.00    +0.265 C 
ATOM      2  N   UNL     1       2.858  -0.825   0.000  0.00  0.00    -0.204 NA
ATOM      3  O   UNL     1       2.143  -2.062   0.000  0.00  0.00    -0.271 OA
ENDROOT
BRANCH   1   4
ATOM      4  C   UNL     1       1.429  -0.825   0.000  0.00  0.00    +0.196 C 
BRANCH   4   7
ATOM      5  C   UNL     1       1.429  -2.475   0.000  0.00  0.00    +0.050 C 
ATOM      6  C   UNL     1       0.715  -2.062   0.000  0.00  0.00    +0.044 A 
ATOM      7  N   UNL     1       0.715  -1.238   0.000  0.00  0.00    -0.290 N 
ATOM      8  C   UNL     1       0.000  -0.825   0.000  0.00  0.00    +0.264 A 
ATOM      9  O   UNL     1       0.000   0.000   0.000  0.00  0.00    -0.267 OA
ATOM     10  C   UNL     1      -0.715  -1.238   0.000  0.00  0.00    +0.103 A 
ATOM     11  C   UNL     1      -0.715  -2.062   0.000  0.00  0.00    +0.202 A 
ATOM     12  O   UNL     1      -1.429  -2.475   0.000  0.00  0.00    -0.286 OA
ATOM     13  C   UNL     1       0.000  -2.475   0.000  0.00  0.00    +0.055 A 
ENDBRANCH   4   7
ENDBRANCH   1   4
BRANCH   2  14
ATOM     14  C   UNL     1       3.572  -1.238   0.000  0.00  0.00    +0.115 C 
BRANCH  14  15
ATOM     15  C   UNL     1       4.287  -0.825   0.000  0.00  0.00    +0.020 C 
ATOM     16  C   UNL     1       4.699  -1.540   0.000  0.00  0.00    +0.002 C 
ATOM     17  C   UNL     1       5.414  -1.127   0.000  0.00  0.00    +0.000 C 
ATOM     18  C   UNL     1       5.001  -0.412   0.000  0.00  0.00    +0.002 C 
BRANCH  15  19
ATOM     19  C   UNL     1       3.874  -0.111   0.000  0.00  0.00    +0.002 C 
ATOM     20  C   UNL     1       3.874   0.715   0.000  0.00  0.00    +0.000 C 
ATOM     21  C   UNL     1       3.160   0.302   0.000  0.00  0.00    +0.000 C 
ENDBRANCH  15  19
ENDBRANCH  14  15
ENDBRANCH   2  14
TORSDOF 5
