REMARK  Name = 
REMARK  2 active torsions:
REMARK  status: ('A' for Active; 'I' for Inactive)
REMARK    1  A    between atoms: N_7  and  C_8
REMARK    2  A    between atoms: C_8  and  C_9
REMARK                            x       y       z     vdW  Elec       q    Type
REMARK                         _______ _______ _______ _____ _____    ______ ____
ROOT
ATOM      1  C   UNL     1       0.715  -0.412   0.000  0.00  0.00    +0.153 C 
ATOM      2  O   UNL     1       0.715  -1.238   0.000  0.00  0.00    -0.352 OA
ATOM      3  C   UNL     1       1.429  -1.650   0.000  0.00  0.00    +0.158 C 
ATOM      4  C   UNL     1       2.143  -1.238   0.000  0.00  0.00    +0.087 C 
ATOM      5  N   UNL     1       2.143  -0.412   0.000  0.00  0.00    -0.270 NA
ATOM      6  C   UNL     1       2.858   0.000   0.000  0.00  0.00    +0.072 C 
ATOM      7  C   UNL     1       3.572  -0.412   0.000  0.00  0.00    +0.017 C 
ATOM      8  C   UNL     1       3.572  -1.238   0.000  0.00  0.00    +0.003 C 
ATOM      9  C   UNL     1       2.858  -1.650   0.000  0.00  0.00    +0.019 C 
ATOM     10  C   UNL     1       1.429   0.000   0.000  0.00  0.00    +0.104 C 
ENDROOT
BRANCH   1  11
ATOM     11  C   UNL     1       0.000   0.000   0.000  0.00  0.00    +0.146 C 
BRANCH  11  16
ATOM     12  C   UNL     1      -3.572  -0.412   0.000  0.00  0.00    +0.052 C 
ATOM     13  C   UNL     1      -2.858   0.000   0.000  0.00  0.00    +0.064 A 
ATOM     14  N   UNL     1      -2.143  -0.412   0.000  0.00  0.00    -0.217 NA
ATOM     15  C   UNL     1      -1.429   0.000   0.000  0.00  0.00    +0.236 A 
ATOM     16  N   UNL     1      -0.715  -0.412   0.000  0.00  0.00    -0.201 NA
ATOM     17  N   UNL     1      -1.429   0.825   0.000  0.00  0.00    -0.211 NA
ATOM     18  C   UNL     1      -2.143   1.238   0.000  0.00  0.00    +0.103 A 
ATOM     19  C   UNL     1      -2.858   0.825   0.000  0.00  0.00    +0.036 A 
ENDBRANCH  11  16
ENDBRANCH   1  11
TORSDOF 2
