REMARK  Name = 
REMARK  3 active torsions:
REMARK  status: ('A' for Active; 'I' for Inactive)
REMARK    1  A    between atoms: C_7  and  N_8
REMARK    2  A    between atoms: C_9  and  C_11
REMARK    3  A    between atoms: C_11  and  C_12
REMARK                            x       y       z     vdW  Elec       q    Type
REMARK                         _______ _______ _______ _____ _____    ______ ____
ROOT
ATOM      1  N   UNL     1       1.429  -2.475   0.000  0.00  0.00    -0.207 NA
ATOM      2  C   UNL     1       1.429  -1.650   0.000  0.00  0.00    +0.246 C 
ATOM      3  O   UNL     1       2.143  -1.238   0.000  0.00  0.00    -0.273 OA
ENDROOT
BRANCH   1   6
ATOM      4  C   UNL     1       2.858  -1.650   0.000  0.00  0.00    +0.002 C 
ATOM      5  C   UNL     1       2.858  -2.475   0.000  0.00  0.00    +0.020 C 
ATOM      6  C   UNL     1       2.143  -2.888   0.000  0.00  0.00    +0.095 C 
ATOM      7  C   UNL     1       2.143  -3.712   0.000  0.00  0.00    +0.022 C 
ATOM      8  C   UNL     1       2.858  -4.125   0.000  0.00  0.00    +0.002 C 
ATOM      9  C   UNL     1       3.572  -3.712   0.000  0.00  0.00    +0.000 C 
ATOM     10  C   UNL     1       3.572  -2.888   0.000  0.00  0.00    +0.002 C 
ENDBRANCH   1   6
BRANCH   2  11
ATOM     11  C   UNL     1       0.715  -1.238   0.000  0.00  0.00    +0.119 C 
BRANCH  11  12
ATOM     12  C   UNL     1       0.715  -0.412   0.000  0.00  0.00    +0.058 A 
ATOM     13  C   UNL     1       1.429   0.000   0.000  0.00  0.00    +0.278 A 
ATOM     14  O   UNL     1       2.143  -0.412   0.000  0.00  0.00    -0.265 OA
ATOM     15  N   UNL     1       1.429   0.825   0.000  0.00  0.00    -0.193 NA
ATOM     16  C   UNL     1       0.715   1.238   0.000  0.00  0.00    +0.142 A 
ATOM     17  C   UNL     1       0.715   2.062   0.000  0.00  0.00    +0.074 C 
ATOM     18  N   UNL     1       0.000   0.825   0.000  0.00  0.00    -0.235 NA
ATOM     19  C   UNL     1       0.000   0.000   0.000  0.00  0.00    +0.062 A 
ATOM     20  C   UNL     1      -0.715  -0.412   0.000  0.00  0.00    +0.052 C 
ENDBRANCH  11  12
ENDBRANCH   2  11
TORSDOF 3
