REMARK  Name = 
REMARK  3 active torsions:
REMARK  status: ('A' for Active; 'I' for Inactive)
REMARK    1  A    between atoms: C_2  and  N_5
REMARK    2  A    between atoms: N_12  and  C_13
REMARK    3  A    between atoms: C_18  and  C_19
REMARK                            x       y       z     vdW  Elec       q    Type
REMARK                         _______ _______ _______ _____ _____    ______ ____
ROOT
ATOM      1  N   UNL     1       1.322  -2.537   0.000  0.00  0.00    -0.252 N 
ATOM      2  N   UNL     1       0.655  -3.022   0.000  0.00  0.00    -0.152 NA
ATOM      3  C   UNL     1       0.910  -3.806   0.000  0.00  0.00    +0.177 A 
ATOM      4  N   UNL     1       0.425  -4.474   0.000  0.00  0.00    -0.140 NA
ATOM      5  C   UNL     1      -0.396  -4.387   0.000  0.00  0.00    +0.345 C 
ATOM      6  N   UNL     1      -0.731  -3.634   0.000  0.00  0.00    -0.189 NA
ATOM      7  O   UNL     1      -0.881  -5.055   0.000  0.00  0.00    -0.249 OA
ATOM      8  C   UNL     1       1.735  -3.806   0.000  0.00  0.00    +0.058 A 
ATOM      9  C   UNL     1       1.990  -3.022   0.000  0.00  0.00    +0.098 A 
ENDROOT
BRANCH   6  10
ATOM     10  C   UNL     1      -1.552  -3.547   0.000  0.00  0.00    +0.099 C 
ATOM     11  C   UNL     1      -1.887  -2.794   0.000  0.00  0.00    +0.053 C 
ATOM     12  C   UNL     1      -2.708  -2.708   0.000  0.00  0.00    +0.004 C 
ATOM     13  C   UNL     1      -3.193  -3.375   0.000  0.00  0.00    +0.000 C 
ATOM     14  C   UNL     1      -2.857  -4.129   0.000  0.00  0.00    +0.002 C 
ATOM     15  C   UNL     1      -2.037  -4.215   0.000  0.00  0.00    +0.022 C 
BRANCH  11  16
ATOM     16  C   UNL     1      -1.402  -2.126   0.000  0.00  0.00    +0.184 C 
ATOM     17  O   UNL     1      -0.582  -2.213   0.000  0.00  0.00    -0.220 OA
ENDBRANCH  11  16
ENDBRANCH   6  10
BRANCH   1  19
ATOM     18  C   UNL     1       1.322  -0.887   0.000  0.00  0.00    +0.024 C 
ATOM     19  C   UNL     1       1.322  -1.712   0.000  0.00  0.00    +0.087 C 
ATOM     20  C   UNL     1       2.147  -1.712   0.000  0.00  0.00    +0.024 C 
ATOM     21  C   UNL     1       0.497  -1.712   0.000  0.00  0.00    +0.024 C 
ENDBRANCH   1  19
TORSDOF 3
