REMARK  Name = 
REMARK  3 active torsions:
REMARK  status: ('A' for Active; 'I' for Inactive)
REMARK    1  A    between atoms: N_5  and  C_6
REMARK    2  A    between atoms: C_6  and  C_7
REMARK    3  A    between atoms: N_9  and  C_10
REMARK                            x       y       z     vdW  Elec       q    Type
REMARK                         _______ _______ _______ _____ _____    ______ ____
ROOT
ATOM      1  C   UNL     1      -0.275   1.407   0.000  0.00  0.00    +0.217 C 
ENDROOT
BRANCH   1   8
ATOM      2 CL   UNL     1      -1.618  -1.608   0.000  0.00  0.00    -0.080 Cl
ATOM      3  C   UNL     1      -1.282  -0.854   0.000  0.00  0.00    +0.094 A 
ATOM      4  C   UNL     1      -0.462  -0.768   0.000  0.00  0.00    +0.127 A 
ATOM      5 CL   UNL     1       0.023  -1.435   0.000  0.00  0.00    -0.076 Cl
ATOM      6  C   UNL     1      -0.126  -0.014   0.000  0.00  0.00    +0.288 A 
ATOM      7  O   UNL     1       0.694   0.072   0.000  0.00  0.00    -0.265 OA
ATOM      8  N   UNL     1      -0.611   0.653   0.000  0.00  0.00    -0.206 N 
ATOM      9  N   UNL     1      -1.431   0.567   0.000  0.00  0.00    -0.164 NA
ATOM     10  C   UNL     1      -1.767  -0.186   0.000  0.00  0.00    +0.133 A 
ENDBRANCH   1   8
BRANCH   1  11
ATOM     11  C   UNL     1      -0.760   2.075   0.000  0.00  0.00    +0.266 C 
ATOM     12  N   UNL     1      -0.425   2.828   0.000  0.00  0.00    -0.204 NA
ATOM     13  O   UNL     1      -1.581   1.988   0.000  0.00  0.00    -0.271 OA
BRANCH  12  14
ATOM     14  C   UNL     1      -0.910   3.496   0.000  0.00  0.00    +0.121 C 
ATOM     15  C   UNL     1      -0.655   4.280   0.000  0.00  0.00    +0.172 C 
ATOM     16  S   UNL     1      -1.322   4.765   0.000  0.00  0.00    -0.008 S 
ATOM     17  O   UNL     1      -0.770   5.378   0.000  0.00  0.00    -0.173 OA
ATOM     18  O   UNL     1      -1.874   5.378   0.000  0.00  0.00    -0.173 OA
ATOM     19  C   UNL     1      -1.990   4.280   0.000  0.00  0.00    +0.153 C 
ATOM     20  C   UNL     1      -1.735   3.496   0.000  0.00  0.00    +0.049 C 
ENDBRANCH  12  14
ENDBRANCH   1  11
TORSDOF 3
