REMARK  Name = 
REMARK  4 active torsions:
REMARK  status: ('A' for Active; 'I' for Inactive)
REMARK    1  A    between atoms: C_2  and  N_3
REMARK    2  A    between atoms: C_2  and  C_16
REMARK    3  A    between atoms: N_3  and  C_4
REMARK    4  A    between atoms: C_5  and  C_6
REMARK                            x       y       z     vdW  Elec       q    Type
REMARK                         _______ _______ _______ _____ _____    ______ ____
ROOT
ATOM      1  C   UNL     1       0.715  -0.412   0.000  0.00  0.00    +0.146 A 
ATOM      2  N   UNL     1       1.429   0.000   0.000  0.00  0.00    -0.266 N 
ATOM      3  C   UNL     1       2.143  -0.412   0.000  0.00  0.00    +0.136 C 
ATOM      4  C   UNL     1       1.429   0.825   0.000  0.00  0.00    +0.335 A 
ATOM      5  O   UNL     1       2.143   1.238   0.000  0.00  0.00    -0.246 OA
ATOM      6  N   UNL     1       0.715   1.238   0.000  0.00  0.00    -0.246 N 
ATOM      7  C   UNL     1       0.715   2.062   0.000  0.00  0.00    +0.138 C 
ATOM      8  C   UNL     1       0.000   0.825   0.000  0.00  0.00    +0.277 A 
ATOM      9  O   UNL     1      -0.715   1.238   0.000  0.00  0.00    -0.266 OA
ATOM     10  C   UNL     1       0.000   0.000   0.000  0.00  0.00    +0.156 A 
ENDROOT
BRANCH  10  11
ATOM     11  C   UNL     1      -0.715  -0.412   0.000  0.00  0.00    +0.108 C 
ATOM     12  N   UNL     1      -1.429  -0.825   0.000  0.00  0.00    -0.191 NA
ENDBRANCH  10  11
BRANCH   1  13
ATOM     13  N   UNL     1       0.715  -1.238   0.000  0.00  0.00    -0.220 NA
BRANCH  13  15
ATOM     14  C   UNL     1       2.143  -1.238   0.000  0.00  0.00    +0.026 C 
ATOM     15  C   UNL     1       1.429  -1.650   0.000  0.00  0.00    +0.121 C 
BRANCH  15  16
ATOM     16  C   UNL     1       1.429  -2.475   0.000  0.00  0.00    +0.135 C 
ATOM     17  O   UNL     1       0.761  -2.960   0.000  0.00  0.00    -0.354 OA
ATOM     18  C   UNL     1       1.016  -3.744   0.000  0.00  0.00    +0.142 C 
ATOM     19  C   UNL     1       1.841  -3.744   0.000  0.00  0.00    +0.035 C 
ATOM     20  C   UNL     1       2.096  -2.960   0.000  0.00  0.00    +0.034 C 
ENDBRANCH  15  16
ENDBRANCH  13  15
ENDBRANCH   1  13
TORSDOF 4
