REMARK  Name = 
REMARK  4 active torsions:
REMARK  status: ('A' for Active; 'I' for Inactive)
REMARK    1  A    between atoms: C_2  and  C_5
REMARK    2  A    between atoms: C_5  and  C_6
REMARK    3  A    between atoms: N_8  and  C_9
REMARK    4  A    between atoms: C_9  and  C_10
REMARK                            x       y       z     vdW  Elec       q    Type
REMARK                         _______ _______ _______ _____ _____    ______ ____
ROOT
ATOM      1  C   UNL     1       0.715  -1.238   0.000  0.00  0.00    +0.019 A 
ATOM      2  C   UNL     1       0.000  -1.650   0.000  0.00  0.00    +0.098 A 
ATOM      3  N   UNL     1       0.000  -2.475   0.000  0.00  0.00    -0.229 NA
ATOM      4  C   UNL     1       0.715  -2.888   0.000  0.00  0.00    +0.132 A 
ATOM      5  N   UNL     1       0.715  -3.712   0.000  0.00  0.00    -0.288 N 
ATOM      6  C   UNL     1       0.000  -4.125   0.000  0.00  0.00    +0.124 C 
ATOM      7  C   UNL     1       0.000  -4.950   0.000  0.00  0.00    +0.164 C 
ATOM      8  O   UNL     1       0.715  -5.362   0.000  0.00  0.00    -0.350 OA
ATOM      9  C   UNL     1       1.429  -4.950   0.000  0.00  0.00    +0.164 C 
ATOM     10  C   UNL     1       1.429  -4.125   0.000  0.00  0.00    +0.124 C 
ATOM     11  C   UNL     1       1.429  -2.475   0.000  0.00  0.00    +0.034 A 
ATOM     12  C   UNL     1       1.429  -1.650   0.000  0.00  0.00    +0.002 A 
ENDROOT
BRANCH   1  13
ATOM     13  C   UNL     1       0.715  -0.412   0.000  0.00  0.00    +0.143 C 
BRANCH  13  15
ATOM     14  C   UNL     1       0.000   0.825   0.000  0.00  0.00    +0.242 C 
ATOM     15  N   UNL     1       0.000   0.000   0.000  0.00  0.00    -0.200 NA
ATOM     16  O   UNL     1       0.715   1.238   0.000  0.00  0.00    -0.273 OA
BRANCH  14  17
ATOM     17  C   UNL     1      -0.715   1.238   0.000  0.00  0.00    +0.087 C 
BRANCH  17  19
ATOM     18  C   UNL     1      -0.715   2.888   0.000  0.00  0.00    +0.000 C 
ATOM     19  C   UNL     1      -0.715   2.062   0.000  0.00  0.00    +0.009 C 
ATOM     20  C   UNL     1       0.111   2.062   0.000  0.00  0.00    +0.000 C 
ATOM     21  C   UNL     1      -1.540   2.062   0.000  0.00  0.00    +0.000 C 
ENDBRANCH  17  19
ENDBRANCH  14  17
ENDBRANCH  13  15
ENDBRANCH   1  13
TORSDOF 4
