REMARK  Name = 
REMARK  5 active torsions:
REMARK  status: ('A' for Active; 'I' for Inactive)
REMARK    1  A    between atoms: C_2  and  S_3
REMARK    2  A    between atoms: S_3  and  C_4
REMARK    3  A    between atoms: C_8  and  N_9
REMARK    4  A    between atoms: N_12  and  C_13
REMARK    5  A    between atoms: N_16  and  C_18
REMARK                            x       y       z     vdW  Elec       q    Type
REMARK                         _______ _______ _______ _____ _____    ______ ____
ROOT
ATOM      1  N   UNL     1      -1.731  -3.100   0.000  0.00  0.00    -0.188 NA
ATOM      2  C   UNL     1      -2.344  -3.652   0.000  0.00  0.00    +0.344 C 
ATOM      3  N   UNL     1      -3.129  -3.397   0.000  0.00  0.00    -0.158 NA
ATOM      4  O   UNL     1      -2.173  -4.459   0.000  0.00  0.00    -0.249 OA
ENDROOT
BRANCH   1   6
ATOM      5  C   UNL     1      -0.279  -2.870   0.000  0.00  0.00    +0.068 C 
ATOM      6  C   UNL     1      -0.947  -3.355   0.000  0.00  0.00    +0.107 C 
ATOM      7  C   UNL     1      -0.692  -4.140   0.000  0.00  0.00    +0.023 C 
ATOM      8  C   UNL     1       0.133  -4.140   0.000  0.00  0.00    +0.003 C 
ATOM      9  C   UNL     1       0.388  -3.355   0.000  0.00  0.00    +0.013 C 
BRANCH   5  10
ATOM     10  S   UNL     1      -0.279  -2.045   0.000  0.00  0.00    -0.139 S 
BRANCH  10  12
ATOM     11  C   UNL     1       0.435  -0.808   0.000  0.00  0.00    +0.013 C 
ATOM     12  C   UNL     1       0.435  -1.633   0.000  0.00  0.00    +0.058 C 
ENDBRANCH  10  12
ENDBRANCH   5  10
ENDBRANCH   1   6
BRANCH   3  13
ATOM     13  C   UNL     1      -3.742  -3.949   0.000  0.00  0.00    +0.114 A 
ATOM     14  C   UNL     1      -4.549  -3.778   0.000  0.00  0.00    +0.113 A 
ATOM     15  N   UNL     1      -4.962  -4.492   0.000  0.00  0.00    -0.250 N 
ATOM     16  N   UNL     1      -4.410  -5.105   0.000  0.00  0.00    -0.166 NA
ATOM     17  C   UNL     1      -3.656  -4.770   0.000  0.00  0.00    +0.138 A 
BRANCH  15  18
ATOM     18  C   UNL     1      -5.782  -4.578   0.000  0.00  0.00    +0.105 C 
ATOM     19  C   UNL     1      -6.267  -3.911   0.000  0.00  0.00    +0.026 C 
ATOM     20  C   UNL     1      -6.117  -5.332   0.000  0.00  0.00    +0.026 C 
ENDBRANCH  15  18
ENDBRANCH   3  13
TORSDOF 5
