REMARK  Name = 
REMARK  4 active torsions:
REMARK  status: ('A' for Active; 'I' for Inactive)
REMARK    1  A    between atoms: C_2  and  C_3
REMARK    2  A    between atoms: C_2  and  N_17
REMARK    3  A    between atoms: C_3  and  N_4
REMARK    4  A    between atoms: N_7  and  C_8
REMARK                            x       y       z     vdW  Elec       q    Type
REMARK                         _______ _______ _______ _____ _____    ______ ____
ROOT
ATOM      1  N   UNL     1       2.143  -1.238   0.000  0.00  0.00    -0.185 NA
ATOM      2  C   UNL     1       2.858  -0.825   0.000  0.00  0.00    +0.344 C 
ATOM      3  N   UNL     1       3.572  -1.238   0.000  0.00  0.00    -0.159 NA
ATOM      4  O   UNL     1       2.858   0.000   0.000  0.00  0.00    -0.249 OA
ENDROOT
BRANCH   3   5
ATOM      5  C   UNL     1       4.287  -0.825   0.000  0.00  0.00    +0.094 A 
ATOM      6  C   UNL     1       5.001  -1.238   0.000  0.00  0.00    +0.117 A 
ATOM      7  N   UNL     1       5.716  -0.825   0.000  0.00  0.00    -0.228 NA
ATOM      8  C   UNL     1       5.716   0.000   0.000  0.00  0.00    +0.132 A 
ATOM      9  N   UNL     1       6.430   0.412   0.000  0.00  0.00    -0.290 N 
ATOM     10  C   UNL     1       6.430   1.238   0.000  0.00  0.00    +0.114 C 
ATOM     11  C   UNL     1       7.145   0.000   0.000  0.00  0.00    +0.114 C 
ATOM     12  C   UNL     1       5.001   0.412   0.000  0.00  0.00    +0.036 A 
ATOM     13  C   UNL     1       4.287   0.000   0.000  0.00  0.00    +0.021 A 
ENDBRANCH   3   5
BRANCH   1  14
ATOM     14  C   UNL     1       1.429  -0.825   0.000  0.00  0.00    +0.133 C 
BRANCH  14  16
ATOM     15  C   UNL     1       0.715  -2.062   0.000  0.00  0.00    +0.019 C 
ATOM     16  C   UNL     1       0.715  -1.238   0.000  0.00  0.00    +0.079 C 
BRANCH  16  17
ATOM     17  N   UNL     1       0.000  -0.825   0.000  0.00  0.00    -0.268 NA
ATOM     18  C   UNL     1       0.000   0.000   0.000  0.00  0.00    +0.105 C 
ATOM     19  C   UNL     1      -0.715   0.412   0.000  0.00  0.00    +0.159 C 
ATOM     20  O   UNL     1      -1.429   0.000   0.000  0.00  0.00    -0.351 OA
ATOM     21  C   UNL     1      -1.429  -0.825   0.000  0.00  0.00    +0.159 C 
ATOM     22  C   UNL     1      -0.715  -1.238   0.000  0.00  0.00    +0.105 C 
ENDBRANCH  16  17
ENDBRANCH  14  16
ENDBRANCH   1  14
TORSDOF 4
