REMARK  Name = 
REMARK  5 active torsions:
REMARK  status: ('A' for Active; 'I' for Inactive)
REMARK    1  A    between atoms: N_7  and  C_8
REMARK    2  A    between atoms: C_8  and  C_9
REMARK    3  A    between atoms: C_9  and  C_11
REMARK    4  A    between atoms: C_11  and  N_12
REMARK    5  A    between atoms: C_15  and  C_16
REMARK                            x       y       z     vdW  Elec       q    Type
REMARK                         _______ _______ _______ _____ _____    ______ ____
ROOT
ATOM      1  C   UNL     1       2.784   0.698   0.000  0.00  0.00    +0.031 C 
ATOM      2  C   UNL     1       2.070   1.110   0.000  0.00  0.00    -0.024 A 
ATOM      3  C   UNL     1       2.070   1.935   0.000  0.00  0.00    -0.024 A 
ATOM      4  C   UNL     1       2.784   2.348   0.000  0.00  0.00    +0.031 C 
ATOM      5  C   UNL     1       1.356   2.348   0.000  0.00  0.00    +0.014 A 
ATOM      6  C   UNL     1       0.641   1.935   0.000  0.00  0.00    +0.079 A 
ATOM      7  C   UNL     1       0.641   1.110   0.000  0.00  0.00    +0.098 A 
ATOM      8  N   UNL     1      -0.143   0.856   0.000  0.00  0.00    -0.224 NA
ATOM      9  C   UNL     1      -0.628   1.523   0.000  0.00  0.00    +0.179 A 
ATOM     10  N   UNL     1      -0.143   2.190   0.000  0.00  0.00    -0.306 N 
ATOM     11  C   UNL     1       1.356   0.698   0.000  0.00  0.00    +0.016 A 
ENDROOT
BRANCH  10  12
ATOM     12  C   UNL     1      -0.398   2.975   0.000  0.00  0.00    +0.142 C 
BRANCH  12  13
ATOM     13  C   UNL     1      -1.205   3.147   0.000  0.00  0.00    +0.199 C 
ATOM     14  O   UNL     1      -1.758   2.533   0.000  0.00  0.00    -0.219 OA
BRANCH  13  15
ATOM     15  C   UNL     1      -1.460   3.931   0.000  0.00  0.00    +0.164 C 
BRANCH  15  16
ATOM     16  N   UNL     1      -2.267   4.103   0.000  0.00  0.00    -0.227 N 
ATOM     17  N   UNL     1      -2.603   4.856   0.000  0.00  0.00    -0.137 NA
ATOM     18  C   UNL     1      -3.423   4.770   0.000  0.00  0.00    +0.252 A 
ATOM     19  N   UNL     1      -3.595   3.963   0.000  0.00  0.00    -0.195 NA
ATOM     20  C   UNL     1      -2.880   3.551   0.000  0.00  0.00    +0.198 A 
BRANCH  18  21
ATOM     21  C   UNL     1      -3.975   5.383   0.000  0.00  0.00    +0.142 C 
ATOM     22  N   UNL     1      -4.527   5.996   0.000  0.00  0.00    -0.188 NA
ENDBRANCH  18  21
ENDBRANCH  15  16
ENDBRANCH  13  15
ENDBRANCH  12  13
ENDBRANCH  10  12
TORSDOF 5
