REMARK  Name = 
REMARK  5 active torsions:
REMARK  status: ('A' for Active; 'I' for Inactive)
REMARK    1  A    between atoms: C_2  and  C_3
REMARK    2  A    between atoms: C_3  and  C_6
REMARK    3  A    between atoms: C_6  and  N_7
REMARK    4  A    between atoms: N_12  and  C_13
REMARK    5  A    between atoms: C_13  and  C_14
REMARK                            x       y       z     vdW  Elec       q    Type
REMARK                         _______ _______ _______ _____ _____    ______ ____
ROOT
ATOM      1  N   UNL     1       1.139  -1.365   0.000  0.00  0.00    -0.292 N 
ATOM      2  C   UNL     1       1.923  -1.110   0.000  0.00  0.00    +0.167 A 
ATOM      3  C   UNL     1       1.923  -0.285   0.000  0.00  0.00    +0.150 A 
ATOM      4  C   UNL     1       2.638   0.127   0.000  0.00  0.00    +0.170 A 
ATOM      5  N   UNL     1       3.352  -0.285   0.000  0.00  0.00    -0.206 NA
ATOM      6  C   UNL     1       3.352  -1.110   0.000  0.00  0.00    +0.202 A 
ATOM      7  N   UNL     1       2.638   0.952   0.000  0.00  0.00    -0.214 NA
ATOM      8  N   UNL     1       1.139  -0.030   0.000  0.00  0.00    -0.219 NA
ATOM      9  N   UNL     1       2.638  -1.523   0.000  0.00  0.00    -0.205 NA
ATOM     10  C   UNL     1       0.654  -0.698   0.000  0.00  0.00    +0.180 A 
ENDROOT
BRANCH   1  11
ATOM     11  C   UNL     1       0.884  -2.150   0.000  0.00  0.00    +0.139 C 
BRANCH  11  12
ATOM     12  C   UNL     1       0.077  -2.321   0.000  0.00  0.00    +0.147 C 
ATOM     13  O   UNL     1      -0.095  -1.515   0.000  0.00  0.00    -0.224 OA
ATOM     14  C   UNL     1       0.248  -3.128   0.000  0.00  0.00    +0.035 C 
BRANCH  12  16
ATOM     15  C   UNL     1      -0.985  -3.278   0.000  0.00  0.00    +0.003 C 
ATOM     16  C   UNL     1      -0.730  -2.493   0.000  0.00  0.00    +0.032 C 
ENDBRANCH  12  16
ENDBRANCH  11  12
ENDBRANCH   1  11
BRANCH   7  17
ATOM     17  C   UNL     1       1.923   1.365   0.000  0.00  0.00    +0.140 C 
BRANCH  17  18
ATOM     18  C   UNL     1       1.923   2.190   0.000  0.00  0.00    -0.001 A 
ATOM     19  C   UNL     1       2.638   2.602   0.000  0.00  0.00    -0.003 A 
ATOM     20  C   UNL     1       2.638   3.427   0.000  0.00  0.00    -0.000 A 
ATOM     21  C   UNL     1       1.923   3.840   0.000  0.00  0.00    -0.000 A 
ATOM     22  C   UNL     1       1.209   3.427   0.000  0.00  0.00    -0.000 A 
ATOM     23  C   UNL     1       1.209   2.602   0.000  0.00  0.00    -0.003 A 
ENDBRANCH  17  18
ENDBRANCH   7  17
TORSDOF 5
