REMARK  Name = 
REMARK  1 active torsions:
REMARK  status: ('A' for Active; 'I' for Inactive)
REMARK    1  A    between atoms: C_7  and  N_8
REMARK                            x       y       z     vdW  Elec       q    Type
REMARK                         _______ _______ _______ _____ _____    ______ ____
ROOT
ATOM      1  N   UNL     1       1.429  -2.475   0.000  0.00  0.00    -0.186 NA
ATOM      2  C   UNL     1       1.429  -1.650   0.000  0.00  0.00    +0.345 C 
ATOM      3  N   UNL     1       0.715  -1.238   0.000  0.00  0.00    -0.142 NA
ATOM      4  C   UNL     1       0.715  -0.412   0.000  0.00  0.00    +0.156 A 
ATOM      5  N   UNL     1       1.429   0.000   0.000  0.00  0.00    -0.227 NA
ATOM      6  C   UNL     1       1.429   0.825   0.000  0.00  0.00    +0.100 A 
ATOM      7  C   UNL     1       0.715   1.238   0.000  0.00  0.00    +0.021 A 
ATOM      8  C   UNL     1       0.000   0.825   0.000  0.00  0.00    +0.005 A 
ATOM      9  C   UNL     1       0.000   0.000   0.000  0.00  0.00    +0.036 A 
ATOM     10  O   UNL     1       2.143  -1.238   0.000  0.00  0.00    -0.249 OA
ENDROOT
BRANCH   1  13
ATOM     11  O   UNL     1       2.858  -1.650   0.000  0.00  0.00    -0.221 OA
ATOM     12  C   UNL     1       2.858  -2.475   0.000  0.00  0.00    +0.172 C 
ATOM     13  C   UNL     1       2.143  -2.888   0.000  0.00  0.00    +0.127 C 
ATOM     14  C   UNL     1       2.143  -3.712   0.000  0.00  0.00    +0.024 C 
ATOM     15  C   UNL     1       2.858  -4.125   0.000  0.00  0.00    +0.002 C 
ATOM     16  C   UNL     1       3.572  -3.712   0.000  0.00  0.00    +0.003 C 
ATOM     17  C   UNL     1       3.572  -2.888   0.000  0.00  0.00    +0.035 C 
ENDBRANCH   1  13
TORSDOF 1
