REMARK  Name = 
REMARK  7 active torsions:
REMARK  status: ('A' for Active; 'I' for Inactive)
REMARK    1  A    between atoms: N_2  and  C_4
REMARK    2  A    between atoms: C_4  and  C_5
REMARK    3  A    between atoms: C_5  and  N_6
REMARK    4  A    between atoms: C_7  and  C_9
REMARK    5  A    between atoms: C_9  and  N_10
REMARK    6  A    between atoms: C_12  and  N_13
REMARK    7  A    between atoms: C_14  and  C_16
REMARK                            x       y       z     vdW  Elec       q    Type
REMARK                         _______ _______ _______ _____ _____    ______ ____
ROOT
ATOM      1  N   UNL     1       6.736  -3.364   0.000  0.00  0.00    -0.239 N 
ATOM      2  N   UNL     1       6.822  -4.185   0.000  0.00  0.00    -0.166 NA
ATOM      3  C   UNL     1       7.629  -4.356   0.000  0.00  0.00    +0.138 A 
ATOM      4  C   UNL     1       8.041  -3.642   0.000  0.00  0.00    +0.113 A 
ATOM      5  C   UNL     1       7.489  -3.029   0.000  0.00  0.00    +0.114 A 
ENDROOT
BRANCH   4   6
ATOM      6  N   UNL     1       8.862  -3.556   0.000  0.00  0.00    -0.176 NA
ATOM      7  C   UNL     1       9.197  -2.802   0.000  0.00  0.00    +0.245 C 
ATOM      8  O   UNL     1       8.713  -2.135   0.000  0.00  0.00    -0.273 OA
BRANCH   7   9
ATOM      9  C   UNL     1      10.018  -2.716   0.000  0.00  0.00    +0.079 C 
ATOM     10  C   UNL     1      10.659  -3.235   0.000  0.00  0.00    +0.009 C 
ATOM     11  C   UNL     1      11.178  -2.594   0.000  0.00  0.00    +0.001 C 
ATOM     12  C   UNL     1      10.537  -2.075   0.000  0.00  0.00    +0.009 C 
ENDBRANCH   7   9
ENDBRANCH   4   6
BRANCH   1  13
ATOM     13  C   UNL     1       6.021  -2.952   0.000  0.00  0.00    +0.214 C 
BRANCH  13  15
ATOM     14  N   UNL     1       4.592  -2.952   0.000  0.00  0.00    -0.202 NA
ATOM     15  C   UNL     1       5.307  -3.364   0.000  0.00  0.00    +0.266 C 
ATOM     16  O   UNL     1       5.307  -4.189   0.000  0.00  0.00    -0.271 OA
BRANCH  14  17
ATOM     17  C   UNL     1       3.878  -3.364   0.000  0.00  0.00    +0.132 C 
BRANCH  17  18
ATOM     18  C   UNL     1       3.163  -2.952   0.000  0.00  0.00    +0.096 C 
BRANCH  18  20
ATOM     19  C   UNL     1       1.734  -2.952   0.000  0.00  0.00    +0.090 C 
ATOM     20  N   UNL     1       2.449  -3.364   0.000  0.00  0.00    -0.269 NA
ATOM     21  C   UNL     1       2.449  -4.189   0.000  0.00  0.00    +0.090 C 
ENDBRANCH  18  20
ENDBRANCH  17  18
ENDBRANCH  14  17
ENDBRANCH  13  15
ENDBRANCH   1  13
TORSDOF 7
