REMARK  Name = 
REMARK  5 active torsions:
REMARK  status: ('A' for Active; 'I' for Inactive)
REMARK    1  A    between atoms: N_2  and  C_4
REMARK    2  A    between atoms: C_9  and  N_10
REMARK    3  A    between atoms: N_13  and  C_14
REMARK    4  A    between atoms: C_14  and  C_15
REMARK    5  A    between atoms: C_15  and  C_18
REMARK                            x       y       z     vdW  Elec       q    Type
REMARK                         _______ _______ _______ _____ _____    ______ ____
ROOT
ATOM      1  N   UNL     1       2.143  -0.412   0.000  0.00  0.00    -0.157 NA
ATOM      2  C   UNL     1       2.858   0.000   0.000  0.00  0.00    +0.344 C 
ATOM      3  N   UNL     1       3.572  -0.412   0.000  0.00  0.00    -0.187 NA
ATOM      4  O   UNL     1       2.858   0.825   0.000  0.00  0.00    -0.249 OA
ENDROOT
BRANCH   1   6
ATOM      5  C   UNL     1       0.715  -0.412   0.000  0.00  0.00    +0.151 A 
ATOM      6  C   UNL     1       1.429   0.000   0.000  0.00  0.00    +0.126 A 
ATOM      7  C   UNL     1       1.429   0.825   0.000  0.00  0.00    +0.120 A 
ATOM      8  N   UNL     1       0.715   1.238   0.000  0.00  0.00    -0.221 NA
ATOM      9  C   UNL     1       0.000   0.825   0.000  0.00  0.00    +0.200 A 
ATOM     10  N   UNL     1       0.000   0.000   0.000  0.00  0.00    -0.208 NA
BRANCH   5  12
ATOM     11  C   UNL     1       0.000  -1.650   0.000  0.00  0.00    +0.114 C 
ATOM     12  N   UNL     1       0.715  -1.238   0.000  0.00  0.00    -0.289 N 
ATOM     13  C   UNL     1       1.429  -1.650   0.000  0.00  0.00    +0.114 C 
ENDBRANCH   5  12
ENDBRANCH   1   6
BRANCH   3  14
ATOM     14  C   UNL     1       4.287   0.000   0.000  0.00  0.00    +0.117 C 
BRANCH  14  15
ATOM     15  C   UNL     1       5.001  -0.412   0.000  0.00  0.00    +0.020 C 
ATOM     16  C   UNL     1       4.719  -1.188   0.000  0.00  0.00    +0.002 C 
ATOM     17  C   UNL     1       5.532  -1.044   0.000  0.00  0.00    +0.002 C 
BRANCH  15  18
ATOM     18  C   UNL     1       5.532   0.220   0.000  0.00  0.00    +0.002 C 
ATOM     19  C   UNL     1       6.307   0.502   0.000  0.00  0.00    +0.000 C 
ATOM     20  C   UNL     1       5.675   1.032   0.000  0.00  0.00    +0.000 C 
ENDBRANCH  15  18
ENDBRANCH  14  15
ENDBRANCH   3  14
TORSDOF 5
