REMARK  Name = 
REMARK  4 active torsions:
REMARK  status: ('A' for Active; 'I' for Inactive)
REMARK    1  A    between atoms: C_2  and  N_3
REMARK    2  A    between atoms: C_2  and  C_14
REMARK    3  A    between atoms: C_4  and  C_6
REMARK    4  A    between atoms: C_6  and  C_7
REMARK                            x       y       z     vdW  Elec       q    Type
REMARK                         _______ _______ _______ _____ _____    ______ ____
ROOT
ATOM      1  N   UNL     1      -1.429   0.000   0.000  0.00  0.00    -0.207 NA
ATOM      2  C   UNL     1      -0.715   0.412   0.000  0.00  0.00    +0.246 C 
ATOM      3  O   UNL     1      -0.715   1.238   0.000  0.00  0.00    -0.273 OA
ENDROOT
BRANCH   1   5
ATOM      4  C   UNL     1      -2.143   1.238   0.000  0.00  0.00    +0.023 C 
ATOM      5  C   UNL     1      -2.143   0.412   0.000  0.00  0.00    +0.095 C 
BRANCH   5   6
ATOM      6  C   UNL     1      -2.858   0.000   0.000  0.00  0.00    +0.020 C 
ATOM      7  C   UNL     1      -2.858  -0.825   0.000  0.00  0.00    +0.002 C 
ATOM      8  C   UNL     1      -3.469  -0.234   0.000  0.00  0.00    +0.000 C 
ATOM      9  C   UNL     1      -4.287   0.000   0.000  0.00  0.00    +0.000 C 
ATOM     10  C   UNL     1      -4.287  -0.825   0.000  0.00  0.00    +0.000 C 
ATOM     11  C   UNL     1      -3.572  -1.238   0.000  0.00  0.00    +0.000 C 
ATOM     12  C   UNL     1      -3.572   0.412   0.000  0.00  0.00    +0.002 C 
ENDBRANCH   5   6
ENDBRANCH   1   5
BRANCH   2  13
ATOM     13  C   UNL     1       0.000   0.000   0.000  0.00  0.00    +0.118 C 
BRANCH  13  14
ATOM     14  C   UNL     1       0.715   0.412   0.000  0.00  0.00    +0.052 A 
ATOM     15  C   UNL     1       1.468   0.077   0.000  0.00  0.00    +0.231 A 
ATOM     16 CL   UNL     1       1.640  -0.730   0.000  0.00  0.00    -0.040 Cl
ATOM     17  O   UNL     1       2.020   0.690   0.000  0.00  0.00    -0.342 OA
ATOM     18  N   UNL     1       1.608   1.405   0.000  0.00  0.00    -0.081 NA
ATOM     19  C   UNL     1       0.801   1.233   0.000  0.00  0.00    +0.098 A 
ATOM     20  C   UNL     1       0.188   1.785   0.000  0.00  0.00    +0.055 C 
ENDBRANCH  13  14
ENDBRANCH   2  13
TORSDOF 4
