REMARK  Name = 
REMARK  5 active torsions:
REMARK  status: ('A' for Active; 'I' for Inactive)
REMARK    1  A    between atoms: C_2  and  C_3
REMARK    2  A    between atoms: C_8  and  N_9
REMARK    3  A    between atoms: N_12  and  C_13
REMARK    4  A    between atoms: N_16  and  C_17
REMARK    5  A    between atoms: C_17  and  C_18
REMARK                            x       y       z     vdW  Elec       q    Type
REMARK                         _______ _______ _______ _____ _____    ______ ____
ROOT
ATOM      1  N   UNL     1       5.609   3.115   0.000  0.00  0.00    -0.189 NA
ATOM      2  C   UNL     1       5.609   2.290   0.000  0.00  0.00    +0.344 C 
ATOM      3  N   UNL     1       4.895   1.878   0.000  0.00  0.00    -0.158 NA
ATOM      4  O   UNL     1       6.324   1.878   0.000  0.00  0.00    -0.249 OA
ENDROOT
BRANCH   1   6
ATOM      5  C   UNL     1       6.324   4.353   0.000  0.00  0.00    +0.020 C 
ATOM      6  C   UNL     1       6.324   3.528   0.000  0.00  0.00    +0.097 C 
ATOM      7  C   UNL     1       7.038   3.115   0.000  0.00  0.00    +0.022 C 
ATOM      8  C   UNL     1       7.753   3.528   0.000  0.00  0.00    +0.002 C 
ATOM      9  C   UNL     1       7.753   4.353   0.000  0.00  0.00    +0.000 C 
ATOM     10  C   UNL     1       7.038   4.765   0.000  0.00  0.00    +0.002 C 
BRANCH   5  12
ATOM     11  C   UNL     1       5.609   5.590   0.000  0.00  0.00    +0.000 C 
ATOM     12  C   UNL     1       5.609   4.765   0.000  0.00  0.00    +0.002 C 
ENDBRANCH   5  12
ENDBRANCH   1   6
BRANCH   3  13
ATOM     13  C   UNL     1       4.895   1.053   0.000  0.00  0.00    +0.115 A 
ATOM     14  C   UNL     1       4.227   0.568   0.000  0.00  0.00    +0.114 A 
ATOM     15  N   UNL     1       4.482  -0.217   0.000  0.00  0.00    -0.239 N 
ATOM     16  N   UNL     1       5.307  -0.217   0.000  0.00  0.00    -0.166 NA
ATOM     17  C   UNL     1       5.562   0.568   0.000  0.00  0.00    +0.138 A 
BRANCH  15  18
ATOM     18  C   UNL     1       3.997  -0.884   0.000  0.00  0.00    +0.215 C 
BRANCH  18  19
ATOM     19  C   UNL     1       3.177  -0.798   0.000  0.00  0.00    +0.286 C 
ATOM     20  N   UNL     1       2.841  -0.044   0.000  0.00  0.00    -0.086 NA
ATOM     21  O   UNL     1       2.692  -1.466   0.000  0.00  0.00    -0.269 OA
ENDBRANCH  18  19
ENDBRANCH  15  18
ENDBRANCH   3  13
TORSDOF 5
