REMARK  Name = 
REMARK  4 active torsions:
REMARK  status: ('A' for Active; 'I' for Inactive)
REMARK    1  A    between atoms: C_2  and  C_3
REMARK    2  A    between atoms: C_2  and  N_16
REMARK    3  A    between atoms: C_3  and  N_4
REMARK    4  A    between atoms: N_7  and  C_8
REMARK                            x       y       z     vdW  Elec       q    Type
REMARK                         _______ _______ _______ _____ _____    ______ ____
ROOT
ATOM      1  N   UNL     1       2.143  -1.238   0.000  0.00  0.00    -0.185 NA
ATOM      2  C   UNL     1       2.858  -0.825   0.000  0.00  0.00    +0.344 C 
ATOM      3  N   UNL     1       3.572  -1.238   0.000  0.00  0.00    -0.159 NA
ATOM      4  O   UNL     1       2.858   0.000   0.000  0.00  0.00    -0.249 OA
ENDROOT
BRANCH   3   5
ATOM      5  C   UNL     1       4.287  -0.825   0.000  0.00  0.00    +0.092 A 
ATOM      6  C   UNL     1       5.001  -1.238   0.000  0.00  0.00    +0.095 A 
ATOM      7  N   UNL     1       5.716  -0.825   0.000  0.00  0.00    -0.291 N 
ATOM      8  C   UNL     1       6.430  -1.238   0.000  0.00  0.00    +0.134 C 
ATOM      9  C   UNL     1       5.716   0.000   0.000  0.00  0.00    +0.261 A 
ATOM     10  O   UNL     1       6.430   0.412   0.000  0.00  0.00    -0.267 OA
ATOM     11  C   UNL     1       5.001   0.412   0.000  0.00  0.00    +0.062 A 
ATOM     12  C   UNL     1       4.287   0.000   0.000  0.00  0.00    +0.023 A 
ENDBRANCH   3   5
BRANCH   1  13
ATOM     13  C   UNL     1       1.429  -0.825   0.000  0.00  0.00    +0.133 C 
BRANCH  13  15
ATOM     14  C   UNL     1       0.715  -2.062   0.000  0.00  0.00    +0.019 C 
ATOM     15  C   UNL     1       0.715  -1.238   0.000  0.00  0.00    +0.079 C 
BRANCH  15  16
ATOM     16  N   UNL     1       0.000  -0.825   0.000  0.00  0.00    -0.268 NA
ATOM     17  C   UNL     1       0.000   0.000   0.000  0.00  0.00    +0.105 C 
ATOM     18  C   UNL     1      -0.715   0.412   0.000  0.00  0.00    +0.159 C 
ATOM     19  O   UNL     1      -1.429   0.000   0.000  0.00  0.00    -0.351 OA
ATOM     20  C   UNL     1      -1.429  -0.825   0.000  0.00  0.00    +0.159 C 
ATOM     21  C   UNL     1      -0.715  -1.238   0.000  0.00  0.00    +0.105 C 
ENDBRANCH  15  16
ENDBRANCH  13  15
ENDBRANCH   1  13
TORSDOF 4
