REMARK  Name = 
REMARK  3 active torsions:
REMARK  status: ('A' for Active; 'I' for Inactive)
REMARK    1  A    between atoms: N_5  and  C_8
REMARK    2  A    between atoms: C_8  and  C_11
REMARK    3  A    between atoms: C_11  and  N_12
REMARK                            x       y       z     vdW  Elec       q    Type
REMARK                         _______ _______ _______ _____ _____    ______ ____
ROOT
ATOM      1  C   UNL     1      -2.143  10.066   0.000  0.00  0.00    +0.066 C 
ATOM      2  C   UNL     1      -1.318  10.066   0.000  0.00  0.00    +0.018 C 
ATOM      3  C   UNL     1      -2.968  10.066   0.000  0.00  0.00    +0.018 C 
ENDROOT
BRANCH   1   8
ATOM      4  C   UNL     1      -2.143  13.366   0.000  0.00  0.00    +0.090 C 
ATOM      5  N   UNL     1      -2.143  12.541   0.000  0.00  0.00    -0.269 NA
ATOM      6  C   UNL     1      -2.858  12.129   0.000  0.00  0.00    +0.090 C 
ATOM      7  C   UNL     1      -2.858  11.304   0.000  0.00  0.00    +0.090 C 
ATOM      8  N   UNL     1      -2.143  10.891   0.000  0.00  0.00    -0.271 NA
ATOM      9  C   UNL     1      -1.429  11.304   0.000  0.00  0.00    +0.090 C 
ATOM     10  C   UNL     1      -1.429  12.129   0.000  0.00  0.00    +0.090 C 
ENDBRANCH   1   8
BRANCH   1  11
ATOM     11  C   UNL     1      -2.143   9.241   0.000  0.00  0.00    +0.131 C 
BRANCH  11  12
ATOM     12  N   UNL     1      -1.429   8.829   0.000  0.00  0.00    -0.185 NA
ATOM     13  C   UNL     1      -1.429   8.004   0.000  0.00  0.00    +0.345 C 
ATOM     14  N   UNL     1      -0.715   7.591   0.000  0.00  0.00    -0.136 NA
ATOM     15  C   UNL     1      -0.715   6.766   0.000  0.00  0.00    +0.187 A 
ATOM     16  S   UNL     1      -1.382   6.281   0.000  0.00  0.00    -0.049 S 
ATOM     17  C   UNL     1      -1.127   5.497   0.000  0.00  0.00    +0.059 A 
ATOM     18  C   UNL     1      -0.302   5.497   0.000  0.00  0.00    +0.108 A 
ATOM     19  N   UNL     1      -0.047   6.281   0.000  0.00  0.00    -0.221 NA
ATOM     20  O   UNL     1      -2.143   7.591   0.000  0.00  0.00    -0.249 OA
ENDBRANCH  11  12
ENDBRANCH   1  11
TORSDOF 3
