REMARK  Name = 
REMARK  3 active torsions:
REMARK  status: ('A' for Active; 'I' for Inactive)
REMARK    1  A    between atoms: C_2  and  C_3
REMARK    2  A    between atoms: C_3  and  N_4
REMARK    3  A    between atoms: N_12  and  C_13
REMARK                            x       y       z     vdW  Elec       q    Type
REMARK                         _______ _______ _______ _____ _____    ______ ____
ROOT
ATOM      1  O   UNL     1       3.878  -4.189   0.000  0.00  0.00    -0.271 OA
ATOM      2  C   UNL     1       3.878  -3.364   0.000  0.00  0.00    +0.272 C 
ATOM      3  N   UNL     1       4.592  -2.952   0.000  0.00  0.00    -0.125 NA
ATOM      4  C   UNL     1       5.307  -3.364   0.000  0.00  0.00    +0.346 C 
ATOM      5  N   UNL     1       6.021  -2.952   0.000  0.00  0.00    -0.189 NA
ATOM      6  O   UNL     1       5.307  -4.189   0.000  0.00  0.00    -0.249 OA
ENDROOT
BRANCH   5   7
ATOM      7  C   UNL     1       6.736  -3.364   0.000  0.00  0.00    +0.097 C 
ATOM      8  C   UNL     1       6.822  -4.185   0.000  0.00  0.00    +0.022 C 
ATOM      9  C   UNL     1       7.629  -4.356   0.000  0.00  0.00    +0.002 C 
ATOM     10  C   UNL     1       8.041  -3.642   0.000  0.00  0.00    +0.002 C 
ATOM     11  C   UNL     1       7.489  -3.029   0.000  0.00  0.00    +0.022 C 
ENDBRANCH   5   7
BRANCH   2  12
ATOM     12  C   UNL     1       3.163  -2.952   0.000  0.00  0.00    +0.195 C 
BRANCH  12  13
ATOM     13  N   UNL     1       2.449  -3.364   0.000  0.00  0.00    -0.299 N 
ATOM     14  C   UNL     1       1.695  -3.029   0.000  0.00  0.00    +0.179 A 
ATOM     15  N   UNL     1       1.143  -3.642   0.000  0.00  0.00    -0.222 NA
ATOM     16  C   UNL     1       1.556  -4.356   0.000  0.00  0.00    +0.119 A 
ATOM     17  C   UNL     1       2.363  -4.185   0.000  0.00  0.00    +0.098 A 
ENDBRANCH  12  13
ENDBRANCH   2  12
TORSDOF 3
