REMARK  Name = 
REMARK  2 active torsions:
REMARK  status: ('A' for Active; 'I' for Inactive)
REMARK    1  A    between atoms: C_7  and  N_8
REMARK    2  A    between atoms: C_9  and  C_11
REMARK                            x       y       z     vdW  Elec       q    Type
REMARK                         _______ _______ _______ _____ _____    ______ ____
ROOT
ATOM      1  C   UNL     1      -1.429   9.654   0.000  0.00  0.00    +0.114 C 
ATOM      2  N   UNL     1      -0.715   9.241   0.000  0.00  0.00    -0.290 N 
ATOM      3  C   UNL     1      -0.715   8.416   0.000  0.00  0.00    +0.132 A 
ATOM      4  N   UNL     1      -1.429   8.004   0.000  0.00  0.00    -0.228 NA
ATOM      5  C   UNL     1      -1.429   7.179   0.000  0.00  0.00    +0.117 A 
ATOM      6  C   UNL     1      -0.715   6.766   0.000  0.00  0.00    +0.093 A 
ATOM      7  C   UNL     1       0.000   7.179   0.000  0.00  0.00    +0.021 A 
ATOM      8  C   UNL     1       0.000   8.004   0.000  0.00  0.00    +0.036 A 
ATOM      9  C   UNL     1       0.000   9.654   0.000  0.00  0.00    +0.114 C 
ENDROOT
BRANCH   6  10
ATOM     10  N   UNL     1      -0.715   5.941   0.000  0.00  0.00    -0.176 NA
ATOM     11  C   UNL     1       0.000   5.529   0.000  0.00  0.00    +0.273 C 
ATOM     12  O   UNL     1       0.715   5.941   0.000  0.00  0.00    -0.270 OA
BRANCH  11  13
ATOM     13  C   UNL     1       0.000   4.704   0.000  0.00  0.00    +0.193 C 
ATOM     14  O   UNL     1      -0.667   4.219   0.000  0.00  0.00    -0.347 OA
ATOM     15  C   UNL     1      -0.412   3.434   0.000  0.00  0.00    +0.143 C 
ATOM     16  C   UNL     1       0.412   3.434   0.000  0.00  0.00    +0.035 C 
ATOM     17  C   UNL     1       0.667   4.219   0.000  0.00  0.00    +0.042 C 
ENDBRANCH  11  13
ENDBRANCH   6  10
TORSDOF 2
