REMARK  Name = 
REMARK  5 active torsions:
REMARK  status: ('A' for Active; 'I' for Inactive)
REMARK    1  A    between atoms: C_7  and  C_8
REMARK    2  A    between atoms: C_8  and  N_9
REMARK    3  A    between atoms: C_10  and  C_12
REMARK    4  A    between atoms: C_12  and  N_13
REMARK    5  A    between atoms: C_15  and  N_20
REMARK                            x       y       z     vdW  Elec       q    Type
REMARK                         _______ _______ _______ _____ _____    ______ ____
ROOT
ATOM      1  N   UNL     1       1.429  -2.475   0.000  0.00  0.00    -0.204 NA
ATOM      2  C   UNL     1       2.143  -2.888   0.000  0.00  0.00    +0.265 C 
ATOM      3  O   UNL     1       2.143  -3.712   0.000  0.00  0.00    -0.271 OA
ENDROOT
BRANCH   1   4
ATOM      4  C   UNL     1       0.715  -2.888   0.000  0.00  0.00    +0.118 C 
BRANCH   4   7
ATOM      5  O   UNL     1      -0.715  -3.712   0.000  0.00  0.00    -0.223 OA
ATOM      6  C   UNL     1      -0.715  -2.888   0.000  0.00  0.00    +0.154 C 
ATOM      7  C   UNL     1       0.000  -2.475   0.000  0.00  0.00    +0.052 C 
ATOM      8  C   UNL     1       0.000  -1.650   0.000  0.00  0.00    +0.004 C 
ATOM      9  C   UNL     1      -0.715  -1.238   0.000  0.00  0.00    +0.000 C 
ATOM     10  C   UNL     1      -1.429  -1.650   0.000  0.00  0.00    +0.003 C 
ATOM     11  C   UNL     1      -1.429  -2.475   0.000  0.00  0.00    +0.033 C 
ENDBRANCH   4   7
ENDBRANCH   1   4
BRANCH   2  12
ATOM     12  C   UNL     1       2.858  -2.475   0.000  0.00  0.00    +0.196 C 
BRANCH  12  13
ATOM     13  N   UNL     1       3.572  -2.888   0.000  0.00  0.00    -0.280 N 
ATOM     14  C   UNL     1       3.572  -3.712   0.000  0.00  0.00    +0.262 A 
ATOM     15  O   UNL     1       2.858  -4.125   0.000  0.00  0.00    -0.267 OA
ATOM     16  C   UNL     1       4.287  -4.125   0.000  0.00  0.00    +0.067 A 
ATOM     17  C   UNL     1       5.001  -3.712   0.000  0.00  0.00    +0.082 A 
ATOM     18  C   UNL     1       5.001  -2.888   0.000  0.00  0.00    +0.307 A 
ATOM     19  C   UNL     1       4.287  -2.475   0.000  0.00  0.00    +0.155 A 
BRANCH  18  20
ATOM     20  N   UNL     1       5.716  -2.475   0.000  0.00  0.00    +0.082 N 
ATOM     21  O   UNL     1       6.430  -2.888   0.000  0.00  0.00    -0.576 OA
ATOM     22  O   UNL     1       5.716  -1.650   0.000  0.00  0.00    +0.042 OA
ENDBRANCH  18  20
ENDBRANCH  12  13
ENDBRANCH   2  12
TORSDOF 5
