REMARK  Name = 
REMARK  4 active torsions:
REMARK  status: ('A' for Active; 'I' for Inactive)
REMARK    1  A    between atoms: C_2  and  N_3
REMARK    2  A    between atoms: C_2  and  C_7
REMARK    3  A    between atoms: N_9  and  C_10
REMARK    4  A    between atoms: C_10  and  C_11
REMARK                            x       y       z     vdW  Elec       q    Type
REMARK                         _______ _______ _______ _____ _____    ______ ____
ROOT
ATOM      1  C   UNL     1       5.716  -6.600   0.000  0.00  0.00    +0.019 A 
ATOM      2  C   UNL     1       5.716  -7.425   0.000  0.00  0.00    +0.098 A 
ATOM      3  N   UNL     1       6.430  -7.838   0.000  0.00  0.00    -0.229 NA
ATOM      4  C   UNL     1       7.145  -7.425   0.000  0.00  0.00    +0.132 A 
ATOM      5  N   UNL     1       7.859  -7.838   0.000  0.00  0.00    -0.288 N 
ATOM      6  C   UNL     1       7.859  -8.662   0.000  0.00  0.00    +0.122 C 
ATOM      7  C   UNL     1       8.574  -9.075   0.000  0.00  0.00    +0.135 C 
ATOM      8  C   UNL     1       8.574  -9.900   0.000  0.00  0.00    +0.034 C 
ATOM      9  O   UNL     1       9.288  -8.662   0.000  0.00  0.00    -0.355 OA
ATOM     10  C   UNL     1       9.288  -7.838   0.000  0.00  0.00    +0.135 C 
ATOM     11  C   UNL     1      10.003  -7.425   0.000  0.00  0.00    +0.034 C 
ATOM     12  C   UNL     1       8.574  -7.425   0.000  0.00  0.00    +0.122 C 
ATOM     13  C   UNL     1       7.145  -6.600   0.000  0.00  0.00    +0.034 A 
ATOM     14  C   UNL     1       6.430  -6.188   0.000  0.00  0.00    +0.002 A 
ENDROOT
BRANCH   1  15
ATOM     15  C   UNL     1       5.001  -6.188   0.000  0.00  0.00    +0.143 C 
BRANCH  15  17
ATOM     16  C   UNL     1       3.572  -6.188   0.000  0.00  0.00    +0.262 C 
ATOM     17  N   UNL     1       4.287  -6.600   0.000  0.00  0.00    -0.199 NA
ATOM     18  O   UNL     1       3.572  -5.362   0.000  0.00  0.00    -0.271 OA
BRANCH  16  20
ATOM     19  C   UNL     1       2.858  -7.425   0.000  0.00  0.00    +0.033 C 
ATOM     20  C   UNL     1       2.858  -6.600   0.000  0.00  0.00    +0.174 C 
BRANCH  20  21
ATOM     21  N   UNL     1       2.143  -6.188   0.000  0.00  0.00    -0.178 NA
ATOM     22  C   UNL     1       1.429  -6.600   0.000  0.00  0.00    +0.359 C 
ATOM     23  N   UNL     1       1.429  -7.425   0.000  0.00  0.00    -0.068 NA
ATOM     24  O   UNL     1       0.715  -6.188   0.000  0.00  0.00    -0.247 OA
ENDBRANCH  20  21
ENDBRANCH  16  20
ENDBRANCH  15  17
ENDBRANCH   1  15
TORSDOF 4
