REMARK  Name = 
REMARK  4 active torsions:
REMARK  status: ('A' for Active; 'I' for Inactive)
REMARK    1  A    between atoms: N_7  and  C_8
REMARK    2  A    between atoms: C_8  and  C_9
REMARK    3  A    between atoms: C_9  and  C_11
REMARK    4  A    between atoms: C_11  and  N_12
REMARK                            x       y       z     vdW  Elec       q    Type
REMARK                         _______ _______ _______ _____ _____    ______ ____
ROOT
ATOM      1  C   UNL     1       2.784   0.698   0.000  0.00  0.00    +0.031 C 
ATOM      2  C   UNL     1       2.070   1.110   0.000  0.00  0.00    -0.024 A 
ATOM      3  C   UNL     1       2.070   1.935   0.000  0.00  0.00    -0.024 A 
ATOM      4  C   UNL     1       2.784   2.348   0.000  0.00  0.00    +0.031 C 
ATOM      5  C   UNL     1       1.356   2.348   0.000  0.00  0.00    +0.014 A 
ATOM      6  C   UNL     1       0.641   1.935   0.000  0.00  0.00    +0.079 A 
ATOM      7  C   UNL     1       0.641   1.110   0.000  0.00  0.00    +0.098 A 
ATOM      8  N   UNL     1      -0.143   0.856   0.000  0.00  0.00    -0.224 NA
ATOM      9  C   UNL     1      -0.628   1.523   0.000  0.00  0.00    +0.179 A 
ATOM     10  N   UNL     1      -0.143   2.190   0.000  0.00  0.00    -0.306 N 
ATOM     11  C   UNL     1       1.356   0.698   0.000  0.00  0.00    +0.016 A 
ENDROOT
BRANCH  10  12
ATOM     12  C   UNL     1      -0.398   2.975   0.000  0.00  0.00    +0.142 C 
BRANCH  12  13
ATOM     13  C   UNL     1       0.154   3.588   0.000  0.00  0.00    +0.199 C 
ATOM     14  O   UNL     1       0.961   3.417   0.000  0.00  0.00    -0.219 OA
BRANCH  13  15
ATOM     15  C   UNL     1      -0.101   4.373   0.000  0.00  0.00    +0.162 C 
BRANCH  15  16
ATOM     16  N   UNL     1       0.451   4.986   0.000  0.00  0.00    -0.247 N 
ATOM     17  N   UNL     1       1.271   4.900   0.000  0.00  0.00    -0.168 NA
ATOM     18  C   UNL     1       1.607   5.653   0.000  0.00  0.00    +0.122 A 
ATOM     19  C   UNL     1       0.994   6.205   0.000  0.00  0.00    +0.043 A 
ATOM     20  C   UNL     1       0.279   5.793   0.000  0.00  0.00    +0.097 A 
ENDBRANCH  15  16
ENDBRANCH  13  15
ENDBRANCH  12  13
ENDBRANCH  10  12
TORSDOF 4
