REMARK  Name = 
REMARK  3 active torsions:
REMARK  status: ('A' for Active; 'I' for Inactive)
REMARK    1  A    between atoms: C_6  and  O_8
REMARK    2  A    between atoms: O_8  and  C_9
REMARK    3  A    between atoms: C_9  and  C_10
REMARK                            x       y       z     vdW  Elec       q    Type
REMARK                         _______ _______ _______ _____ _____    ______ ____
ROOT
ATOM      1  C   UNL     1       0.715  -2.062   0.000  0.00  0.00    +0.277 C 
ATOM      2  N   UNL     1       1.429  -2.475   0.000  0.00  0.00    -0.158 NA
ATOM      3  C   UNL     1       2.143  -2.062   0.000  0.00  0.00    +0.159 A 
ATOM      4  N   UNL     1       2.858  -2.475   0.000  0.00  0.00    -0.197 NA
ATOM      5  C   UNL     1       3.572  -2.062   0.000  0.00  0.00    +0.221 A 
ATOM      6  N   UNL     1       4.287  -2.475   0.000  0.00  0.00    -0.275 N 
ATOM      7  C   UNL     1       4.287  -3.300   0.000  0.00  0.00    +0.115 C 
ATOM      8  C   UNL     1       5.001  -2.062   0.000  0.00  0.00    +0.115 C 
ATOM      9  N   UNL     1       3.572  -1.238   0.000  0.00  0.00    -0.212 NA
ATOM     10  C   UNL     1       2.858  -0.825   0.000  0.00  0.00    +0.105 A 
ATOM     11  C   UNL     1       2.143  -1.238   0.000  0.00  0.00    +0.057 A 
ATOM     12  O   UNL     1       0.715  -1.238   0.000  0.00  0.00    -0.270 OA
ENDROOT
BRANCH   1  13
ATOM     13  C   UNL     1       0.000  -2.475   0.000  0.00  0.00    +0.229 C 
BRANCH  13  14
ATOM     14  O   UNL     1      -0.715  -2.062   0.000  0.00  0.00    -0.347 OA
BRANCH  14  18
ATOM     15  C   UNL     1      -2.143  -4.537   0.000  0.00  0.00    +0.000 C 
ATOM     16  C   UNL     1      -2.143  -3.712   0.000  0.00  0.00    +0.002 C 
ATOM     17  C   UNL     1      -1.429  -3.300   0.000  0.00  0.00    +0.030 C 
ATOM     18  C   UNL     1      -1.429  -2.475   0.000  0.00  0.00    +0.116 C 
ATOM     19  C   UNL     1      -2.143  -2.062   0.000  0.00  0.00    +0.030 C 
ATOM     20  C   UNL     1      -2.858  -2.475   0.000  0.00  0.00    +0.002 C 
ATOM     21  C   UNL     1      -2.858  -3.300   0.000  0.00  0.00    +0.000 C 
ENDBRANCH  14  18
ENDBRANCH  13  14
ENDBRANCH   1  13
TORSDOF 3
