REMARK  Name = 
REMARK  3 active torsions:
REMARK  status: ('A' for Active; 'I' for Inactive)
REMARK    1  A    between atoms: C_4  and  C_5
REMARK    2  A    between atoms: C_5  and  C_6
REMARK    3  A    between atoms: C_6  and  N_7
REMARK                            x       y       z     vdW  Elec       q    Type
REMARK                         _______ _______ _______ _____ _____    ______ ____
ROOT
ATOM      1  N   UNL     1       2.143  -2.888   0.000  0.00  0.00    -0.188 NA
ATOM      2  C   UNL     1       2.858  -2.475   0.000  0.00  0.00    +0.323 C 
ATOM      3  N   UNL     1       3.572  -2.888   0.000  0.00  0.00    -0.258 N 
ATOM      4  C   UNL     1       3.572  -3.712   0.000  0.00  0.00    +0.127 C 
ATOM      5  C   UNL     1       4.287  -4.125   0.000  0.00  0.00    +0.164 C 
ATOM      6  O   UNL     1       5.001  -3.712   0.000  0.00  0.00    -0.350 OA
ATOM      7  C   UNL     1       5.001  -2.888   0.000  0.00  0.00    +0.164 C 
ATOM      8  C   UNL     1       4.287  -2.475   0.000  0.00  0.00    +0.127 C 
ATOM      9  O   UNL     1       2.858  -1.650   0.000  0.00  0.00    -0.251 OA
ENDROOT
BRANCH   1  10
ATOM     10  C   UNL     1       1.429  -2.475   0.000  0.00  0.00    +0.122 C 
BRANCH  10  11
ATOM     11  C   UNL     1       0.715  -2.888   0.000  0.00  0.00    +0.053 C 
BRANCH  11  16
ATOM     12  C   UNL     1      -1.229  -0.729   0.000  0.00  0.00    +0.154 C 
ATOM     13  N   UNL     1      -0.893  -1.483   0.000  0.00  0.00    -0.248 N 
ATOM     14  N   UNL     1      -1.306  -2.197   0.000  0.00  0.00    -0.168 NA
ATOM     15  C   UNL     1      -0.754  -2.811   0.000  0.00  0.00    +0.117 A 
ATOM     16  C   UNL     1       0.000  -2.475   0.000  0.00  0.00    +0.019 A 
ATOM     17  C   UNL     1      -0.086  -1.655   0.000  0.00  0.00    +0.092 A 
ENDBRANCH  11  16
ENDBRANCH  10  11
ENDBRANCH   1  10
TORSDOF 3
