REMARK  Name = 
REMARK  5 active torsions:
REMARK  status: ('A' for Active; 'I' for Inactive)
REMARK    1  A    between atoms: C_3  and  C_5
REMARK    2  A    between atoms: C_5  and  C_6
REMARK    3  A    between atoms: C_6  and  N_7
REMARK    4  A    between atoms: N_10  and  C_11
REMARK    5  A    between atoms: C_16  and  N_17
REMARK                            x       y       z     vdW  Elec       q    Type
REMARK                         _______ _______ _______ _____ _____    ______ ____
ROOT
ATOM      1  C   UNL     1       3.572  -4.537   0.000  0.00  0.00    +0.106 A 
ATOM      2  C   UNL     1       4.287  -4.950   0.000  0.00  0.00    +0.147 A 
ATOM      3  N   UNL     1       5.001  -4.537   0.000  0.00  0.00    -0.228 NA
ATOM      4  C   UNL     1       5.001  -3.712   0.000  0.00  0.00    +0.100 A 
ATOM      5  C   UNL     1       4.287  -3.300   0.000  0.00  0.00    +0.022 A 
ATOM      6  C   UNL     1       3.572  -3.712   0.000  0.00  0.00    +0.021 A 
ENDROOT
BRANCH   2   7
ATOM      7  N   UNL     1       4.287  -5.775   0.000  0.00  0.00    -0.292 N 
ATOM      8  C   UNL     1       3.619  -6.260   0.000  0.00  0.00    +0.092 C 
ATOM      9  C   UNL     1       3.874  -7.045   0.000  0.00  0.00    +0.023 C 
ATOM     10  C   UNL     1       4.699  -7.045   0.000  0.00  0.00    +0.023 C 
ATOM     11  C   UNL     1       4.954  -6.260   0.000  0.00  0.00    +0.092 C 
ENDBRANCH   2   7
BRANCH   1  14
ATOM     12  N   UNL     1       1.429  -4.950   0.000  0.00  0.00    -0.186 NA
ATOM     13  C   UNL     1       2.143  -4.537   0.000  0.00  0.00    +0.344 C 
ATOM     14  N   UNL     1       2.858  -4.950   0.000  0.00  0.00    -0.158 NA
ATOM     15  O   UNL     1       2.143  -3.712   0.000  0.00  0.00    -0.249 OA
BRANCH  12  16
ATOM     16  C   UNL     1       0.715  -4.537   0.000  0.00  0.00    +0.126 C 
BRANCH  16  17
ATOM     17  C   UNL     1       0.000  -4.950   0.000  0.00  0.00    +0.110 C 
BRANCH  17  20
ATOM     18  C   UNL     1      -2.143  -4.537   0.000  0.00  0.00    +0.138 C 
ATOM     19  N   UNL     1      -1.429  -4.950   0.000  0.00  0.00    -0.203 NA
ATOM     20  C   UNL     1      -0.715  -4.537   0.000  0.00  0.00    +0.243 C 
ATOM     21  O   UNL     1      -0.715  -3.712   0.000  0.00  0.00    -0.273 OA
ENDBRANCH  17  20
ENDBRANCH  16  17
ENDBRANCH  12  16
ENDBRANCH   1  14
TORSDOF 5
