REMARK  Name = 
REMARK  2 active torsions:
REMARK  status: ('A' for Active; 'I' for Inactive)
REMARK    1  A    between atoms: C_6  and  N_7
REMARK    2  A    between atoms: N_10  and  C_11
REMARK                            x       y       z     vdW  Elec       q    Type
REMARK                         _______ _______ _______ _____ _____    ______ ____
ROOT
ATOM      1  N   UNL     1       4.409   5.249   0.000  0.00  0.00    -0.142 NA
ATOM      2  C   UNL     1       3.826   4.666   0.000  0.00  0.00    +0.345 C 
ATOM      3  N   UNL     1       3.029   4.879   0.000  0.00  0.00    -0.190 NA
ATOM      4  O   UNL     1       4.039   3.869   0.000  0.00  0.00    -0.249 OA
ENDROOT
BRANCH   1   8
ATOM      5  C   UNL     1       7.170   5.989   0.000  0.00  0.00    +0.052 C 
ATOM      6  C   UNL     1       6.586   5.405   0.000  0.00  0.00    +0.061 A 
ATOM      7  N   UNL     1       5.789   5.619   0.000  0.00  0.00    -0.233 NA
ATOM      8  C   UNL     1       5.206   5.035   0.000  0.00  0.00    +0.156 A 
ATOM      9  C   UNL     1       5.419   4.239   0.000  0.00  0.00    +0.036 A 
ATOM     10  C   UNL     1       6.216   4.025   0.000  0.00  0.00    +0.004 A 
ATOM     11  C   UNL     1       6.800   4.609   0.000  0.00  0.00    +0.015 A 
ENDBRANCH   1   8
BRANCH   3  12
ATOM     12  C   UNL     1       2.445   4.296   0.000  0.00  0.00    +0.080 C 
ATOM     13  C   UNL     1       1.862   3.712   0.000  0.00  0.00    +0.020 C 
ATOM     14  C   UNL     1       2.445   3.129   0.000  0.00  0.00    +0.003 C 
ATOM     15  C   UNL     1       3.029   3.712   0.000  0.00  0.00    +0.020 C 
ATOM     16  C   UNL     1       1.862   4.879   0.000  0.00  0.00    +0.022 C 
ENDBRANCH   3  12
TORSDOF 2
