REMARK  Name = 
REMARK  1 active torsions:
REMARK  status: ('A' for Active; 'I' for Inactive)
REMARK    1  A    between atoms: C_5  and  N_11
REMARK                            x       y       z     vdW  Elec       q    Type
REMARK                         _______ _______ _______ _____ _____    ______ ____
ROOT
ATOM      1  C   UNL     1      -3.042   9.048   0.000  0.00  0.00    +0.017 C 
ATOM      2  C   UNL     1      -3.572   8.416   0.000  0.00  0.00    +0.061 C 
ATOM      3  N   UNL     1      -4.287   8.004   0.000  0.00  0.00    -0.223 NA
ATOM      4  C   UNL     1      -4.287   7.179   0.000  0.00  0.00    +0.061 C 
ATOM      5  C   UNL     1      -5.099   7.322   0.000  0.00  0.00    +0.017 C 
ATOM      6  C   UNL     1      -4.569   6.403   0.000  0.00  0.00    +0.017 C 
ATOM      7  C   UNL     1      -3.572   6.766   0.000  0.00  0.00    +0.038 C 
ATOM      8  C   UNL     1      -2.858   7.179   0.000  0.00  0.00    +0.100 C 
ATOM      9  C   UNL     1      -2.858   8.004   0.000  0.00  0.00    +0.038 C 
ATOM     10  C   UNL     1      -4.103   9.048   0.000  0.00  0.00    +0.017 C 
ENDROOT
BRANCH   8  11
ATOM     11  N   UNL     1      -2.143   6.766   0.000  0.00  0.00    -0.189 NA
ATOM     12  C   UNL     1      -2.143   5.941   0.000  0.00  0.00    +0.345 C 
ATOM     13  N   UNL     1      -1.429   5.529   0.000  0.00  0.00    -0.136 NA
ATOM     14  C   UNL     1      -1.429   4.704   0.000  0.00  0.00    +0.187 A 
ATOM     15  S   UNL     1      -2.096   4.219   0.000  0.00  0.00    -0.049 S 
ATOM     16  C   UNL     1      -1.841   3.434   0.000  0.00  0.00    +0.059 A 
ATOM     17  C   UNL     1      -1.016   3.434   0.000  0.00  0.00    +0.108 A 
ATOM     18  N   UNL     1      -0.761   4.219   0.000  0.00  0.00    -0.221 NA
ATOM     19  O   UNL     1      -2.858   5.529   0.000  0.00  0.00    -0.249 OA
ENDBRANCH   8  11
TORSDOF 1
