REMARK  Name = 
REMARK  3 active torsions:
REMARK  status: ('A' for Active; 'I' for Inactive)
REMARK    1  A    between atoms: N_8  and  C_9
REMARK    2  A    between atoms: C_9  and  C_10
REMARK    3  A    between atoms: C_10  and  C_11
REMARK                            x       y       z     vdW  Elec       q    Type
REMARK                         _______ _______ _______ _____ _____    ______ ____
ROOT
ATOM      1  C   UNL     1       0.323  -3.556   0.000  0.00  0.00    +0.075 C 
ATOM      2  C   UNL     1       1.143  -3.642   0.000  0.00  0.00    +0.156 A 
ATOM      3  O   UNL     1       1.556  -4.356   0.000  0.00  0.00    -0.356 OA
ATOM      4  N   UNL     1       2.363  -4.185   0.000  0.00  0.00    -0.060 NA
ATOM      5  C   UNL     1       2.449  -3.364   0.000  0.00  0.00    +0.197 A 
ATOM      6  N   UNL     1       3.163  -2.952   0.000  0.00  0.00    -0.139 NA
ATOM      7  C   UNL     1       3.878  -3.364   0.000  0.00  0.00    +0.345 C 
ATOM      8  N   UNL     1       4.592  -2.952   0.000  0.00  0.00    -0.187 NA
ATOM      9  O   UNL     1       3.878  -4.189   0.000  0.00  0.00    -0.249 OA
ATOM     10  C   UNL     1       1.695  -3.029   0.000  0.00  0.00    +0.075 A 
ENDROOT
BRANCH   8  11
ATOM     11  C   UNL     1       5.307  -3.364   0.000  0.00  0.00    +0.119 C 
BRANCH  11  12
ATOM     12  C   UNL     1       6.021  -2.952   0.000  0.00  0.00    +0.053 C 
BRANCH  12  13
ATOM     13  C   UNL     1       6.736  -3.364   0.000  0.00  0.00    +0.117 C 
ATOM     14  O   UNL     1       6.822  -4.185   0.000  0.00  0.00    -0.356 OA
ATOM     15  C   UNL     1       7.629  -4.356   0.000  0.00  0.00    +0.142 C 
ATOM     16  C   UNL     1       8.041  -3.642   0.000  0.00  0.00    +0.035 C 
ATOM     17  C   UNL     1       7.489  -3.029   0.000  0.00  0.00    +0.032 C 
ENDBRANCH  12  13
ENDBRANCH  11  12
ENDBRANCH   8  11
TORSDOF 3
