REMARK  Name = 
REMARK  6 active torsions:
REMARK  status: ('A' for Active; 'I' for Inactive)
REMARK    1  A    between atoms: C_5  and  C_6
REMARK    2  A    between atoms: C_6  and  C_7
REMARK    3  A    between atoms: N_9  and  C_10
REMARK    4  A    between atoms: C_10  and  C_11
REMARK    5  A    between atoms: N_14  and  C_15
REMARK    6  A    between atoms: C_15  and  C_16
REMARK                            x       y       z     vdW  Elec       q    Type
REMARK                         _______ _______ _______ _____ _____    ______ ____
ROOT
ATOM      1  C   UNL     1       1.429  -2.475   0.000  0.00  0.00    +0.246 C 
ATOM      2  N   UNL     1       2.143  -2.888   0.000  0.00  0.00    -0.205 NA
ATOM      3  O   UNL     1       1.429  -1.650   0.000  0.00  0.00    -0.273 OA
ENDROOT
BRANCH   1   4
ATOM      4  C   UNL     1       0.715  -2.888   0.000  0.00  0.00    +0.115 C 
BRANCH   4   9
ATOM      5  C   UNL     1      -2.143  -1.238   0.000  0.00  0.00    +0.052 C 
ATOM      6  C   UNL     1      -1.429  -1.650   0.000  0.00  0.00    +0.059 A 
ATOM      7  N   UNL     1      -1.429  -2.475   0.000  0.00  0.00    -0.248 NA
ATOM      8  C   UNL     1      -0.715  -2.888   0.000  0.00  0.00    +0.095 A 
ATOM      9  C   UNL     1       0.000  -2.475   0.000  0.00  0.00    +0.006 A 
ATOM     10  C   UNL     1       0.000  -1.650   0.000  0.00  0.00    -0.001 A 
ATOM     11  C   UNL     1      -0.715  -1.238   0.000  0.00  0.00    +0.014 A 
ENDBRANCH   4   9
ENDBRANCH   1   4
BRANCH   2  12
ATOM     12  C   UNL     1       2.858  -2.475   0.000  0.00  0.00    +0.115 C 
BRANCH  12  13
ATOM     13  C   UNL     1       3.572  -2.888   0.000  0.00  0.00    +0.024 C 
ATOM     14  C   UNL     1       3.572  -3.712   0.000  0.00  0.00    +0.019 C 
ATOM     15  C   UNL     1       4.287  -4.125   0.000  0.00  0.00    +0.073 C 
ATOM     16  N   UNL     1       5.001  -3.712   0.000  0.00  0.00    -0.260 NA
ATOM     17  C   UNL     1       5.001  -2.888   0.000  0.00  0.00    +0.073 C 
ATOM     18  C   UNL     1       4.287  -2.475   0.000  0.00  0.00    +0.019 C 
BRANCH  16  19
ATOM     19  C   UNL     1       5.716  -4.125   0.000  0.00  0.00    +0.179 C 
BRANCH  19  20
ATOM     20  C   UNL     1       6.430  -3.712   0.000  0.00  0.00    +0.091 C 
ATOM     21  N   UNL     1       7.145  -3.300   0.000  0.00  0.00    -0.194 NA
ENDBRANCH  19  20
ENDBRANCH  16  19
ENDBRANCH  12  13
ENDBRANCH   2  12
TORSDOF 6
