REMARK  Name = 
REMARK  3 active torsions:
REMARK  status: ('A' for Active; 'I' for Inactive)
REMARK    1  A    between atoms: N_2  and  C_4
REMARK    2  A    between atoms: C_9  and  N_10
REMARK    3  A    between atoms: N_13  and  C_14
REMARK                            x       y       z     vdW  Elec       q    Type
REMARK                         _______ _______ _______ _____ _____    ______ ____
ROOT
ATOM      1  C   UNL     1       7.782   2.470   0.000  0.00  0.00    +0.151 A 
ATOM      2  C   UNL     1       7.198   1.887   0.000  0.00  0.00    +0.126 A 
ATOM      3  C   UNL     1       7.412   1.090   0.000  0.00  0.00    +0.120 A 
ATOM      4  N   UNL     1       8.209   0.876   0.000  0.00  0.00    -0.221 NA
ATOM      5  C   UNL     1       8.792   1.460   0.000  0.00  0.00    +0.200 A 
ATOM      6  N   UNL     1       8.579   2.256   0.000  0.00  0.00    -0.208 NA
ENDROOT
BRANCH   2   7
ATOM      7  N   UNL     1       6.401   2.100   0.000  0.00  0.00    -0.157 NA
ATOM      8  C   UNL     1       5.818   1.517   0.000  0.00  0.00    +0.344 C 
ATOM      9  N   UNL     1       5.021   1.730   0.000  0.00  0.00    -0.190 NA
ATOM     10  O   UNL     1       6.032   0.720   0.000  0.00  0.00    -0.249 OA
BRANCH   9  11
ATOM     11  C   UNL     1       4.438   1.147   0.000  0.00  0.00    +0.080 C 
ATOM     12  C   UNL     1       3.854   0.564   0.000  0.00  0.00    +0.020 C 
ATOM     13  C   UNL     1       4.438  -0.020   0.000  0.00  0.00    +0.003 C 
ATOM     14  C   UNL     1       5.021   0.564   0.000  0.00  0.00    +0.020 C 
ATOM     15  C   UNL     1       3.854   1.730   0.000  0.00  0.00    +0.022 C 
ENDBRANCH   9  11
ENDBRANCH   2   7
BRANCH   1  17
ATOM     16  C   UNL     1       8.152   3.850   0.000  0.00  0.00    +0.114 C 
ATOM     17  N   UNL     1       7.568   3.267   0.000  0.00  0.00    -0.289 N 
ATOM     18  C   UNL     1       6.771   3.480   0.000  0.00  0.00    +0.114 C 
ENDBRANCH   1  17
TORSDOF 3
