REMARK  Name = 
REMARK  3 active torsions:
REMARK  status: ('A' for Active; 'I' for Inactive)
REMARK    1  A    between atoms: N_10  and  C_11
REMARK    2  A    between atoms: N_14  and  C_15
REMARK    3  A    between atoms: C_15  and  C_16
REMARK                            x       y       z     vdW  Elec       q    Type
REMARK                         _______ _______ _______ _____ _____    ______ ____
ROOT
ATOM      1  C   UNL     1       2.143   9.241   0.000  0.00  0.00    +0.090 C 
ATOM      2  N   UNL     1       2.143   8.416   0.000  0.00  0.00    -0.269 NA
ATOM      3  C   UNL     1       1.429   8.004   0.000  0.00  0.00    +0.094 C 
ATOM      4  C   UNL     1       1.429   7.179   0.000  0.00  0.00    +0.112 C 
ATOM      5  N   UNL     1       2.143   6.766   0.000  0.00  0.00    -0.260 N 
ATOM      6  C   UNL     1       2.143   5.941   0.000  0.00  0.00    +0.328 C 
ATOM      7  N   UNL     1       1.429   5.529   0.000  0.00  0.00    -0.159 NA
ATOM      8  O   UNL     1       2.858   5.529   0.000  0.00  0.00    -0.250 OA
ATOM      9  C   UNL     1       2.858   7.179   0.000  0.00  0.00    +0.112 C 
ATOM     10  C   UNL     1       2.858   8.004   0.000  0.00  0.00    +0.094 C 
ENDROOT
BRANCH   7  11
ATOM     11  C   UNL     1       1.429   4.704   0.000  0.00  0.00    +0.114 A 
ATOM     12  C   UNL     1       0.761   4.219   0.000  0.00  0.00    +0.114 A 
ATOM     13  N   UNL     1       1.016   3.434   0.000  0.00  0.00    -0.239 N 
ATOM     14  N   UNL     1       1.841   3.434   0.000  0.00  0.00    -0.166 NA
ATOM     15  C   UNL     1       2.096   4.219   0.000  0.00  0.00    +0.138 A 
BRANCH  13  16
ATOM     16  C   UNL     1       0.531   2.767   0.000  0.00  0.00    +0.215 C 
BRANCH  16  17
ATOM     17  C   UNL     1      -0.289   2.853   0.000  0.00  0.00    +0.286 C 
ATOM     18  N   UNL     1      -0.625   3.607   0.000  0.00  0.00    -0.086 NA
ATOM     19  O   UNL     1      -0.774   2.185   0.000  0.00  0.00    -0.269 OA
ENDBRANCH  16  17
ENDBRANCH  13  16
ENDBRANCH   7  11
TORSDOF 3
