REMARK  Name = 
REMARK  4 active torsions:
REMARK  status: ('A' for Active; 'I' for Inactive)
REMARK    1  A    between atoms: C_2  and  N_3
REMARK    2  A    between atoms: N_9  and  C_10
REMARK    3  A    between atoms: C_10  and  C_11
REMARK    4  A    between atoms: C_15  and  C_16
REMARK                            x       y       z     vdW  Elec       q    Type
REMARK                         _______ _______ _______ _____ _____    ______ ____
ROOT
ATOM      1  N   UNL     1      -2.275   2.714   0.000  0.00  0.00    -0.254 N 
ATOM      2  C   UNL     1      -2.688   2.000   0.000  0.00  0.00    +0.058 A 
ATOM      3  C   UNL     1      -2.136   1.387   0.000  0.00  0.00    +0.052 A 
ATOM      4  C   UNL     1      -1.382   1.722   0.000  0.00  0.00    +0.177 A 
ATOM      5  N   UNL     1      -0.667   1.310   0.000  0.00  0.00    -0.140 NA
ATOM      6  C   UNL     1       0.047   1.722   0.000  0.00  0.00    +0.345 C 
ATOM      7  N   UNL     1       0.761   1.310   0.000  0.00  0.00    -0.187 NA
ATOM      8  O   UNL     1       0.047   2.547   0.000  0.00  0.00    -0.249 OA
ATOM      9  N   UNL     1      -1.468   2.543   0.000  0.00  0.00    -0.153 NA
ENDROOT
BRANCH   2  10
ATOM     10  C   UNL     1      -3.508   1.914   0.000  0.00  0.00    +0.040 C 
ATOM     11  C   UNL     1      -4.262   2.249   0.000  0.00  0.00    +0.006 C 
ATOM     12  C   UNL     1      -4.176   1.429   0.000  0.00  0.00    +0.006 C 
ENDBRANCH   2  10
BRANCH   1  14
ATOM     13  C   UNL     1      -3.431   3.554   0.000  0.00  0.00    +0.028 C 
ATOM     14  C   UNL     1      -2.611   3.468   0.000  0.00  0.00    +0.127 C 
ENDBRANCH   1  14
BRANCH   7  15
ATOM     15  C   UNL     1       1.476   1.722   0.000  0.00  0.00    +0.117 C 
BRANCH  15  16
ATOM     16  C   UNL     1       2.190   1.310   0.000  0.00  0.00    +0.022 C 
ATOM     17  C   UNL     1       2.190   0.485   0.000  0.00  0.00    +0.002 C 
ATOM     18  C   UNL     1       2.905   1.722   0.000  0.00  0.00    +0.002 C 
ENDBRANCH  15  16
ENDBRANCH   7  15
TORSDOF 4
