REMARK  Name = 
REMARK  5 active torsions:
REMARK  status: ('A' for Active; 'I' for Inactive)
REMARK    1  A    between atoms: S_2  and  C_3
REMARK    2  A    between atoms: N_7  and  C_8
REMARK    3  A    between atoms: C_8  and  C_9
REMARK    4  A    between atoms: N_11  and  C_12
REMARK    5  A    between atoms: C_12  and  C_13
REMARK                            x       y       z     vdW  Elec       q    Type
REMARK                         _______ _______ _______ _____ _____    ______ ____
ROOT
ATOM      1  C   UNL     1       2.143  -5.362   0.000  0.00  0.00    +0.145 C 
ENDROOT
BRANCH   1   6
ATOM      2  C   UNL     1       1.429  -2.475   0.000  0.00  0.00    +0.128 A 
ATOM      3  N   UNL     1       0.715  -2.888   0.000  0.00  0.00    -0.140 NA
ATOM      4  N   UNL     1       0.715  -3.712   0.000  0.00  0.00    -0.131 NA
ATOM      5  C   UNL     1       1.429  -4.125   0.000  0.00  0.00    +0.169 A 
ATOM      6  N   UNL     1       1.429  -4.950   0.000  0.00  0.00    -0.216 NA
ATOM      7  C   UNL     1       2.143  -3.712   0.000  0.00  0.00    +0.040 A 
ATOM      8  C   UNL     1       2.143  -2.888   0.000  0.00  0.00    +0.030 A 
BRANCH   2  10
ATOM      9  C   UNL     1       0.715  -1.238   0.000  0.00  0.00    +0.076 C 
ATOM     10  S   UNL     1       1.429  -1.650   0.000  0.00  0.00    -0.092 S 
ENDBRANCH   2  10
ENDBRANCH   1   6
BRANCH   1  11
ATOM     11  C   UNL     1       2.143  -6.188   0.000  0.00  0.00    +0.153 C 
ATOM     12  O   UNL     1       1.429  -6.600   0.000  0.00  0.00    -0.352 OA
ATOM     13  C   UNL     1       1.429  -7.425   0.000  0.00  0.00    +0.159 C 
ATOM     14  C   UNL     1       2.143  -7.838   0.000  0.00  0.00    +0.105 C 
ATOM     15  N   UNL     1       2.858  -7.425   0.000  0.00  0.00    -0.268 NA
ATOM     16  C   UNL     1       2.858  -6.600   0.000  0.00  0.00    +0.104 C 
BRANCH  15  17
ATOM     17  C   UNL     1       3.572  -7.838   0.000  0.00  0.00    +0.072 C 
BRANCH  17  18
ATOM     18  C   UNL     1       3.572  -8.662   0.000  0.00  0.00    +0.016 C 
ATOM     19  C   UNL     1       2.858  -9.075   0.000  0.00  0.00    +0.001 C 
ATOM     20  C   UNL     1       4.287  -9.075   0.000  0.00  0.00    +0.001 C 
ENDBRANCH  17  18
ENDBRANCH  15  17
ENDBRANCH   1  11
TORSDOF 5
