REMARK  Name = 
REMARK  5 active torsions:
REMARK  status: ('A' for Active; 'I' for Inactive)
REMARK    1  A    between atoms: C_2  and  C_3
REMARK    2  A    between atoms: C_3  and  C_4
REMARK    3  A    between atoms: C_3  and  C_6
REMARK    4  A    between atoms: C_8  and  N_12
REMARK    5  A    between atoms: N_15  and  C_16
REMARK                            x       y       z     vdW  Elec       q    Type
REMARK                         _______ _______ _______ _____ _____    ______ ____
ROOT
ATOM      1  C   UNL     1      -0.608   3.651   0.000  0.00  0.00    +0.117 C 
ATOM      2  O   UNL     1      -0.608   4.476   0.000  0.00  0.00    -0.356 OA
ATOM      3  C   UNL     1      -1.322   4.888   0.000  0.00  0.00    +0.144 C 
ATOM      4  C   UNL     1      -2.037   4.476   0.000  0.00  0.00    +0.054 C 
ATOM      5  C   UNL     1      -2.037   3.651   0.000  0.00  0.00    +0.102 C 
ATOM      6  C   UNL     1      -1.322   3.238   0.000  0.00  0.00    +0.051 C 
ENDROOT
BRANCH   5   7
ATOM      7  N   UNL     1      -2.751   3.238   0.000  0.00  0.00    -0.189 NA
ATOM      8  C   UNL     1      -2.751   2.413   0.000  0.00  0.00    +0.344 C 
ATOM      9  N   UNL     1      -3.466   2.001   0.000  0.00  0.00    -0.158 NA
ATOM     10  O   UNL     1      -2.037   2.001   0.000  0.00  0.00    -0.249 OA
BRANCH   9  11
ATOM     11  C   UNL     1      -3.466   1.176   0.000  0.00  0.00    +0.114 A 
ATOM     12  C   UNL     1      -4.133   0.691   0.000  0.00  0.00    +0.113 A 
ATOM     13  N   UNL     1      -3.878  -0.094   0.000  0.00  0.00    -0.246 N 
ATOM     14  C   UNL     1      -4.363  -0.761   0.000  0.00  0.00    +0.154 C 
ATOM     15  N   UNL     1      -3.053  -0.094   0.000  0.00  0.00    -0.166 NA
ATOM     16  C   UNL     1      -2.798   0.691   0.000  0.00  0.00    +0.138 A 
ENDBRANCH   9  11
ENDBRANCH   5   7
BRANCH   1  17
ATOM     17  C   UNL     1       0.107   3.238   0.000  0.00  0.00    +0.027 C 
BRANCH  17  19
ATOM     18  C   UNL     1       1.536   3.238   0.000  0.00  0.00    +0.000 C 
ATOM     19  C   UNL     1       0.821   3.651   0.000  0.00  0.00    +0.002 C 
ENDBRANCH  17  19
BRANCH  17  20
ATOM     20  C   UNL     1       0.107   2.413   0.000  0.00  0.00    +0.002 C 
ATOM     21  C   UNL     1      -0.608   2.001   0.000  0.00  0.00    +0.000 C 
ENDBRANCH  17  20
ENDBRANCH   1  17
TORSDOF 5
