REMARK  Name = 
REMARK  7 active torsions:
REMARK  status: ('A' for Active; 'I' for Inactive)
REMARK    1  A    between atoms: O_2  and  C_3
REMARK    2  A    between atoms: C_3  and  C_4
REMARK    3  A    between atoms: C_4  and  N_5
REMARK    4  A    between atoms: C_6  and  N_7
REMARK    5  A    between atoms: C_11  and  N_12
REMARK    6  A    between atoms: N_12  and  C_13
REMARK    7  A    between atoms: C_13  and  C_14
REMARK                            x       y       z     vdW  Elec       q    Type
REMARK                         _______ _______ _______ _____ _____    ______ ____
ROOT
ATOM      1  N   UNL     1       1.429  -2.475   0.000  0.00  0.00    -0.263 N 
ATOM      2  C   UNL     1       0.715  -2.888   0.000  0.00  0.00    +0.354 A 
ATOM      3  O   UNL     1       0.000  -2.475   0.000  0.00  0.00    -0.244 OA
ATOM      4  N   UNL     1       0.715  -3.712   0.000  0.00  0.00    -0.152 NA
ATOM      5  C   UNL     1       1.429  -4.125   0.000  0.00  0.00    +0.301 A 
ATOM      6  O   UNL     1       1.429  -4.950   0.000  0.00  0.00    -0.264 OA
ATOM      7  C   UNL     1       2.143  -3.712   0.000  0.00  0.00    +0.156 A 
ATOM      8  C   UNL     1       2.143  -2.888   0.000  0.00  0.00    +0.159 A 
ENDROOT
BRANCH   8   9
ATOM      9  N   UNL     1       2.858  -2.475   0.000  0.00  0.00    -0.160 NA
ATOM     10  C   UNL     1       2.858  -1.650   0.000  0.00  0.00    +0.247 C 
ATOM     11  C   UNL     1       3.572  -1.238   0.000  0.00  0.00    +0.097 C 
ATOM     12  O   UNL     1       2.143  -1.238   0.000  0.00  0.00    -0.273 OA
ENDBRANCH   8   9
BRANCH   1  13
ATOM     13  C   UNL     1       1.429  -1.650   0.000  0.00  0.00    +0.144 C 
BRANCH  13  14
ATOM     14  C   UNL     1       0.715  -1.238   0.000  0.00  0.00    +0.167 C 
BRANCH  14  16
ATOM     15  C   UNL     1       0.000   0.000   0.000  0.00  0.00    +0.174 C 
ATOM     16  O   UNL     1       0.715  -0.412   0.000  0.00  0.00    -0.349 OA
ENDBRANCH  14  16
ENDBRANCH  13  14
ENDBRANCH   1  13
BRANCH   7  17
ATOM     17  N   UNL     1       2.858  -4.125   0.000  0.00  0.00    -0.226 NA
BRANCH  17  18
ATOM     18  C   UNL     1       3.572  -3.712   0.000  0.00  0.00    +0.139 C 
BRANCH  18  19
ATOM     19  C   UNL     1       4.287  -4.125   0.000  0.00  0.00    -0.001 A 
ATOM     20  C   UNL     1       4.287  -4.950   0.000  0.00  0.00    -0.003 A 
ATOM     21  C   UNL     1       5.001  -5.362   0.000  0.00  0.00    -0.000 A 
ATOM     22  C   UNL     1       5.716  -4.950   0.000  0.00  0.00    -0.000 A 
ATOM     23  C   UNL     1       5.716  -4.125   0.000  0.00  0.00    -0.000 A 
ATOM     24  C   UNL     1       5.001  -3.712   0.000  0.00  0.00    -0.003 A 
ENDBRANCH  18  19
ENDBRANCH  17  18
ENDBRANCH   7  17
TORSDOF 7
