REMARK  Name = 
REMARK  6 active torsions:
REMARK  status: ('A' for Active; 'I' for Inactive)
REMARK    1  A    between atoms: O_2  and  C_3
REMARK    2  A    between atoms: C_3  and  C_4
REMARK    3  A    between atoms: C_4  and  N_5
REMARK    4  A    between atoms: C_8  and  N_9
REMARK    5  A    between atoms: N_9  and  C_10
REMARK    6  A    between atoms: C_10  and  C_11
REMARK                            x       y       z     vdW  Elec       q    Type
REMARK                         _______ _______ _______ _____ _____    ______ ____
ROOT
ATOM      1  N   UNL     1       1.429  -2.475   0.000  0.00  0.00    -0.262 N 
ATOM      2  C   UNL     1       0.715  -2.888   0.000  0.00  0.00    +0.354 A 
ATOM      3  O   UNL     1       0.000  -2.475   0.000  0.00  0.00    -0.244 OA
ATOM      4  N   UNL     1       0.715  -3.712   0.000  0.00  0.00    -0.152 NA
ATOM      5  C   UNL     1       1.429  -4.125   0.000  0.00  0.00    +0.300 A 
ATOM      6  O   UNL     1       1.429  -4.950   0.000  0.00  0.00    -0.264 OA
ATOM      7  C   UNL     1       2.143  -3.712   0.000  0.00  0.00    +0.146 A 
ATOM      8  C   UNL     1       2.143  -2.888   0.000  0.00  0.00    +0.173 A 
ATOM      9  N   UNL     1       2.858  -2.475   0.000  0.00  0.00    -0.107 NA
ENDROOT
BRANCH   7  10
ATOM     10  N   UNL     1       2.858  -4.125   0.000  0.00  0.00    -0.248 N 
ATOM     11  C   UNL     1       2.858  -4.950   0.000  0.00  0.00    +0.230 C 
ATOM     12  C   UNL     1       2.143  -5.362   0.000  0.00  0.00    +0.095 C 
ATOM     13  O   UNL     1       3.572  -5.362   0.000  0.00  0.00    -0.275 OA
BRANCH  10  14
ATOM     14  C   UNL     1       3.572  -3.712   0.000  0.00  0.00    +0.125 C 
BRANCH  14  15
ATOM     15  C   UNL     1       4.287  -4.125   0.000  0.00  0.00    -0.002 A 
ATOM     16  C   UNL     1       4.287  -4.950   0.000  0.00  0.00    -0.003 A 
ATOM     17  C   UNL     1       5.001  -5.362   0.000  0.00  0.00    -0.000 A 
ATOM     18  C   UNL     1       5.716  -4.950   0.000  0.00  0.00    -0.000 A 
ATOM     19  C   UNL     1       5.716  -4.125   0.000  0.00  0.00    -0.000 A 
ATOM     20  C   UNL     1       5.001  -3.712   0.000  0.00  0.00    -0.003 A 
ENDBRANCH  14  15
ENDBRANCH  10  14
ENDBRANCH   7  10
BRANCH   1  21
ATOM     21  C   UNL     1       1.429  -1.650   0.000  0.00  0.00    +0.144 C 
BRANCH  21  22
ATOM     22  C   UNL     1       0.715  -1.238   0.000  0.00  0.00    +0.167 C 
BRANCH  22  24
ATOM     23  C   UNL     1       0.000   0.000   0.000  0.00  0.00    +0.174 C 
ATOM     24  O   UNL     1       0.715  -0.412   0.000  0.00  0.00    -0.349 OA
ENDBRANCH  22  24
ENDBRANCH  21  22
ENDBRANCH   1  21
TORSDOF 6
