REMARK  Name = 
REMARK  5 active torsions:
REMARK  status: ('A' for Active; 'I' for Inactive)
REMARK    1  A    between atoms: C_2  and  N_3
REMARK    2  A    between atoms: C_2  and  C_14
REMARK    3  A    between atoms: N_3  and  C_4
REMARK    4  A    between atoms: C_4  and  C_5
REMARK    5  A    between atoms: C_14  and  N_16
REMARK                            x       y       z     vdW  Elec       q    Type
REMARK                         _______ _______ _______ _____ _____    ______ ____
ROOT
ATOM      1  N   UNL     1       1.429  -1.650   0.000  0.00  0.00    -0.217 NA
ENDROOT
BRANCH   1   3
ATOM      2  C   UNL     1       2.143  -2.888   0.000  0.00  0.00    +0.021 C 
ATOM      3  C   UNL     1       2.143  -2.062   0.000  0.00  0.00    +0.095 C 
BRANCH   3   4
ATOM      4  C   UNL     1       2.858  -1.650   0.000  0.00  0.00    +0.121 C 
ATOM      5  C   UNL     1       2.858  -0.825   0.000  0.00  0.00    +0.028 C 
BRANCH   4   6
ATOM      6  N   UNL     1       3.572  -2.062   0.000  0.00  0.00    -0.250 N 
ATOM      7  N   UNL     1       3.659  -2.883   0.000  0.00  0.00    -0.168 NA
ATOM      8  C   UNL     1       4.466  -3.054   0.000  0.00  0.00    +0.117 A 
ATOM      9  C   UNL     1       4.878  -2.340   0.000  0.00  0.00    +0.018 A 
ATOM     10  C   UNL     1       5.699  -2.254   0.000  0.00  0.00    +0.034 C 
ATOM     11  C   UNL     1       4.326  -1.727   0.000  0.00  0.00    +0.092 A 
ENDBRANCH   4   6
ENDBRANCH   3   4
ENDBRANCH   1   3
BRANCH   1  12
ATOM     12  C   UNL     1       0.715  -2.062   0.000  0.00  0.00    +0.089 C 
BRANCH  12  13
ATOM     13  C   UNL     1       0.000  -1.650   0.000  0.00  0.00    +0.021 C 
ATOM     14  C   UNL     1       0.000  -0.825   0.000  0.00  0.00    +0.023 C 
ATOM     15  C   UNL     1      -0.715  -0.412   0.000  0.00  0.00    +0.093 C 
ATOM     16  N   UNL     1      -1.429  -0.825   0.000  0.00  0.00    -0.280 N 
ATOM     17  C   UNL     1      -2.143  -0.412   0.000  0.00  0.00    +0.226 C 
ATOM     18  C   UNL     1      -2.858  -0.825   0.000  0.00  0.00    +0.095 C 
ATOM     19  O   UNL     1      -2.143   0.412   0.000  0.00  0.00    -0.275 OA
ATOM     20  C   UNL     1      -1.429  -1.650   0.000  0.00  0.00    +0.093 C 
ATOM     21  C   UNL     1      -0.715  -2.062   0.000  0.00  0.00    +0.023 C 
ENDBRANCH  12  13
ENDBRANCH   1  12
TORSDOF 5
