REMARK  Name = 
REMARK  6 active torsions:
REMARK  status: ('A' for Active; 'I' for Inactive)
REMARK    1  A    between atoms: C_2  and  N_4
REMARK    2  A    between atoms: C_8  and  C_9
REMARK    3  A    between atoms: C_9  and  C_10
REMARK    4  A    between atoms: C_10  and  N_11
REMARK    5  A    between atoms: N_11  and  C_12
REMARK    6  A    between atoms: C_12  and  C_13
REMARK                            x       y       z     vdW  Elec       q    Type
REMARK                         _______ _______ _______ _____ _____    ______ ____
ROOT
ATOM      1  C   UNL     1      -2.143  -0.412   0.000  0.00  0.00    +0.097 C 
ENDROOT
BRANCH   1   2
ATOM      2  C   UNL     1      -2.858   0.000   0.000  0.00  0.00    +0.083 C 
BRANCH   2   4
ATOM      3  N   UNL     1      -3.659  -1.233   0.000  0.00  0.00    -0.259 N 
ATOM      4  C   UNL     1      -3.572  -0.412   0.000  0.00  0.00    +0.126 A 
ATOM      5  N   UNL     1      -4.326  -0.077   0.000  0.00  0.00    -0.229 NA
ATOM      6  C   UNL     1      -4.878  -0.690   0.000  0.00  0.00    +0.119 A 
ATOM      7  C   UNL     1      -4.466  -1.405   0.000  0.00  0.00    +0.102 A 
BRANCH   3   9
ATOM      8  F   UNL     1      -3.217  -2.592   0.000  0.00  0.00    -0.172 F 
ATOM      9  C   UNL     1      -3.046  -1.785   0.000  0.00  0.00    +0.415 C 
ATOM     10  F   UNL     1      -2.261  -1.530   0.000  0.00  0.00    -0.172 F 
ENDBRANCH   3   9
ENDBRANCH   2   4
ENDBRANCH   1   2
BRANCH   1  11
ATOM     11  N   UNL     1      -1.429   0.000   0.000  0.00  0.00    -0.218 NA
BRANCH  11  12
ATOM     12  C   UNL     1      -0.715  -0.412   0.000  0.00  0.00    +0.089 C 
BRANCH  12  13
ATOM     13  C   UNL     1       0.000   0.000   0.000  0.00  0.00    +0.022 C 
ATOM     14  C   UNL     1       0.000   0.825   0.000  0.00  0.00    +0.023 C 
ATOM     15  C   UNL     1       0.715   1.238   0.000  0.00  0.00    -0.031 C 
ATOM     16  C   UNL     1       1.429   0.825   0.000  0.00  0.00    -0.031 C 
ATOM     17  C   UNL     1       1.429   0.000   0.000  0.00  0.00    +0.022 C 
ATOM     18  C   UNL     1       0.611   0.234   0.000  0.00  0.00    +0.009 C 
ATOM     19  C   UNL     1       0.715  -0.412   0.000  0.00  0.00    +0.006 C 
ENDBRANCH  12  13
ENDBRANCH  11  12
ENDBRANCH   1  11
TORSDOF 6
