REMARK  Name = 
REMARK  4 active torsions:
REMARK  status: ('A' for Active; 'I' for Inactive)
REMARK    1  A    between atoms: N_3  and  C_4
REMARK    2  A    between atoms: N_7  and  C_10
REMARK    3  A    between atoms: N_13  and  C_14
REMARK    4  A    between atoms: C_17  and  C_20
REMARK                            x       y       z     vdW  Elec       q    Type
REMARK                         _______ _______ _______ _____ _____    ______ ____
ROOT
ATOM      1  O   UNL     1       6.128  -0.587   0.000  0.00  0.00    -0.249 OA
ATOM      2  C   UNL     1       5.414  -0.174   0.000  0.00  0.00    +0.344 C 
ATOM      3  N   UNL     1       5.414   0.651   0.000  0.00  0.00    -0.158 NA
ATOM      4  N   UNL     1       4.699  -0.587   0.000  0.00  0.00    -0.189 NA
ENDROOT
BRANCH   3   5
ATOM      5  C   UNL     1       6.128   1.063   0.000  0.00  0.00    +0.113 A 
ATOM      6  C   UNL     1       6.843   0.651   0.000  0.00  0.00    +0.118 A 
ATOM      7  N   UNL     1       7.557   1.063   0.000  0.00  0.00    -0.228 NA
ATOM      8  C   UNL     1       7.557   1.888   0.000  0.00  0.00    +0.139 A 
ATOM      9  N   UNL     1       6.843   2.301   0.000  0.00  0.00    -0.228 NA
ATOM     10  C   UNL     1       6.128   1.888   0.000  0.00  0.00    +0.118 A 
BRANCH   8  11
ATOM     11  C   UNL     1       8.272   2.301   0.000  0.00  0.00    +0.059 C 
ATOM     12  C   UNL     1       9.097   2.301   0.000  0.00  0.00    +0.008 C 
ATOM     13  C   UNL     1       8.684   3.015   0.000  0.00  0.00    +0.008 C 
ENDBRANCH   8  11
ENDBRANCH   3   5
BRANCH   4  14
ATOM     14  C   UNL     1       4.699  -1.412   0.000  0.00  0.00    +0.100 C 
ATOM     15  C   UNL     1       3.985  -1.824   0.000  0.00  0.00    +0.039 C 
ATOM     16  C   UNL     1       3.985  -2.649   0.000  0.00  0.00    +0.074 C 
ATOM     17  N   UNL     1       4.699  -3.062   0.000  0.00  0.00    -0.274 NA
ATOM     18  C   UNL     1       5.414  -2.649   0.000  0.00  0.00    +0.074 C 
ATOM     19  C   UNL     1       5.414  -1.824   0.000  0.00  0.00    +0.039 C 
BRANCH  17  20
ATOM     20  C   UNL     1       4.699  -3.887   0.000  0.00  0.00    +0.058 C 
ATOM     21  C   UNL     1       4.287  -4.601   0.000  0.00  0.00    +0.017 C 
ATOM     22  C   UNL     1       5.112  -4.601   0.000  0.00  0.00    +0.017 C 
ENDBRANCH  17  20
ENDBRANCH   4  14
TORSDOF 4
