REMARK  Name = 
REMARK  4 active torsions:
REMARK  status: ('A' for Active; 'I' for Inactive)
REMARK    1  A    between atoms: C_7  and  N_8
REMARK    2  A    between atoms: N_11  and  C_12
REMARK    3  A    between atoms: C_12  and  C_13
REMARK    4  A    between atoms: C_13  and  N_18
REMARK                            x       y       z     vdW  Elec       q    Type
REMARK                         _______ _______ _______ _____ _____    ______ ____
ROOT
ATOM      1  C   UNL     1       0.018  -1.732   0.000  0.00  0.00    +0.132 C 
ENDROOT
BRANCH   1   2
ATOM      2  C   UNL     1       0.732  -2.145   0.000  0.00  0.00    +0.076 C 
ATOM      3  C   UNL     1       0.247  -2.812   0.000  0.00  0.00    +0.074 C 
ATOM      4  S   UNL     1       0.732  -3.480   0.000  0.00  0.00    -0.139 S 
ATOM      5  C   UNL     1       1.517  -3.225   0.000  0.00  0.00    +0.059 C 
ATOM      6  C   UNL     1       1.517  -2.400   0.000  0.00  0.00    +0.029 C 
BRANCH   2   7
ATOM      7  N   UNL     1       1.068  -1.391   0.000  0.00  0.00    -0.268 NA
ATOM      8  C   UNL     1       1.888  -1.305   0.000  0.00  0.00    +0.105 C 
ATOM      9  C   UNL     1       2.224  -0.551   0.000  0.00  0.00    +0.159 C 
ATOM     10  O   UNL     1       1.739   0.116   0.000  0.00  0.00    -0.351 OA
ATOM     11  C   UNL     1       0.918   0.030   0.000  0.00  0.00    +0.159 C 
ATOM     12  C   UNL     1       0.583  -0.724   0.000  0.00  0.00    +0.105 C 
ENDBRANCH   2   7
ENDBRANCH   1   2
BRANCH   1  15
ATOM     13  N   UNL     1      -2.126  -2.145   0.000  0.00  0.00    -0.142 NA
ATOM     14  C   UNL     1      -1.411  -1.732   0.000  0.00  0.00    +0.345 C 
ATOM     15  N   UNL     1      -0.697  -2.145   0.000  0.00  0.00    -0.185 NA
ATOM     16  O   UNL     1      -1.411  -0.907   0.000  0.00  0.00    -0.249 OA
BRANCH  13  19
ATOM     17  C   UNL     1      -3.555  -2.970   0.000  0.00  0.00    +0.034 C 
ATOM     18  C   UNL     1      -3.555  -2.145   0.000  0.00  0.00    +0.012 A 
ATOM     19  C   UNL     1      -2.840  -1.732   0.000  0.00  0.00    +0.152 A 
ATOM     20  N   UNL     1      -2.840  -0.907   0.000  0.00  0.00    -0.228 NA
ATOM     21  C   UNL     1      -3.555  -0.495   0.000  0.00  0.00    +0.100 A 
ATOM     22  C   UNL     1      -4.269  -0.907   0.000  0.00  0.00    +0.020 A 
ATOM     23  C   UNL     1      -4.269  -1.732   0.000  0.00  0.00    +0.000 A 
ENDBRANCH  13  19
ENDBRANCH   1  15
TORSDOF 4
