REMARK  Name = 
REMARK  4 active torsions:
REMARK  status: ('A' for Active; 'I' for Inactive)
REMARK    1  A    between atoms: C_2  and  C_3
REMARK    2  A    between atoms: C_2  and  C_16
REMARK    3  A    between atoms: C_3  and  N_4
REMARK    4  A    between atoms: C_11  and  C_12
REMARK                            x       y       z     vdW  Elec       q    Type
REMARK                         _______ _______ _______ _____ _____    ______ ____
ROOT
ATOM      1  N   UNL     1       2.143  -2.062   0.000  0.00  0.00    -0.188 NA
ATOM      2  C   UNL     1       2.858  -1.650   0.000  0.00  0.00    +0.323 C 
ATOM      3  N   UNL     1       3.572  -2.062   0.000  0.00  0.00    -0.264 N 
ATOM      4  C   UNL     1       3.659  -2.883   0.000  0.00  0.00    +0.077 C 
ATOM      5  C   UNL     1       4.466  -3.054   0.000  0.00  0.00    +0.022 C 
ATOM      6  C   UNL     1       4.878  -2.340   0.000  0.00  0.00    +0.023 C 
ATOM      7  C   UNL     1       4.326  -1.727   0.000  0.00  0.00    +0.095 C 
ATOM      8  O   UNL     1       2.858  -0.825   0.000  0.00  0.00    -0.251 OA
ENDROOT
BRANCH   4   9
ATOM      9  C   UNL     1       3.046  -3.435   0.000  0.00  0.00    +0.018 C 
ATOM     10  C   UNL     1       2.222  -3.392   0.000  0.00  0.00    +0.002 C 
ATOM     11  C   UNL     1       2.178  -4.216   0.000  0.00  0.00    +0.000 C 
ATOM     12  C   UNL     1       3.002  -4.259   0.000  0.00  0.00    +0.002 C 
ENDBRANCH   4   9
BRANCH   1  13
ATOM     13  C   UNL     1       1.429  -1.650   0.000  0.00  0.00    +0.121 C 
BRANCH  13  15
ATOM     14  C   UNL     1       0.715  -2.888   0.000  0.00  0.00    +0.007 C 
ATOM     15  C   UNL     1       0.715  -2.062   0.000  0.00  0.00    +0.044 C 
BRANCH  15  16
ATOM     16  C   UNL     1       0.000  -1.650   0.000  0.00  0.00    -0.018 A 
ATOM     17  C   UNL     1       0.000  -0.825   0.000  0.00  0.00    +0.016 A 
ATOM     18  C   UNL     1      -0.715  -0.412   0.000  0.00  0.00    +0.099 A 
ATOM     19  N   UNL     1      -1.429  -0.825   0.000  0.00  0.00    -0.242 NA
ATOM     20  C   UNL     1      -1.429  -1.650   0.000  0.00  0.00    +0.099 A 
ATOM     21  C   UNL     1      -0.715  -2.062   0.000  0.00  0.00    +0.016 A 
ENDBRANCH  15  16
ENDBRANCH  13  15
ENDBRANCH   1  13
TORSDOF 4
