REMARK  Name = 
REMARK  3 active torsions:
REMARK  status: ('A' for Active; 'I' for Inactive)
REMARK    1  A    between atoms: C_6  and  N_7
REMARK    2  A    between atoms: C_8  and  C_10
REMARK    3  A    between atoms: C_10  and  N_11
REMARK                            x       y       z     vdW  Elec       q    Type
REMARK                         _______ _______ _______ _____ _____    ______ ____
ROOT
ATOM      1  N   UNL     1       4.180   3.238   0.000  0.00  0.00    -0.206 NA
ATOM      2  C   UNL     1       4.180   2.413   0.000  0.00  0.00    +0.266 C 
ATOM      3  O   UNL     1       3.466   2.001   0.000  0.00  0.00    -0.271 OA
ENDROOT
BRANCH   1   8
ATOM      4  C   UNL     1       1.322   3.238   0.000  0.00  0.00    +0.000 C 
ATOM      5  C   UNL     1       2.037   3.651   0.000  0.00  0.00    +0.002 C 
ATOM      6  C   UNL     1       2.751   3.238   0.000  0.00  0.00    +0.020 C 
ATOM      7  C   UNL     1       2.751   2.413   0.000  0.00  0.00    +0.002 C 
ATOM      8  C   UNL     1       3.466   3.651   0.000  0.00  0.00    +0.095 C 
ATOM      9  C   UNL     1       3.466   4.476   0.000  0.00  0.00    +0.022 C 
ATOM     10  C   UNL     1       2.751   4.888   0.000  0.00  0.00    +0.002 C 
ATOM     11  C   UNL     1       2.037   4.476   0.000  0.00  0.00    +0.000 C 
ENDBRANCH   1   8
BRANCH   2  12
ATOM     12  C   UNL     1       4.895   2.001   0.000  0.00  0.00    +0.217 C 
BRANCH  12  13
ATOM     13  N   UNL     1       4.895   1.176   0.000  0.00  0.00    -0.201 N 
ATOM     14  N   UNL     1       4.227   0.691   0.000  0.00  0.00    -0.042 NA
ATOM     15  N   UNL     1       4.482  -0.094   0.000  0.00  0.00    -0.023 NA
ATOM     16  N   UNL     1       5.307  -0.094   0.000  0.00  0.00    -0.105 NA
ATOM     17  C   UNL     1       5.562   0.691   0.000  0.00  0.00    +0.222 A 
ENDBRANCH  12  13
ENDBRANCH   2  12
TORSDOF 3
