REMARK  Name = 
REMARK  6 active torsions:
REMARK  status: ('A' for Active; 'I' for Inactive)
REMARK    1  A    between atoms: C_2  and  C_3
REMARK    2  A    between atoms: C_3  and  N_4
REMARK    3  A    between atoms: C_7  and  N_8
REMARK    4  A    between atoms: N_8  and  C_9
REMARK    5  A    between atoms: C_9  and  C_10
REMARK    6  A    between atoms: C_10  and  O_11
REMARK                            x       y       z     vdW  Elec       q    Type
REMARK                         _______ _______ _______ _____ _____    ______ ____
ROOT
ATOM      1  N   UNL     1      -3.572   2.062   0.000  0.00  0.00    -0.264 N 
ATOM      2  C   UNL     1      -3.572   1.238   0.000  0.00  0.00    +0.354 A 
ATOM      3  O   UNL     1      -4.287   0.825   0.000  0.00  0.00    -0.244 OA
ATOM      4  N   UNL     1      -2.858   0.825   0.000  0.00  0.00    -0.152 NA
ATOM      5  C   UNL     1      -2.143   1.238   0.000  0.00  0.00    +0.301 A 
ATOM      6  O   UNL     1      -1.429   0.825   0.000  0.00  0.00    -0.264 OA
ATOM      7  C   UNL     1      -2.143   2.062   0.000  0.00  0.00    +0.157 A 
ATOM      8  C   UNL     1      -2.858   2.475   0.000  0.00  0.00    +0.174 A 
ATOM      9  N   UNL     1      -2.858   3.300   0.000  0.00  0.00    -0.107 NA
ENDROOT
BRANCH   1  10
ATOM     10  C   UNL     1      -4.287   2.475   0.000  0.00  0.00    +0.112 C 
BRANCH  10  12
ATOM     11  C   UNL     1      -5.716   2.475   0.000  0.00  0.00    +0.002 C 
ATOM     12  C   UNL     1      -5.001   2.062   0.000  0.00  0.00    +0.025 C 
ENDBRANCH  10  12
ENDBRANCH   1  10
BRANCH   7  13
ATOM     13  N   UNL     1      -1.429   2.475   0.000  0.00  0.00    -0.228 NA
BRANCH  13  14
ATOM     14  C   UNL     1      -0.715   2.062   0.000  0.00  0.00    +0.144 C 
BRANCH  14  15
ATOM     15  C   UNL     1       0.000   2.475   0.000  0.00  0.00    +0.166 C 
BRANCH  15  16
ATOM     16  O   UNL     1       0.715   2.062   0.000  0.00  0.00    -0.349 OA
ATOM     17  C   UNL     1       1.429   2.475   0.000  0.00  0.00    +0.174 C 
ENDBRANCH  15  16
ENDBRANCH  14  15
ENDBRANCH  13  14
ENDBRANCH   7  13
TORSDOF 6
