REMARK  Name = 
REMARK  3 active torsions:
REMARK  status: ('A' for Active; 'I' for Inactive)
REMARK    1  A    between atoms: C_2  and  N_3
REMARK    2  A    between atoms: C_5  and  N_6
REMARK    3  A    between atoms: N_9  and  C_10
REMARK                            x       y       z     vdW  Elec       q    Type
REMARK                         _______ _______ _______ _____ _____    ______ ____
ROOT
ATOM      1  N   UNL     1       4.287  -4.125   0.000  0.00  0.00    -0.159 NA
ATOM      2  C   UNL     1       4.287  -4.950   0.000  0.00  0.00    +0.343 C 
ATOM      3  N   UNL     1       5.001  -5.362   0.000  0.00  0.00    -0.189 NA
ATOM      4  O   UNL     1       3.572  -5.362   0.000  0.00  0.00    -0.249 OA
ENDROOT
BRANCH   1  10
ATOM      5  N   UNL     1       2.858  -2.475   0.000  0.00  0.00    -0.293 N 
ATOM      6  C   UNL     1       2.143  -2.888   0.000  0.00  0.00    +0.261 A 
ATOM      7  O   UNL     1       1.429  -2.475   0.000  0.00  0.00    -0.267 OA
ATOM      8  C   UNL     1       2.143  -3.712   0.000  0.00  0.00    +0.062 A 
ATOM      9  C   UNL     1       2.858  -4.125   0.000  0.00  0.00    +0.023 A 
ATOM     10  C   UNL     1       3.572  -3.712   0.000  0.00  0.00    +0.092 A 
ATOM     11  C   UNL     1       3.572  -2.888   0.000  0.00  0.00    +0.095 A 
BRANCH   5  13
ATOM     12  C   UNL     1       2.143  -1.238   0.000  0.00  0.00    +0.027 C 
ATOM     13  C   UNL     1       2.858  -1.650   0.000  0.00  0.00    +0.109 C 
ENDBRANCH   5  13
ENDBRANCH   1  10
BRANCH   3  14
ATOM     14  C   UNL     1       5.001  -6.188   0.000  0.00  0.00    +0.097 C 
ATOM     15  C   UNL     1       4.287  -6.600   0.000  0.00  0.00    +0.022 C 
ATOM     16  C   UNL     1       4.287  -7.425   0.000  0.00  0.00    +0.002 C 
ATOM     17  C   UNL     1       5.001  -7.838   0.000  0.00  0.00    +0.000 C 
ATOM     18  C   UNL     1       5.716  -7.425   0.000  0.00  0.00    +0.002 C 
ATOM     19  C   UNL     1       5.716  -6.600   0.000  0.00  0.00    +0.022 C 
ENDBRANCH   3  14
TORSDOF 3
