REMARK  Name = 
REMARK  3 active torsions:
REMARK  status: ('A' for Active; 'I' for Inactive)
REMARK    1  A    between atoms: C_2  and  C_3
REMARK    2  A    between atoms: C_2  and  C_14
REMARK    3  A    between atoms: N_5  and  C_6
REMARK                            x       y       z     vdW  Elec       q    Type
REMARK                         _______ _______ _______ _____ _____    ______ ____
ROOT
ATOM      1  C   UNL     1       1.173  -1.947   0.000  0.00  0.00    +0.245 C 
ATOM      2  N   UNL     1       1.173  -1.122   0.000  0.00  0.00    -0.209 NA
ATOM      3  O   UNL     1       1.887  -2.360   0.000  0.00  0.00    -0.273 OA
ENDROOT
BRANCH   2   4
ATOM      4  C   UNL     1       1.887  -0.710   0.000  0.00  0.00    +0.079 C 
ATOM      5  C   UNL     1       2.700  -0.566   0.000  0.00  0.00    +0.020 C 
ATOM      6  C   UNL     1       2.982   0.209   0.000  0.00  0.00    +0.002 C 
ATOM      7  C   UNL     1       2.451   0.841   0.000  0.00  0.00    +0.000 C 
ATOM      8  C   UNL     1       2.734   1.616   0.000  0.00  0.00    +0.000 C 
ATOM      9  C   UNL     1       1.639   0.698   0.000  0.00  0.00    +0.002 C 
ATOM     10  C   UNL     1       1.357  -0.078   0.000  0.00  0.00    +0.020 C 
ATOM     11  C   UNL     1       2.169  -1.485   0.000  0.00  0.00    +0.022 C 
ENDBRANCH   2   4
BRANCH   1  13
ATOM     12  C   UNL     1      -0.256  -1.947   0.000  0.00  0.00    +0.014 C 
ATOM     13  C   UNL     1       0.458  -2.360   0.000  0.00  0.00    +0.103 C 
BRANCH  13  14
ATOM     14  C   UNL     1       0.458  -3.185   0.000  0.00  0.00    +0.015 A 
ATOM     15  C   UNL     1      -0.209  -3.670   0.000  0.00  0.00    +0.054 A 
ATOM     16  C   UNL     1      -0.994  -3.415   0.000  0.00  0.00    +0.051 C 
ATOM     17  N   UNL     1       0.046  -4.454   0.000  0.00  0.00    -0.253 N 
ATOM     18  C   UNL     1      -0.439  -5.122   0.000  0.00  0.00    +0.153 C 
ATOM     19  N   UNL     1       0.871  -4.454   0.000  0.00  0.00    -0.174 NA
ATOM     20  C   UNL     1       1.126  -3.670   0.000  0.00  0.00    +0.077 A 
ATOM     21  C   UNL     1       1.910  -3.415   0.000  0.00  0.00    +0.054 C 
ENDBRANCH  13  14
ENDBRANCH   1  13
TORSDOF 3
