REMARK  Name = 
REMARK  5 active torsions:
REMARK  status: ('A' for Active; 'I' for Inactive)
REMARK    1  A    between atoms: N_2  and  C_12
REMARK    2  A    between atoms: C_3  and  N_6
REMARK    3  A    between atoms: N_6  and  C_8
REMARK    4  A    between atoms: N_6  and  C_23
REMARK    5  A    between atoms: C_12  and  C_15
REMARK                            x       y       z     vdW  Elec       q    Type
REMARK                         _______ _______ _______ _____ _____    ______ ____
ROOT
ATOM      1  C   UNL     1       2.562   0.825   0.000  0.00  0.00    +0.149 A 
ATOM      2  N   UNL     1       1.779   1.083   0.000  0.00  0.00    -0.219 NA
ATOM      3  C   UNL     1       1.292   0.412   0.000  0.00  0.00    +0.180 A 
ATOM      4  N   UNL     1       1.779  -0.254   0.000  0.00  0.00    -0.292 N 
ATOM      5  C   UNL     1       2.562   0.000   0.000  0.00  0.00    +0.167 A 
ATOM      6  N   UNL     1       3.275  -0.412   0.000  0.00  0.00    -0.205 NA
ATOM      7  C   UNL     1       3.992   0.000   0.000  0.00  0.00    +0.201 A 
ATOM      8  N   UNL     1       3.992   0.825   0.000  0.00  0.00    -0.207 NA
ATOM      9  C   UNL     1       3.275   1.238   0.000  0.00  0.00    +0.155 A 
ENDROOT
BRANCH   4  10
ATOM     10  C   UNL     1       1.521  -1.038   0.000  0.00  0.00    +0.139 C 
BRANCH  10  11
ATOM     11  C   UNL     1       2.075  -1.650   0.000  0.00  0.00    +0.152 C 
ATOM     12  O   UNL     1       1.375  -2.087   0.000  0.00  0.00    -0.223 OA
ATOM     13  C   UNL     1       2.583  -1.000   0.000  0.00  0.00    +0.064 C 
ATOM     14  C   UNL     1       3.400  -1.117   0.000  0.00  0.00    +0.145 C 
ATOM     15  O   UNL     1       3.708  -1.879   0.000  0.00  0.00    -0.354 OA
ATOM     16  C   UNL     1       3.200  -2.529   0.000  0.00  0.00    +0.145 C 
ATOM     17  C   UNL     1       2.383  -2.417   0.000  0.00  0.00    +0.064 C 
ENDBRANCH  10  11
ENDBRANCH   4  10
BRANCH   9  18
ATOM     18  N   UNL     1       3.275   2.062   0.000  0.00  0.00    -0.286 N 
BRANCH  18  19
ATOM     19  C   UNL     1       2.562   2.475   0.000  0.00  0.00    +0.154 C 
ATOM     20  C   UNL     1       1.808   2.142   0.000  0.00  0.00    +0.053 C 
ATOM     21  C   UNL     1       1.258   2.754   0.000  0.00  0.00    +0.117 C 
ATOM     22  N   UNL     1       1.671   3.471   0.000  0.00  0.00    -0.204 NA
ATOM     23  C   UNL     1       2.475   3.296   0.000  0.00  0.00    +0.259 C 
ATOM     24  O   UNL     1       3.087   3.850   0.000  0.00  0.00    -0.272 OA
ENDBRANCH  18  19
BRANCH  18  25
ATOM     25  C   UNL     1       3.992   2.475   0.000  0.00  0.00    +0.093 C 
ATOM     26  C   UNL     1       4.704   2.062   0.000  0.00  0.00    +0.023 C 
ENDBRANCH  18  25
ENDBRANCH   9  18
TORSDOF 5
