REMARK  Name = 
REMARK  5 active torsions:
REMARK  status: ('A' for Active; 'I' for Inactive)
REMARK    1  A    between atoms: C_2  and  C_5
REMARK    2  A    between atoms: C_5  and  O_6
REMARK    3  A    between atoms: O_6  and  C_7
REMARK    4  A    between atoms: C_10  and  N_11
REMARK    5  A    between atoms: N_14  and  C_15
REMARK                            x       y       z     vdW  Elec       q    Type
REMARK                         _______ _______ _______ _____ _____    ______ ____
ROOT
ATOM      1  C   UNL     1      -2.143  -1.238   0.000  0.00  0.00    +0.225 A 
ATOM      2  N   UNL     1      -2.858  -1.650   0.000  0.00  0.00    -0.209 NA
ATOM      3  C   UNL     1      -2.858  -2.475   0.000  0.00  0.00    +0.119 A 
ATOM      4  C   UNL     1      -2.143  -2.888   0.000  0.00  0.00    +0.094 A 
ATOM      5  C   UNL     1      -1.429  -2.475   0.000  0.00  0.00    +0.023 A 
ATOM      6  C   UNL     1      -1.429  -1.650   0.000  0.00  0.00    +0.059 A 
ENDROOT
BRANCH   4   7
ATOM      7  N   UNL     1      -2.143  -3.712   0.000  0.00  0.00    -0.159 NA
ATOM      8  C   UNL     1      -2.858  -4.125   0.000  0.00  0.00    +0.343 C 
ATOM      9  N   UNL     1      -2.858  -4.950   0.000  0.00  0.00    -0.189 NA
ATOM     10  O   UNL     1      -3.572  -3.712   0.000  0.00  0.00    -0.249 OA
BRANCH   9  11
ATOM     11  C   UNL     1      -2.143  -5.362   0.000  0.00  0.00    +0.102 C 
ATOM     12  C   UNL     1      -2.143  -6.188   0.000  0.00  0.00    +0.054 C 
ATOM     13  C   UNL     1      -1.429  -6.600   0.000  0.00  0.00    +0.144 C 
ATOM     14  O   UNL     1      -0.715  -6.188   0.000  0.00  0.00    -0.354 OA
ATOM     15  C   UNL     1      -0.715  -5.362   0.000  0.00  0.00    +0.144 C 
ATOM     16  C   UNL     1      -1.429  -4.950   0.000  0.00  0.00    +0.054 C 
ENDBRANCH   9  11
ENDBRANCH   4   7
BRANCH   1  17
ATOM     17  O   UNL     1      -2.143  -0.412   0.000  0.00  0.00    -0.451 OA
BRANCH  17  18
ATOM     18  C   UNL     1      -2.858   0.000   0.000  0.00  0.00    +0.310 C 
BRANCH  18  20
ATOM     19  F   UNL     1      -2.858   1.650   0.000  0.00  0.00    -0.166 F 
ATOM     20  C   UNL     1      -2.858   0.825   0.000  0.00  0.00    +0.438 C 
ATOM     21  F   UNL     1      -2.033   0.825   0.000  0.00  0.00    -0.166 F 
ATOM     22  F   UNL     1      -3.683   0.825   0.000  0.00  0.00    -0.166 F 
ENDBRANCH  18  20
ENDBRANCH  17  18
ENDBRANCH   1  17
TORSDOF 5
