REMARK  Name = 
REMARK  1 active torsions:
REMARK  status: ('A' for Active; 'I' for Inactive)
REMARK    1  A    between atoms: C_4  and  C_7
REMARK                            x       y       z     vdW  Elec       q    Type
REMARK                         _______ _______ _______ _____ _____    ______ ____
ROOT
ATOM      1  C   UNL     1       1.612  -3.175   0.000  0.00  0.00    +0.138 C 
ATOM      2  C   UNL     1       1.276  -3.928   0.000  0.00  0.00    +0.116 C 
ATOM      3  N   UNL     1       0.456  -4.014   0.000  0.00  0.00    -0.131 NA
ATOM      4  C   UNL     1       1.761  -4.596   0.000  0.00  0.00    +0.031 C 
ATOM      5  C   UNL     1       2.582  -4.509   0.000  0.00  0.00    +0.088 C 
ATOM      6  C   UNL     1       2.917  -3.756   0.000  0.00  0.00    +0.242 C 
ATOM      7  O   UNL     1       3.738  -3.670   0.000  0.00  0.00    -0.273 OA
ATOM      8  N   UNL     1       2.432  -3.088   0.000  0.00  0.00    -0.201 NA
ENDROOT
BRANCH   1  13
ATOM      9  C   UNL     1       0.715  -0.412   0.000  0.00  0.00    +0.154 C 
ATOM     10  N   UNL     1       0.715  -1.238   0.000  0.00  0.00    -0.248 N 
ATOM     11  N   UNL     1       0.047  -1.722   0.000  0.00  0.00    -0.168 NA
ATOM     12  C   UNL     1       0.302  -2.507   0.000  0.00  0.00    +0.119 A 
ATOM     13  C   UNL     1       1.127  -2.507   0.000  0.00  0.00    +0.038 A 
ATOM     14  C   UNL     1       1.382  -1.722   0.000  0.00  0.00    +0.094 A 
ENDBRANCH   1  13
TORSDOF 1
