REMARK  Name = 
REMARK  4 active torsions:
REMARK  status: ('A' for Active; 'I' for Inactive)
REMARK    1  A    between atoms: C_4  and  C_5
REMARK    2  A    between atoms: C_5  and  C_6
REMARK    3  A    between atoms: N_8  and  C_9
REMARK    4  A    between atoms: C_9  and  C_10
REMARK                            x       y       z     vdW  Elec       q    Type
REMARK                         _______ _______ _______ _____ _____    ______ ____
ROOT
ATOM      1  C   UNL     1      -1.413  -1.242   0.000  0.00  0.00    +0.247 C 
ATOM      2  N   UNL     1      -0.699  -0.829   0.000  0.00  0.00    -0.205 NA
ATOM      3  O   UNL     1      -1.413  -2.067   0.000  0.00  0.00    -0.273 OA
ENDROOT
BRANCH   1   4
ATOM      4  C   UNL     1      -2.127  -0.829   0.000  0.00  0.00    +0.134 C 
BRANCH   4   9
ATOM      5  C   UNL     1      -4.968  -1.433   0.000  0.00  0.00    +0.054 C 
ATOM      6  C   UNL     1      -4.148  -1.519   0.000  0.00  0.00    +0.082 A 
ATOM      7  N   UNL     1      -3.735  -2.234   0.000  0.00  0.00    -0.153 NA
ATOM      8  N   UNL     1      -2.928  -2.062   0.000  0.00  0.00    -0.152 NA
ATOM      9  C   UNL     1      -2.842  -1.242   0.000  0.00  0.00    +0.091 A 
ATOM     10  C   UNL     1      -3.596  -0.906   0.000  0.00  0.00    +0.033 A 
ENDBRANCH   4   9
ENDBRANCH   1   4
BRANCH   2  11
ATOM     11  C   UNL     1       0.016  -1.242   0.000  0.00  0.00    +0.115 C 
BRANCH  11  12
ATOM     12  C   UNL     1       0.730  -0.829   0.000  0.00  0.00    +0.020 C 
ATOM     13  C   UNL     1       1.553  -0.768   0.000  0.00  0.00    +0.002 C 
ATOM     14  C   UNL     1       2.018  -0.086   0.000  0.00  0.00    +0.000 C 
ATOM     15  C   UNL     1       1.775   0.702   0.000  0.00  0.00    +0.000 C 
ATOM     16  C   UNL     1       1.007   1.004   0.000  0.00  0.00    +0.000 C 
ATOM     17  C   UNL     1       0.292   0.591   0.000  0.00  0.00    +0.000 C 
ATOM     18  C   UNL     1       0.169  -0.225   0.000  0.00  0.00    +0.002 C 
ATOM     19  C   UNL     1       0.974  -1.618   0.000  0.00  0.00    +0.002 C 
ENDBRANCH  11  12
ENDBRANCH   2  11
TORSDOF 4
