REMARK  Name = 
REMARK  4 active torsions:
REMARK  status: ('A' for Active; 'I' for Inactive)
REMARK    1  A    between atoms: N_4  and  C_5
REMARK    2  A    between atoms: C_5  and  O_6
REMARK    3  A    between atoms: O_6  and  C_7
REMARK    4  A    between atoms: C_7  and  C_8
REMARK                            x       y       z     vdW  Elec       q    Type
REMARK                         _______ _______ _______ _____ _____    ______ ____
ROOT
ATOM      1  C   UNL     1       2.858  -1.650   0.000  0.00  0.00    +0.038 C 
ATOM      2  C   UNL     1       2.858  -2.475   0.000  0.00  0.00    +0.053 A 
ATOM      3  C   UNL     1       2.143  -2.888   0.000  0.00  0.00    +0.280 A 
ATOM      4  O   UNL     1       1.429  -2.475   0.000  0.00  0.00    -0.265 OA
ATOM      5  N   UNL     1       2.143  -3.712   0.000  0.00  0.00    -0.153 NA
ATOM      6  C   UNL     1       2.858  -4.125   0.000  0.00  0.00    +0.355 A 
ATOM      7  O   UNL     1       2.858  -4.950   0.000  0.00  0.00    -0.244 OA
ATOM      8  N   UNL     1       3.572  -3.712   0.000  0.00  0.00    -0.252 N 
ATOM      9  C   UNL     1       3.572  -2.888   0.000  0.00  0.00    +0.083 A 
ENDROOT
BRANCH   8  10
ATOM     10  C   UNL     1       4.287  -4.125   0.000  0.00  0.00    +0.260 C 
BRANCH  10  11
ATOM     11  O   UNL     1       4.287  -4.950   0.000  0.00  0.00    -0.327 OA
BRANCH  11  12
ATOM     12  C   UNL     1       5.001  -5.362   0.000  0.00  0.00    +0.171 C 
BRANCH  12  13
ATOM     13  C   UNL     1       5.001  -6.188   0.000  0.00  0.00    +0.007 A 
ATOM     14  C   UNL     1       4.287  -6.600   0.000  0.00  0.00    -0.002 A 
ATOM     15  C   UNL     1       4.287  -7.425   0.000  0.00  0.00    -0.000 A 
ATOM     16  C   UNL     1       5.001  -7.838   0.000  0.00  0.00    -0.000 A 
ATOM     17  C   UNL     1       5.716  -7.425   0.000  0.00  0.00    -0.000 A 
ATOM     18  C   UNL     1       5.716  -6.600   0.000  0.00  0.00    -0.002 A 
ENDBRANCH  12  13
ENDBRANCH  11  12
ENDBRANCH  10  11
ENDBRANCH   8  10
TORSDOF 4
