REMARK  Name = 
REMARK  5 active torsions:
REMARK  status: ('A' for Active; 'I' for Inactive)
REMARK    1  A    between atoms: C_2  and  C_3
REMARK    2  A    between atoms: C_2  and  N_9
REMARK    3  A    between atoms: C_3  and  N_4
REMARK    4  A    between atoms: N_9  and  C_10
REMARK    5  A    between atoms: C_10  and  C_11
REMARK                            x       y       z     vdW  Elec       q    Type
REMARK                         _______ _______ _______ _____ _____    ______ ____
ROOT
ATOM      1  N   UNL     1       2.143  -2.888   0.000  0.00  0.00    -0.217 NA
ENDROOT
BRANCH   1   3
ATOM      2  C   UNL     1       1.429  -1.650   0.000  0.00  0.00    +0.021 C 
ATOM      3  C   UNL     1       1.429  -2.475   0.000  0.00  0.00    +0.097 C 
BRANCH   3   4
ATOM      4  C   UNL     1       0.715  -2.888   0.000  0.00  0.00    +0.146 C 
BRANCH   4   5
ATOM      5  N   UNL     1       0.000  -2.475   0.000  0.00  0.00    -0.229 N 
ATOM      6  N   UNL     1      -0.086  -1.655   0.000  0.00  0.00    -0.145 NA
ATOM      7  C   UNL     1      -0.893  -1.483   0.000  0.00  0.00    +0.221 A 
ATOM      8  N   UNL     1      -1.306  -2.197   0.000  0.00  0.00    -0.201 NA
ATOM      9  C   UNL     1      -0.754  -2.811   0.000  0.00  0.00    +0.197 A 
ENDBRANCH   4   5
ENDBRANCH   3   4
ENDBRANCH   1   3
BRANCH   1  10
ATOM     10  C   UNL     1       2.858  -2.475   0.000  0.00  0.00    +0.093 C 
BRANCH  10  11
ATOM     11  C   UNL     1       3.572  -2.888   0.000  0.00  0.00    +0.035 C 
ATOM     12  C   UNL     1       3.572  -3.712   0.000  0.00  0.00    -0.047 C 
ATOM     13  C   UNL     1       2.858  -4.125   0.000  0.00  0.00    +0.026 C 
ATOM     14  C   UNL     1       4.287  -4.125   0.000  0.00  0.00    -0.035 C 
ATOM     15  C   UNL     1       5.001  -3.712   0.000  0.00  0.00    +0.025 C 
ATOM     16  C   UNL     1       5.001  -2.888   0.000  0.00  0.00    +0.005 C 
ATOM     17  C   UNL     1       4.287  -2.475   0.000  0.00  0.00    +0.005 C 
ATOM     18  C   UNL     1       4.287  -1.650   0.000  0.00  0.00    +0.000 C 
ENDBRANCH  10  11
ENDBRANCH   1  10
TORSDOF 5
