REMARK  Name = 
REMARK  5 active torsions:
REMARK  status: ('A' for Active; 'I' for Inactive)
REMARK    1  A    between atoms: C_2  and  N_3
REMARK    2  A    between atoms: C_5  and  N_6
REMARK    3  A    between atoms: N_9  and  C_10
REMARK    4  A    between atoms: C_10  and  C_11
REMARK    5  A    between atoms: C_11  and  C_17
REMARK                            x       y       z     vdW  Elec       q    Type
REMARK                         _______ _______ _______ _____ _____    ______ ____
ROOT
ATOM      1  N   UNL     1       0.778  -2.039   0.000  0.00  0.00    -0.159 NA
ATOM      2  C   UNL     1       1.493  -2.452   0.000  0.00  0.00    +0.344 C 
ATOM      3  N   UNL     1       2.207  -2.039   0.000  0.00  0.00    -0.186 NA
ATOM      4  O   UNL     1       1.493  -3.277   0.000  0.00  0.00    -0.249 OA
ENDROOT
BRANCH   1  10
ATOM      5  N   UNL     1      -1.365  -2.452   0.000  0.00  0.00    -0.293 N 
ATOM      6  C   UNL     1      -1.365  -3.277   0.000  0.00  0.00    +0.261 A 
ATOM      7  O   UNL     1      -2.079  -3.689   0.000  0.00  0.00    -0.267 OA
ATOM      8  C   UNL     1      -0.650  -3.689   0.000  0.00  0.00    +0.062 A 
ATOM      9  C   UNL     1       0.064  -3.277   0.000  0.00  0.00    +0.023 A 
ATOM     10  C   UNL     1       0.064  -2.452   0.000  0.00  0.00    +0.092 A 
ATOM     11  C   UNL     1      -0.650  -2.039   0.000  0.00  0.00    +0.095 A 
BRANCH   5  13
ATOM     12  C   UNL     1      -2.794  -2.452   0.000  0.00  0.00    +0.027 C 
ATOM     13  C   UNL     1      -2.079  -2.039   0.000  0.00  0.00    +0.109 C 
ENDBRANCH   5  13
ENDBRANCH   1  10
BRANCH   3  14
ATOM     14  C   UNL     1       2.922  -2.452   0.000  0.00  0.00    +0.126 C 
BRANCH  14  15
ATOM     15  C   UNL     1       3.636  -2.039   0.000  0.00  0.00    +0.097 C 
ATOM     16  C   UNL     1       3.918  -2.814   0.000  0.00  0.00    +0.043 C 
ATOM     17  C   UNL     1       4.731  -2.958   0.000  0.00  0.00    +0.143 C 
ATOM     18  O   UNL     1       5.261  -2.326   0.000  0.00  0.00    -0.354 OA
ATOM     19  C   UNL     1       4.979  -1.550   0.000  0.00  0.00    +0.143 C 
ATOM     20  C   UNL     1       4.167  -1.407   0.000  0.00  0.00    +0.043 C 
BRANCH  15  21
ATOM     21  C   UNL     1       3.106  -1.407   0.000  0.00  0.00    +0.262 C 
ATOM     22  N   UNL     1       2.294  -1.550   0.000  0.00  0.00    -0.088 NA
ATOM     23  O   UNL     1       3.388  -0.632   0.000  0.00  0.00    -0.272 OA
ENDBRANCH  15  21
ENDBRANCH  14  15
ENDBRANCH   3  14
TORSDOF 5
