REMARK  Name = 
REMARK  5 active torsions:
REMARK  status: ('A' for Active; 'I' for Inactive)
REMARK    1  A    between atoms: C_2  and  C_3
REMARK    2  A    between atoms: C_10  and  C_11
REMARK    3  A    between atoms: N_13  and  C_14
REMARK    4  A    between atoms: C_14  and  C_15
REMARK    5  A    between atoms: C_15  and  N_16
REMARK                            x       y       z     vdW  Elec       q    Type
REMARK                         _______ _______ _______ _____ _____    ______ ____
ROOT
ATOM      1  C   UNL     1       2.143  -0.412   0.000  0.00  0.00    +0.260 C 
ATOM      2  N   UNL     1       2.858   0.000   0.000  0.00  0.00    -0.202 NA
ATOM      3  O   UNL     1       2.143  -1.238   0.000  0.00  0.00    -0.272 OA
ENDROOT
BRANCH   1   6
ATOM      4  C   UNL     1       0.715  -1.238   0.000  0.00  0.00    +0.226 C 
ATOM      5  N   UNL     1       0.715  -0.412   0.000  0.00  0.00    -0.273 N 
ATOM      6  C   UNL     1       1.429   0.000   0.000  0.00  0.00    +0.153 C 
ATOM      7  C   UNL     1       1.429   0.825   0.000  0.00  0.00    +0.029 C 
ATOM      8  C   UNL     1       0.715   1.238   0.000  0.00  0.00    +0.004 C 
ATOM      9  C   UNL     1       0.000   0.825   0.000  0.00  0.00    +0.022 C 
ATOM     10  C   UNL     1       0.000   0.000   0.000  0.00  0.00    +0.094 C 
ATOM     11  O   UNL     1       1.429  -1.650   0.000  0.00  0.00    -0.275 OA
BRANCH   4  13
ATOM     12  C   UNL     1       0.000  -2.475   0.000  0.00  0.00    +0.010 C 
ATOM     13  C   UNL     1       0.000  -1.650   0.000  0.00  0.00    +0.085 C 
ENDBRANCH   4  13
ENDBRANCH   1   6
BRANCH   2  14
ATOM     14  C   UNL     1       3.572  -0.412   0.000  0.00  0.00    +0.141 C 
BRANCH  14  15
ATOM     15  C   UNL     1       4.287   0.000   0.000  0.00  0.00    +0.151 C 
BRANCH  15  16
ATOM     16  N   UNL     1       5.001  -0.412   0.000  0.00  0.00    -0.248 N 
ATOM     17  N   UNL     1       5.088  -1.233   0.000  0.00  0.00    -0.168 NA
ATOM     18  C   UNL     1       5.894  -1.405   0.000  0.00  0.00    +0.117 A 
ATOM     19  C   UNL     1       6.307  -0.690   0.000  0.00  0.00    +0.018 A 
ATOM     20  C   UNL     1       7.128  -0.604   0.000  0.00  0.00    +0.034 C 
ATOM     21  C   UNL     1       5.755  -0.077   0.000  0.00  0.00    +0.092 A 
ENDBRANCH  15  16
ENDBRANCH  14  15
ENDBRANCH   2  14
TORSDOF 5
