REMARK  Name = 
REMARK  3 active torsions:
REMARK  status: ('A' for Active; 'I' for Inactive)
REMARK    1  A    between atoms: C_2  and  C_4
REMARK    2  A    between atoms: N_9  and  C_10
REMARK    3  A    between atoms: C_13  and  C_17
REMARK                            x       y       z     vdW  Elec       q    Type
REMARK                         _______ _______ _______ _____ _____    ______ ____
ROOT
ATOM      1  C   UNL     1       2.143  -1.238   0.000  0.00  0.00    +0.143 A 
ATOM      2  C   UNL     1       2.858  -1.650   0.000  0.00  0.00    +0.089 A 
ATOM      3 CL   UNL     1       2.858  -2.475   0.000  0.00  0.00    -0.079 Cl
ATOM      4  C   UNL     1       3.572  -1.238   0.000  0.00  0.00    +0.020 A 
ATOM      5  C   UNL     1       3.572  -0.412   0.000  0.00  0.00    +0.091 A 
ATOM      6  C   UNL     1       2.858   0.000   0.000  0.00  0.00    +0.104 A 
ATOM      7  N   UNL     1       2.143  -0.412   0.000  0.00  0.00    -0.228 NA
ENDROOT
BRANCH   1   9
ATOM      8  C   UNL     1       0.715  -1.238   0.000  0.00  0.00    +0.184 C 
ATOM      9  N   UNL     1       1.429  -1.650   0.000  0.00  0.00    -0.282 N 
ATOM     10  C   UNL     1       1.429  -2.475   0.000  0.00  0.00    +0.125 C 
ATOM     11  C   UNL     1       0.715  -2.888   0.000  0.00  0.00    +0.164 C 
ATOM     12  O   UNL     1       0.000  -2.475   0.000  0.00  0.00    -0.350 OA
ATOM     13  C   UNL     1       0.000  -1.650   0.000  0.00  0.00    +0.171 C 
BRANCH   8  15
ATOM     14  N   UNL     1       0.000   0.000   0.000  0.00  0.00    -0.086 NA
ATOM     15  C   UNL     1       0.715  -0.412   0.000  0.00  0.00    +0.281 C 
ATOM     16  O   UNL     1       1.429   0.000   0.000  0.00  0.00    -0.270 OA
ENDBRANCH   8  15
ENDBRANCH   1   9
BRANCH   5  17
ATOM     17  C   UNL     1       4.287   0.000   0.000  0.00  0.00    +0.420 C 
ATOM     18  F   UNL     1       3.874   0.715   0.000  0.00  0.00    -0.166 F 
ATOM     19  F   UNL     1       4.699  -0.715   0.000  0.00  0.00    -0.166 F 
ATOM     20  F   UNL     1       5.001   0.412   0.000  0.00  0.00    -0.166 F 
ENDBRANCH   5  17
TORSDOF 3
