REMARK  Name = 
REMARK  3 active torsions:
REMARK  status: ('A' for Active; 'I' for Inactive)
REMARK    1  A    between atoms: C_9  and  N_11
REMARK    2  A    between atoms: C_12  and  C_14
REMARK    3  A    between atoms: C_14  and  N_15
REMARK                            x       y       z     vdW  Elec       q    Type
REMARK                         _______ _______ _______ _____ _____    ______ ____
ROOT
ATOM      1  N   UNL     1       2.634  -0.696   0.000  0.00  0.00    -0.206 NA
ATOM      2  C   UNL     1       3.348  -0.283   0.000  0.00  0.00    +0.265 C 
ATOM      3  O   UNL     1       4.063  -0.696   0.000  0.00  0.00    -0.271 OA
ENDROOT
BRANCH   1   7
ATOM      4  C   UNL     1       0.208  -0.107   0.000  0.00  0.00    +0.000 C 
ATOM      5  C   UNL     1       0.999   0.129   0.000  0.00  0.00    +0.002 C 
ATOM      6  C   UNL     1       1.205  -0.696   0.000  0.00  0.00    +0.018 C 
ATOM      7  C   UNL     1       1.919  -0.283   0.000  0.00  0.00    +0.095 C 
ATOM      8  C   UNL     1       1.919   0.542   0.000  0.00  0.00    +0.022 C 
ATOM      9  C   UNL     1       1.205  -1.521   0.000  0.00  0.00    +0.002 C 
ATOM     10  C   UNL     1       0.491  -0.283   0.000  0.00  0.00    +0.002 C 
ATOM     11  C   UNL     1       0.491   0.542   0.000  0.00  0.00    +0.000 C 
ATOM     12  C   UNL     1       1.205   0.954   0.000  0.00  0.00    +0.002 C 
ATOM     13  C   UNL     1       0.208   0.366   0.000  0.00  0.00    +0.000 C 
ENDBRANCH   1   7
BRANCH   2  14
ATOM     14  C   UNL     1       3.348   0.542   0.000  0.00  0.00    +0.197 C 
BRANCH  14  15
ATOM     15  N   UNL     1       4.063   0.954   0.000  0.00  0.00    -0.269 N 
ATOM     16  C   UNL     1       4.777   0.542   0.000  0.00  0.00    +0.353 A 
ATOM     17  O   UNL     1       4.777  -0.283   0.000  0.00  0.00    -0.244 OA
ATOM     18  N   UNL     1       5.492   0.954   0.000  0.00  0.00    -0.153 NA
ATOM     19  C   UNL     1       5.492   1.779   0.000  0.00  0.00    +0.285 A 
ATOM     20  O   UNL     1       6.206   2.192   0.000  0.00  0.00    -0.265 OA
ATOM     21  C   UNL     1       4.777   2.192   0.000  0.00  0.00    +0.081 A 
ATOM     22  C   UNL     1       4.063   1.779   0.000  0.00  0.00    +0.085 A 
ENDBRANCH  14  15
ENDBRANCH   2  14
TORSDOF 3
