REMARK  Name = 
REMARK  5 active torsions:
REMARK  status: ('A' for Active; 'I' for Inactive)
REMARK    1  A    between atoms: C_2  and  C_3
REMARK    2  A    between atoms: C_3  and  C_4
REMARK    3  A    between atoms: N_10  and  C_11
REMARK    4  A    between atoms: C_11  and  C_12
REMARK    5  A    between atoms: C_12  and  C_17
REMARK                            x       y       z     vdW  Elec       q    Type
REMARK                         _______ _______ _______ _____ _____    ______ ____
ROOT
ATOM      1  C   UNL     1       0.018  -1.732   0.000  0.00  0.00    +0.119 C 
ENDROOT
BRANCH   1   2
ATOM      2  C   UNL     1       0.732  -2.145   0.000  0.00  0.00    +0.039 C 
ATOM      3  C   UNL     1       0.247  -2.812   0.000  0.00  0.00    +0.006 C 
ATOM      4  C   UNL     1       0.732  -3.480   0.000  0.00  0.00    +0.000 C 
ATOM      5  C   UNL     1       1.517  -3.225   0.000  0.00  0.00    +0.000 C 
ATOM      6  C   UNL     1       1.517  -2.400   0.000  0.00  0.00    +0.006 C 
BRANCH   2   7
ATOM      7  C   UNL     1       1.068  -1.391   0.000  0.00  0.00    -0.018 A 
ATOM      8  C   UNL     1       1.888  -1.305   0.000  0.00  0.00    +0.016 A 
ATOM      9  C   UNL     1       2.224  -0.551   0.000  0.00  0.00    +0.099 A 
ATOM     10  N   UNL     1       1.739   0.116   0.000  0.00  0.00    -0.242 NA
ATOM     11  C   UNL     1       0.918   0.030   0.000  0.00  0.00    +0.099 A 
ATOM     12  C   UNL     1       0.583  -0.724   0.000  0.00  0.00    +0.016 A 
ENDBRANCH   2   7
ENDBRANCH   1   2
BRANCH   1  15
ATOM     13  O   UNL     1      -1.411  -0.907   0.000  0.00  0.00    -0.273 OA
ATOM     14  C   UNL     1      -1.411  -1.732   0.000  0.00  0.00    +0.245 C 
ATOM     15  N   UNL     1      -0.697  -2.145   0.000  0.00  0.00    -0.205 NA
BRANCH  14  16
ATOM     16  C   UNL     1      -2.126  -2.145   0.000  0.00  0.00    +0.109 C 
BRANCH  16  17
ATOM     17  C   UNL     1      -2.840  -1.732   0.000  0.00  0.00    -0.039 C 
ATOM     18  C   UNL     1      -2.840  -0.907   0.000  0.00  0.00    +0.022 C 
ATOM     19  C   UNL     1      -3.555  -0.495   0.000  0.00  0.00    +0.005 C 
ATOM     20  C   UNL     1      -4.269  -0.907   0.000  0.00  0.00    +0.005 C 
ATOM     21  C   UNL     1      -4.269  -1.732   0.000  0.00  0.00    +0.025 C 
ATOM     22  C   UNL     1      -3.555  -2.145   0.000  0.00  0.00    -0.034 C 
ENDBRANCH  16  17
ENDBRANCH  14  16
ENDBRANCH   1  15
TORSDOF 5
