REMARK  Name = 
REMARK  6 active torsions:
REMARK  status: ('A' for Active; 'I' for Inactive)
REMARK    1  A    between atoms: C_2  and  C_3
REMARK    2  A    between atoms: C_3  and  N_4
REMARK    3  A    between atoms: C_8  and  C_9
REMARK    4  A    between atoms: C_9  and  N_10
REMARK    5  A    between atoms: N_18  and  C_19
REMARK    6  A    between atoms: C_19  and  C_20
REMARK                            x       y       z     vdW  Elec       q    Type
REMARK                         _______ _______ _______ _____ _____    ______ ____
ROOT
ATOM      1  N   UNL     1       2.143  -4.537   0.000  0.00  0.00    -0.261 NA
ATOM      2  C   UNL     1       1.429  -4.125   0.000  0.00  0.00    +0.104 C 
ATOM      3  C   UNL     1       0.715  -4.537   0.000  0.00  0.00    +0.153 C 
ATOM      4  O   UNL     1       0.715  -5.362   0.000  0.00  0.00    -0.352 OA
ATOM      5  C   UNL     1       1.429  -5.775   0.000  0.00  0.00    +0.159 C 
ATOM      6  C   UNL     1       2.143  -5.362   0.000  0.00  0.00    +0.105 C 
ENDROOT
BRANCH   3   7
ATOM      7  C   UNL     1       0.000  -4.125   0.000  0.00  0.00    +0.145 C 
BRANCH   7   8
ATOM      8  N   UNL     1      -0.715  -4.537   0.000  0.00  0.00    -0.216 NA
ATOM      9  C   UNL     1      -1.429  -4.125   0.000  0.00  0.00    +0.169 A 
ATOM     10  N   UNL     1      -1.429  -3.300   0.000  0.00  0.00    -0.131 NA
ATOM     11  N   UNL     1      -2.143  -2.888   0.000  0.00  0.00    -0.145 NA
ATOM     12  C   UNL     1      -2.858  -3.300   0.000  0.00  0.00    +0.122 A 
ATOM     13  C   UNL     1      -2.858  -4.125   0.000  0.00  0.00    +0.025 A 
ATOM     14  C   UNL     1      -2.143  -4.537   0.000  0.00  0.00    +0.039 A 
ENDBRANCH   7   8
ENDBRANCH   3   7
BRANCH   1  15
ATOM     15  C   UNL     1       2.858  -4.125   0.000  0.00  0.00    +0.160 C 
BRANCH  15  17
ATOM     16  O   UNL     1       3.572  -5.362   0.000  0.00  0.00    -0.272 OA
ATOM     17  C   UNL     1       3.572  -4.537   0.000  0.00  0.00    +0.259 C 
ATOM     18  N   UNL     1       4.287  -4.125   0.000  0.00  0.00    -0.187 NA
BRANCH  18  19
ATOM     19  C   UNL     1       5.001  -4.537   0.000  0.00  0.00    +0.219 C 
BRANCH  19  20
ATOM     20  C   UNL     1       5.716  -4.125   0.000  0.00  0.00    +0.097 C 
ATOM     21  N   UNL     1       6.430  -3.712   0.000  0.00  0.00    -0.194 NA
ENDBRANCH  19  20
ENDBRANCH  18  19
ENDBRANCH  15  17
ENDBRANCH   1  15
TORSDOF 6
