REMARK  Name = 
REMARK  3 active torsions:
REMARK  status: ('A' for Active; 'I' for Inactive)
REMARK    1  A    between atoms: N_4  and  C_5
REMARK    2  A    between atoms: C_5  and  C_6
REMARK    3  A    between atoms: C_6  and  C_8
REMARK                            x       y       z     vdW  Elec       q    Type
REMARK                         _______ _______ _______ _____ _____    ______ ____
ROOT
ATOM      1 CL   UNL     1       0.000   0.000   0.000  0.00  0.00    +0.000 Cl
ENDROOT
TORSDOF 0
REMARK  Name = 
REMARK  3 active torsions:
REMARK  status: ('A' for Active; 'I' for Inactive)
REMARK    1  A    between atoms: N_4  and  C_5
REMARK    2  A    between atoms: C_5  and  C_6
REMARK    3  A    between atoms: C_6  and  C_8
REMARK                            x       y       z     vdW  Elec       q    Type
REMARK                         _______ _______ _______ _____ _____    ______ ____
ROOT
ATOM      1 CL   UNL     1       2.004   0.000   0.000  0.00  0.00    +0.000 Cl
ENDROOT
TORSDOF 0
REMARK  Name = 
REMARK  3 active torsions:
REMARK  status: ('A' for Active; 'I' for Inactive)
REMARK    1  A    between atoms: N_4  and  C_5
REMARK    2  A    between atoms: C_5  and  C_6
REMARK    3  A    between atoms: C_6  and  C_8
REMARK                            x       y       z     vdW  Elec       q    Type
REMARK                         _______ _______ _______ _____ _____    ______ ____
ROOT
ATOM      1  C   UNL     1       0.195  -4.125   0.000  0.00  0.00    +0.028 A 
ATOM      2  C   UNL     1      -0.520  -4.537   0.000  0.00  0.00    +0.097 A 
ATOM      3  N   UNL     1      -0.520  -5.362   0.000  0.00  0.00    -0.243 NA
ATOM      4  C   UNL     1       0.195  -5.775   0.000  0.00  0.00    +0.099 A 
ATOM      5  C   UNL     1       0.909  -5.362   0.000  0.00  0.00    +0.020 A 
ATOM      6  C   UNL     1       0.909  -4.537   0.000  0.00  0.00    +0.001 A 
ENDROOT
BRANCH   1   7
ATOM      7  C   UNL     1       0.195  -3.300   0.000  0.00  0.00    +0.193 C 
ATOM      8  O   UNL     1       0.909  -2.888   0.000  0.00  0.00    -0.217 OA
BRANCH   7   9
ATOM      9  C   UNL     1      -0.520  -2.888   0.000  0.00  0.00    +0.126 C 
BRANCH   9  11
ATOM     10  C   UNL     1      -1.234  -1.650   0.000  0.00  0.00    +0.108 C 
ATOM     11  N   UNL     1      -0.520  -2.062   0.000  0.00  0.00    -0.213 NA
ENDBRANCH   9  11
ENDBRANCH   7   9
ENDBRANCH   1   7
TORSDOF 3
