REMARK  Name = 
REMARK  5 active torsions:
REMARK  status: ('A' for Active; 'I' for Inactive)
REMARK    1  A    between atoms: C_2  and  C_3
REMARK    2  A    between atoms: C_3  and  C_4
REMARK    3  A    between atoms: N_12  and  C_13
REMARK    4  A    between atoms: C_13  and  C_14
REMARK    5  A    between atoms: C_14  and  C_15
REMARK                            x       y       z     vdW  Elec       q    Type
REMARK                         _______ _______ _______ _____ _____    ______ ____
ROOT
ATOM      1  C   UNL     1      -0.715  -1.238   0.000  0.00  0.00    +0.135 C 
ATOM      2  O   UNL     1      -1.429  -1.650   0.000  0.00  0.00    -0.353 OA
ATOM      3  C   UNL     1      -1.429  -2.475   0.000  0.00  0.00    +0.164 C 
ATOM      4  C   UNL     1      -0.715  -2.888   0.000  0.00  0.00    +0.127 C 
ATOM      5  N   UNL     1       0.000  -2.475   0.000  0.00  0.00    -0.258 N 
ATOM      6  C   UNL     1       0.715  -2.888   0.000  0.00  0.00    +0.323 C 
ATOM      7  N   UNL     1       1.429  -2.475   0.000  0.00  0.00    -0.188 NA
ATOM      8  O   UNL     1       0.715  -3.712   0.000  0.00  0.00    -0.251 OA
ATOM      9  C   UNL     1       0.000  -1.650   0.000  0.00  0.00    +0.124 C 
ENDROOT
BRANCH   1  10
ATOM     10  C   UNL     1      -0.715  -0.412   0.000  0.00  0.00    +0.031 C 
BRANCH  10  12
ATOM     11  C   UNL     1      -1.429   0.825   0.000  0.00  0.00    +0.000 C 
ATOM     12  C   UNL     1      -1.429   0.000   0.000  0.00  0.00    +0.003 C 
ENDBRANCH  10  12
ENDBRANCH   1  10
BRANCH   7  13
ATOM     13  C   UNL     1       2.143  -2.888   0.000  0.00  0.00    +0.122 C 
BRANCH  13  14
ATOM     14  C   UNL     1       2.858  -2.475   0.000  0.00  0.00    +0.051 C 
BRANCH  14  15
ATOM     15  C   UNL     1       3.572  -2.888   0.000  0.00  0.00    -0.001 A 
ATOM     16  C   UNL     1       3.572  -3.712   0.000  0.00  0.00    +0.095 A 
ATOM     17  N   UNL     1       4.287  -4.125   0.000  0.00  0.00    -0.243 NA
ATOM     18  C   UNL     1       5.001  -3.712   0.000  0.00  0.00    +0.099 A 
ATOM     19  C   UNL     1       5.001  -2.888   0.000  0.00  0.00    +0.020 A 
ATOM     20  C   UNL     1       4.287  -2.475   0.000  0.00  0.00    -0.001 A 
ENDBRANCH  14  15
ENDBRANCH  13  14
ENDBRANCH   7  13
TORSDOF 5
