REMARK  Name = 
REMARK  2 active torsions:
REMARK  status: ('A' for Active; 'I' for Inactive)
REMARK    1  A    between atoms: C_2  and  C_4
REMARK    2  A    between atoms: C_4  and  C_5
REMARK                            x       y       z     vdW  Elec       q    Type
REMARK                         _______ _______ _______ _____ _____    ______ ____
ROOT
ATOM      1  C   UNL     1       1.256  -1.005   0.000  0.00  0.00    +0.079 A 
ATOM      2  N   UNL     1       0.589  -1.490   0.000  0.00  0.00    -0.227 NA
ATOM      3  C   UNL     1       0.844  -2.275   0.000  0.00  0.00    +0.170 A 
ATOM      4  N   UNL     1       0.359  -2.942   0.000  0.00  0.00    -0.220 N 
ATOM      5  C   UNL     1      -0.466  -2.942   0.000  0.00  0.00    +0.329 C 
ATOM      6  O   UNL     1      -0.951  -2.275   0.000  0.00  0.00    -0.250 OA
ATOM      7  N   UNL     1      -0.721  -3.727   0.000  0.00  0.00    -0.186 NA
ATOM      8  C   UNL     1      -0.053  -4.212   0.000  0.00  0.00    +0.139 C 
ATOM      9  C   UNL     1       0.614  -3.727   0.000  0.00  0.00    +0.125 C 
ATOM     10  S   UNL     1       1.669  -2.275   0.000  0.00  0.00    -0.051 S 
ATOM     11  C   UNL     1       1.924  -1.490   0.000  0.00  0.00    +0.053 A 
ENDROOT
BRANCH   1  12
ATOM     12  C   UNL     1       1.256  -0.180   0.000  0.00  0.00    +0.160 C 
BRANCH  12  14
ATOM     13  O   UNL     1       1.971   1.057   0.000  0.00  0.00    -0.245 OA
ATOM     14  C   UNL     1       1.971   0.232   0.000  0.00  0.00    +0.371 C 
ATOM     15  O   UNL     1       2.685  -0.180   0.000  0.00  0.00    -0.245 OA
ENDBRANCH  12  14
ENDBRANCH   1  12
TORSDOF 2
