REMARK  Name = 
REMARK  5 active torsions:
REMARK  status: ('A' for Active; 'I' for Inactive)
REMARK    1  A    between atoms: C_2  and  C_4
REMARK    2  A    between atoms: C_6  and  C_7
REMARK    3  A    between atoms: C_7  and  C_8
REMARK    4  A    between atoms: C_8  and  N_9
REMARK    5  A    between atoms: C_10  and  C_12
REMARK                            x       y       z     vdW  Elec       q    Type
REMARK                         _______ _______ _______ _____ _____    ______ ____
ROOT
ATOM      1  C   UNL     1      -3.743   1.966   0.000  0.00  0.00    +0.087 A 
ATOM      2  S   UNL     1      -4.156   1.252   0.000  0.00  0.00    -0.071 S 
ATOM      3  C   UNL     1      -3.604   0.639   0.000  0.00  0.00    +0.051 A 
ATOM      4  C   UNL     1      -2.850   0.974   0.000  0.00  0.00    +0.067 A 
ATOM      5  N   UNL     1      -2.936   1.795   0.000  0.00  0.00    -0.247 NA
ENDROOT
BRANCH   1   7
ATOM      6  C   UNL     1      -4.899   2.806   0.000  0.00  0.00    +0.007 C 
ATOM      7  C   UNL     1      -4.079   2.720   0.000  0.00  0.00    +0.047 C 
ATOM      8  C   UNL     1      -3.594   3.388   0.000  0.00  0.00    +0.007 C 
ENDBRANCH   1   7
BRANCH   4   9
ATOM      9  C   UNL     1      -2.136   0.562   0.000  0.00  0.00    +0.070 C 
BRANCH   9  10
ATOM     10  C   UNL     1      -1.421   0.974   0.000  0.00  0.00    +0.121 C 
BRANCH  10  11
ATOM     11  N   UNL     1      -0.707   0.562   0.000  0.00  0.00    -0.205 NA
ATOM     12  C   UNL     1       0.008   0.974   0.000  0.00  0.00    +0.241 C 
ATOM     13  O   UNL     1       0.008   1.799   0.000  0.00  0.00    -0.273 OA
BRANCH  12  14
ATOM     14  C   UNL     1       0.722   0.562   0.000  0.00  0.00    +0.078 C 
ATOM     15  C   UNL     1       1.135  -0.153   0.000  0.00  0.00    +0.010 C 
ATOM     16  C   UNL     1       1.547   0.562   0.000  0.00  0.00    +0.010 C 
ENDBRANCH  12  14
ENDBRANCH  10  11
ENDBRANCH   9  10
ENDBRANCH   4   9
TORSDOF 5
