REMARK  Name = 
REMARK  7 active torsions:
REMARK  status: ('A' for Active; 'I' for Inactive)
REMARK    1  A    between atoms: C_2  and  C_3
REMARK    2  A    between atoms: C_2  and  N_9
REMARK    3  A    between atoms: C_3  and  N_4
REMARK    4  A    between atoms: N_9  and  C_10
REMARK    5  A    between atoms: C_10  and  C_12
REMARK    6  A    between atoms: N_14  and  C_15
REMARK    7  A    between atoms: C_15  and  C_16
REMARK                            x       y       z     vdW  Elec       q    Type
REMARK                         _______ _______ _______ _____ _____    ______ ____
ROOT
ATOM      1  C   UNL     1       3.183  -0.627   0.000  0.00  0.00    +0.150 C 
ATOM      2  C   UNL     1       3.183   0.198   0.000  0.00  0.00    +0.029 C 
ENDROOT
BRANCH   1   3
ATOM      3  C   UNL     1       3.897  -1.040   0.000  0.00  0.00    +0.257 C 
ATOM      4  N   UNL     1       4.612  -0.627   0.000  0.00  0.00    -0.195 NA
ATOM      5  O   UNL     1       3.897  -1.865   0.000  0.00  0.00    -0.272 OA
BRANCH   4   6
ATOM      6  C   UNL     1       5.326  -1.040   0.000  0.00  0.00    +0.218 C 
BRANCH   6   7
ATOM      7  C   UNL     1       6.041  -0.627   0.000  0.00  0.00    +0.417 C 
ATOM      8  F   UNL     1       5.628   0.087   0.000  0.00  0.00    -0.168 F 
ATOM      9  F   UNL     1       6.453  -1.341   0.000  0.00  0.00    -0.168 F 
ATOM     10  F   UNL     1       6.755  -0.215   0.000  0.00  0.00    -0.168 F 
ENDBRANCH   6   7
ENDBRANCH   4   6
ENDBRANCH   1   3
BRANCH   1  11
ATOM     11  N   UNL     1       2.469  -1.040   0.000  0.00  0.00    -0.210 NA
BRANCH  11  13
ATOM     12  C   UNL     1       1.754   0.198   0.000  0.00  0.00    +0.021 C 
ATOM     13  C   UNL     1       1.754  -0.627   0.000  0.00  0.00    +0.098 C 
BRANCH  13  14
ATOM     14  C   UNL     1       1.040  -1.040   0.000  0.00  0.00    +0.145 C 
BRANCH  14  15
ATOM     15  N   UNL     1       0.325  -0.627   0.000  0.00  0.00    -0.248 N 
ATOM     16  N   UNL     1       0.239   0.193   0.000  0.00  0.00    -0.168 NA
ATOM     17  C   UNL     1      -0.568   0.365   0.000  0.00  0.00    +0.122 A 
ATOM     18  C   UNL     1      -0.981  -0.349   0.000  0.00  0.00    +0.043 A 
ATOM     19  C   UNL     1      -0.429  -0.963   0.000  0.00  0.00    +0.097 A 
ENDBRANCH  14  15
ENDBRANCH  13  14
ENDBRANCH  11  13
ENDBRANCH   1  11
TORSDOF 7
