REMARK  Name = 
REMARK  3 active torsions:
REMARK  status: ('A' for Active; 'I' for Inactive)
REMARK    1  A    between atoms: N_5  and  C_6
REMARK    2  A    between atoms: C_6  and  C_7
REMARK    3  A    between atoms: N_9  and  C_10
REMARK                            x       y       z     vdW  Elec       q    Type
REMARK                         _______ _______ _______ _____ _____    ______ ____
ROOT
ATOM      1  C   UNL     1       2.660   5.630   0.000  0.00  0.00    +0.214 C 
ENDROOT
BRANCH   1   5
ATOM      2  N   UNL     1      -0.181   6.234   0.000  0.00  0.00    -0.125 NA
ATOM      3  C   UNL     1       0.640   6.320   0.000  0.00  0.00    +0.129 A 
ATOM      4  C   UNL     1       1.192   5.707   0.000  0.00  0.00    +0.115 A 
ATOM      5  N   UNL     1       1.945   6.043   0.000  0.00  0.00    -0.239 N 
ATOM      6  N   UNL     1       1.859   6.863   0.000  0.00  0.00    -0.166 NA
ATOM      7  C   UNL     1       1.052   7.035   0.000  0.00  0.00    +0.140 A 
ENDBRANCH   1   5
BRANCH   1   8
ATOM      8  C   UNL     1       2.660   4.805   0.000  0.00  0.00    +0.266 C 
ATOM      9  N   UNL     1       3.374   4.393   0.000  0.00  0.00    -0.206 NA
ATOM     10  O   UNL     1       1.945   4.393   0.000  0.00  0.00    -0.271 OA
BRANCH   9  11
ATOM     11  C   UNL     1       3.374   3.568   0.000  0.00  0.00    +0.095 C 
ATOM     12  C   UNL     1       2.962   2.853   0.000  0.00  0.00    +0.023 C 
ATOM     13  C   UNL     1       3.787   2.853   0.000  0.00  0.00    +0.023 C 
ENDBRANCH   9  11
ENDBRANCH   1   8
TORSDOF 3
