REMARK  Name = 
REMARK  6 active torsions:
REMARK  status: ('A' for Active; 'I' for Inactive)
REMARK    1  A    between atoms: C_2  and  C_3
REMARK    2  A    between atoms: C_3  and  S_4
REMARK    3  A    between atoms: S_4  and  N_7
REMARK    4  A    between atoms: N_7  and  C_8
REMARK    5  A    between atoms: C_8  and  C_9
REMARK    6  A    between atoms: C_9  and  C_11
REMARK                            x       y       z     vdW  Elec       q    Type
REMARK                         _______ _______ _______ _____ _____    ______ ____
ROOT
ATOM      1  C   UNL     1       0.000   2.475   0.000  0.00  0.00    +0.154 C 
ENDROOT
BRANCH   1   2
ATOM      2  C   UNL     1       0.715   2.062   0.000  0.00  0.00    +0.211 C 
ATOM      3  O   UNL     1       1.429   2.475   0.000  0.00  0.00    -0.215 OA
BRANCH   2   4
ATOM      4  C   UNL     1       0.715   1.238   0.000  0.00  0.00    +0.091 A 
ATOM      5  N   UNL     1       0.000   0.825   0.000  0.00  0.00    -0.246 NA
ATOM      6  C   UNL     1       0.000   0.000   0.000  0.00  0.00    +0.099 A 
ATOM      7  C   UNL     1       0.715  -0.412   0.000  0.00  0.00    +0.021 A 
ATOM      8  C   UNL     1       1.429   0.000   0.000  0.00  0.00    +0.003 A 
ATOM      9  C   UNL     1       1.429   0.825   0.000  0.00  0.00    +0.017 A 
ENDBRANCH   2   4
ENDBRANCH   1   2
BRANCH   1  10
ATOM     10  N   UNL     1       0.000   3.300   0.000  0.00  0.00    -0.079 NA
BRANCH  10  11
ATOM     11  S   UNL     1      -0.715   3.712   0.000  0.00  0.00    +0.057 S 
ATOM     12  O   UNL     1      -0.302   4.427   0.000  0.00  0.00    -0.156 OA
ATOM     13  O   UNL     1      -1.127   2.998   0.000  0.00  0.00    -0.156 OA
BRANCH  11  14
ATOM     14  C   UNL     1      -1.429   4.125   0.000  0.00  0.00    +0.171 C 
BRANCH  14  16
ATOM     15  C   UNL     1      -2.143   5.362   0.000  0.00  0.00    +0.002 C 
ATOM     16  C   UNL     1      -1.429   4.950   0.000  0.00  0.00    +0.027 C 
ENDBRANCH  14  16
ENDBRANCH  11  14
ENDBRANCH  10  11
ENDBRANCH   1  10
TORSDOF 6
