REMARK  Name = 
REMARK  4 active torsions:
REMARK  status: ('A' for Active; 'I' for Inactive)
REMARK    1  A    between atoms: C_7  and  N_8
REMARK    2  A    between atoms: N_11  and  C_12
REMARK    3  A    between atoms: C_12  and  C_13
REMARK    4  A    between atoms: C_13  and  C_14
REMARK                            x       y       z     vdW  Elec       q    Type
REMARK                         _______ _______ _______ _____ _____    ______ ____
ROOT
ATOM      1  N   UNL     1      -2.784  -2.897   0.000  0.00  0.00    -0.159 NA
ATOM      2  C   UNL     1      -2.069  -3.309   0.000  0.00  0.00    +0.343 C 
ATOM      3  N   UNL     1      -2.069  -4.134   0.000  0.00  0.00    -0.190 NA
ATOM      4  O   UNL     1      -1.355  -2.897   0.000  0.00  0.00    -0.249 OA
ENDROOT
BRANCH   1  10
ATOM      5  C   UNL     1      -3.498   0.816   0.000  0.00  0.00    +0.114 C 
ATOM      6  N   UNL     1      -2.784   0.403   0.000  0.00  0.00    -0.290 N 
ATOM      7  C   UNL     1      -2.784  -0.422   0.000  0.00  0.00    +0.132 A 
ATOM      8  N   UNL     1      -3.498  -0.834   0.000  0.00  0.00    -0.228 NA
ATOM      9  C   UNL     1      -3.498  -1.659   0.000  0.00  0.00    +0.117 A 
ATOM     10  C   UNL     1      -2.784  -2.072   0.000  0.00  0.00    +0.094 A 
ATOM     11  C   UNL     1      -2.069  -1.659   0.000  0.00  0.00    +0.021 A 
ATOM     12  C   UNL     1      -2.069  -0.834   0.000  0.00  0.00    +0.036 A 
ATOM     13  C   UNL     1      -2.069   0.816   0.000  0.00  0.00    +0.114 C 
ENDBRANCH   1  10
BRANCH   3  14
ATOM     14  C   UNL     1      -1.355  -4.547   0.000  0.00  0.00    +0.088 C 
ATOM     15  C   UNL     1      -0.824  -5.179   0.000  0.00  0.00    +0.052 C 
ATOM     16  C   UNL     1      -0.012  -5.035   0.000  0.00  0.00    +0.144 C 
ATOM     17  O   UNL     1       0.270  -4.260   0.000  0.00  0.00    -0.354 OA
ATOM     18  C   UNL     1      -0.260  -3.628   0.000  0.00  0.00    +0.144 C 
ATOM     19  C   UNL     1      -1.072  -3.771   0.000  0.00  0.00    +0.052 C 
BRANCH  14  20
ATOM     20  C   UNL     1      -1.885  -5.179   0.000  0.00  0.00    +0.056 C 
BRANCH  20  21
ATOM     21  C   UNL     1      -1.603  -5.954   0.000  0.00  0.00    +0.184 C 
ATOM     22  O   UNL     1      -0.790  -6.097   0.000  0.00  0.00    -0.220 OA
ENDBRANCH  20  21
ENDBRANCH  14  20
ENDBRANCH   3  14
TORSDOF 4
