REMARK  Name = 
REMARK  6 active torsions:
REMARK  status: ('A' for Active; 'I' for Inactive)
REMARK    1  A    between atoms: N_5  and  C_6
REMARK    2  A    between atoms: C_6  and  C_7
REMARK    3  A    between atoms: N_9  and  C_10
REMARK    4  A    between atoms: C_10  and  C_12
REMARK    5  A    between atoms: C_10  and  C_14
REMARK    6  A    between atoms: C_19  and  C_20
REMARK                            x       y       z     vdW  Elec       q    Type
REMARK                         _______ _______ _______ _____ _____    ______ ____
ROOT
ATOM      1  C   UNL     1       0.697   3.172   0.000  0.00  0.00    +0.196 C 
ENDROOT
BRANCH   1   7
ATOM      2  C   UNL     1       2.347   0.315   0.000  0.00  0.00    +0.032 C 
ATOM      3  C   UNL     1       1.935   1.029   0.000  0.00  0.00    -0.006 A 
ATOM      4  C   UNL     1       2.347   1.743   0.000  0.00  0.00    +0.121 A 
ATOM      5  C   UNL     1       1.935   2.458   0.000  0.00  0.00    +0.271 A 
ATOM      6  O   UNL     1       2.347   3.172   0.000  0.00  0.00    -0.266 OA
ATOM      7  N   UNL     1       1.110   2.458   0.000  0.00  0.00    -0.285 N 
ATOM      8  C   UNL     1       0.697   1.743   0.000  0.00  0.00    +0.079 A 
ATOM      9  C   UNL     1       1.110   1.029   0.000  0.00  0.00    +0.015 A 
BRANCH   4  10
ATOM     10  C   UNL     1       3.172   1.743   0.000  0.00  0.00    +0.105 C 
ATOM     11  N   UNL     1       3.997   1.743   0.000  0.00  0.00    -0.191 NA
ENDBRANCH   4  10
ENDBRANCH   1   7
BRANCH   1  12
ATOM     12  C   UNL     1      -0.128   3.172   0.000  0.00  0.00    +0.265 C 
ATOM     13  N   UNL     1      -0.540   3.887   0.000  0.00  0.00    -0.193 NA
ATOM     14  O   UNL     1      -0.540   2.458   0.000  0.00  0.00    -0.271 OA
BRANCH  13  15
ATOM     15  C   UNL     1      -1.365   3.887   0.000  0.00  0.00    +0.157 C 
ATOM     16  C   UNL     1      -1.365   4.712   0.000  0.00  0.00    +0.037 C 
BRANCH  15  17
ATOM     17  C   UNL     1      -1.365   3.062   0.000  0.00  0.00    +0.032 C 
ATOM     18  C   UNL     1      -1.778   2.347   0.000  0.00  0.00    +0.003 C 
ATOM     19  C   UNL     1      -0.953   2.347   0.000  0.00  0.00    +0.003 C 
ENDBRANCH  15  17
BRANCH  15  20
ATOM     20  C   UNL     1      -2.190   3.887   0.000  0.00  0.00    +0.091 C 
ATOM     21  N   UNL     1      -3.015   3.887   0.000  0.00  0.00    -0.194 NA
ENDBRANCH  15  20
ENDBRANCH  13  15
ENDBRANCH   1  12
TORSDOF 6
