REMARK  Name = 
REMARK  7 active torsions:
REMARK  status: ('A' for Active; 'I' for Inactive)
REMARK    1  A    between atoms: N_4  and  C_5
REMARK    2  A    between atoms: C_5  and  C_6
REMARK    3  A    between atoms: C_6  and  C_7
REMARK    4  A    between atoms: N_15  and  C_16
REMARK    5  A    between atoms: C_16  and  C_17
REMARK    6  A    between atoms: C_17  and  O_18
REMARK    7  A    between atoms: O_18  and  C_19
REMARK                            x       y       z     vdW  Elec       q    Type
REMARK                         _______ _______ _______ _____ _____    ______ ____
ROOT
ATOM      1  C   UNL     1       4.262  -3.037   0.000  0.00  0.00    +0.122 A 
ATOM      2  N   UNL     1       5.016  -3.372   0.000  0.00  0.00    -0.311 N 
ATOM      3  C   UNL     1       5.568  -2.759   0.000  0.00  0.00    +0.079 A 
ATOM      4  C   UNL     1       5.156  -2.045   0.000  0.00  0.00    +0.098 A 
ATOM      5  C   UNL     1       5.568  -1.330   0.000  0.00  0.00    +0.021 A 
ATOM      6  C   UNL     1       6.393  -1.330   0.000  0.00  0.00    +0.002 A 
ATOM      7  C   UNL     1       6.806  -2.045   0.000  0.00  0.00    +0.002 A 
ATOM      8  C   UNL     1       6.393  -2.759   0.000  0.00  0.00    +0.019 A 
ATOM      9  N   UNL     1       4.349  -2.216   0.000  0.00  0.00    -0.231 NA
ENDROOT
BRANCH   1  10
ATOM     10  C   UNL     1       3.548  -3.449   0.000  0.00  0.00    +0.087 C 
BRANCH  10  11
ATOM     11  C   UNL     1       2.833  -3.037   0.000  0.00  0.00    +0.123 C 
BRANCH  11  14
ATOM     12  C   UNL     1       0.690  -3.449   0.000  0.00  0.00    +0.096 C 
ATOM     13  C   UNL     1       1.405  -3.037   0.000  0.00  0.00    +0.242 C 
ATOM     14  N   UNL     1       2.119  -3.449   0.000  0.00  0.00    -0.205 NA
ATOM     15  O   UNL     1       1.405  -2.212   0.000  0.00  0.00    -0.273 OA
ENDBRANCH  11  14
ENDBRANCH  10  11
ENDBRANCH   1  10
BRANCH   2  16
ATOM     16  C   UNL     1       5.188  -4.179   0.000  0.00  0.00    +0.154 C 
BRANCH  16  17
ATOM     17  C   UNL     1       4.574  -4.731   0.000  0.00  0.00    +0.230 C 
BRANCH  17  18
ATOM     18  O   UNL     1       4.746  -5.538   0.000  0.00  0.00    -0.474 OA
BRANCH  18  19
ATOM     19  C   UNL     1       5.531  -5.793   0.000  0.00  0.00    +0.135 A 
ATOM     20  C   UNL     1       5.702  -6.600   0.000  0.00  0.00    +0.012 A 
ATOM     21  C   UNL     1       5.089  -7.152   0.000  0.00  0.00    +0.034 C 
ATOM     22  C   UNL     1       6.487  -6.855   0.000  0.00  0.00    -0.001 A 
ATOM     23  C   UNL     1       7.100  -6.303   0.000  0.00  0.00    -0.000 A 
ATOM     24  C   UNL     1       6.928  -5.496   0.000  0.00  0.00    +0.003 A 
ATOM     25  C   UNL     1       6.144  -5.241   0.000  0.00  0.00    +0.037 A 
ENDBRANCH  18  19
ENDBRANCH  17  18
ENDBRANCH  16  17
ENDBRANCH   2  16
TORSDOF 7
