REMARK  Name = 
REMARK  6 active torsions:
REMARK  status: ('A' for Active; 'I' for Inactive)
REMARK    1  A    between atoms: C_2  and  C_3
REMARK    2  A    between atoms: C_6  and  C_7
REMARK    3  A    between atoms: C_9  and  C_10
REMARK    4  A    between atoms: C_10  and  C_11
REMARK    5  A    between atoms: N_13  and  C_14
REMARK    6  A    between atoms: C_14  and  C_18
REMARK                            x       y       z     vdW  Elec       q    Type
REMARK                         _______ _______ _______ _____ _____    ______ ____
ROOT
ATOM      1  C   UNL     1       3.355   4.539   0.000  0.00  0.00    +0.117 C 
ENDROOT
BRANCH   1   3
ATOM      2  C   UNL     1       3.049   5.977   0.000  0.00  0.00    +0.097 A 
ATOM      3  C   UNL     1       3.568   5.336   0.000  0.00  0.00    +0.037 A 
ATOM      4  C   UNL     1       4.339   5.632   0.000  0.00  0.00    +0.150 A 
ATOM      5  O   UNL     1       4.295   6.456   0.000  0.00  0.00    -0.358 OA
ATOM      6  N   UNL     1       3.498   6.669   0.000  0.00  0.00    -0.082 NA
BRANCH   2   8
ATOM      7  C   UNL     1       1.851   5.199   0.000  0.00  0.00    +0.007 C 
ATOM      8  C   UNL     1       2.225   5.934   0.000  0.00  0.00    +0.049 C 
ENDBRANCH   2   8
BRANCH   4   9
ATOM      9  C   UNL     1       5.030   5.183   0.000  0.00  0.00    +0.067 C 
ATOM     10  C   UNL     1       5.766   5.557   0.000  0.00  0.00    +0.008 C 
ENDBRANCH   4   9
ENDBRANCH   1   3
BRANCH   1  11
ATOM     11  C   UNL     1       3.938   3.956   0.000  0.00  0.00    +0.247 C 
ATOM     12  N   UNL     1       3.725   3.159   0.000  0.00  0.00    -0.194 NA
ATOM     13  O   UNL     1       4.735   4.170   0.000  0.00  0.00    -0.273 OA
BRANCH  12  14
ATOM     14  C   UNL     1       4.308   2.576   0.000  0.00  0.00    +0.157 C 
ATOM     15  C   UNL     1       3.725   1.992   0.000  0.00  0.00    +0.035 C 
ATOM     16  C   UNL     1       4.308   1.409   0.000  0.00  0.00    +0.006 C 
ATOM     17  C   UNL     1       4.891   1.992   0.000  0.00  0.00    +0.035 C 
BRANCH  14  18
ATOM     18  C   UNL     1       4.891   3.159   0.000  0.00  0.00    +0.091 C 
ATOM     19  N   UNL     1       5.475   3.743   0.000  0.00  0.00    -0.194 NA
ENDBRANCH  14  18
ENDBRANCH  12  14
ENDBRANCH   1  11
TORSDOF 6
