REMARK  Name = 
REMARK  4 active torsions:
REMARK  status: ('A' for Active; 'I' for Inactive)
REMARK    1  A    between atoms: C_3  and  C_4
REMARK    2  A    between atoms: C_4  and  N_5
REMARK    3  A    between atoms: N_8  and  C_9
REMARK    4  A    between atoms: C_12  and  C_15
REMARK                            x       y       z     vdW  Elec       q    Type
REMARK                         _______ _______ _______ _____ _____    ______ ____
ROOT
ATOM      1  C   UNL     1       3.572  -2.888   0.000  0.00  0.00    +0.113 A 
ATOM      2  C   UNL     1       3.572  -3.712   0.000  0.00  0.00    +0.118 A 
ATOM      3  N   UNL     1       4.287  -4.125   0.000  0.00  0.00    -0.228 NA
ATOM      4  C   UNL     1       5.001  -3.712   0.000  0.00  0.00    +0.139 A 
ATOM      5  N   UNL     1       5.001  -2.888   0.000  0.00  0.00    -0.228 NA
ATOM      6  C   UNL     1       4.287  -2.475   0.000  0.00  0.00    +0.118 A 
ENDROOT
BRANCH   1   9
ATOM      7  N   UNL     1       1.429  -2.475   0.000  0.00  0.00    -0.173 NA
ATOM      8  C   UNL     1       2.143  -2.888   0.000  0.00  0.00    +0.345 C 
ATOM      9  N   UNL     1       2.858  -2.475   0.000  0.00  0.00    -0.158 NA
ATOM     10  O   UNL     1       2.143  -3.712   0.000  0.00  0.00    -0.249 OA
BRANCH   7  11
ATOM     11  C   UNL     1       0.715  -2.888   0.000  0.00  0.00    +0.192 C 
BRANCH  11  14
ATOM     12  C   UNL     1      -1.429  -1.650   0.000  0.00  0.00    +0.090 C 
ATOM     13  C   UNL     1      -0.715  -2.062   0.000  0.00  0.00    -0.088 C 
ATOM     14  C   UNL     1       0.000  -2.475   0.000  0.00  0.00    -0.067 C 
ENDBRANCH  11  14
ENDBRANCH   7  11
ENDBRANCH   1   9
BRANCH   4  15
ATOM     15  C   UNL     1       5.716  -4.125   0.000  0.00  0.00    +0.059 C 
ATOM     16  C   UNL     1       6.128  -4.840   0.000  0.00  0.00    +0.008 C 
ATOM     17  C   UNL     1       6.541  -4.125   0.000  0.00  0.00    +0.008 C 
ENDBRANCH   4  15
TORSDOF 4
