REMARK  Name = 
REMARK  4 active torsions:
REMARK  status: ('A' for Active; 'I' for Inactive)
REMARK    1  A    between atoms: N_1  and  C_12
REMARK    2  A    between atoms: N_2  and  C_13
REMARK    3  A    between atoms: C_8  and  C_12
REMARK    4  A    between atoms: C_9  and  C_15
REMARK                            x       y       z     vdW  Elec       q    Type
REMARK                         _______ _______ _______ _____ _____    ______ ____
ROOT
ATOM      1  N   UNL     1      -2.117  -2.163   0.000  0.00  0.00    -0.237 N 
ATOM      2  C   UNL     1      -1.400  -1.750   0.000  0.00  0.00    +0.294 A 
ATOM      3  O   UNL     1      -1.400  -0.925   0.000  0.00  0.00    -0.264 OA
ATOM      4  C   UNL     1      -0.688  -2.163   0.000  0.00  0.00    +0.213 A 
ATOM      5  F   UNL     1       0.029  -1.750   0.000  0.00  0.00    -0.198 F 
ATOM      6  C   UNL     1      -0.688  -2.987   0.000  0.00  0.00    +0.116 A 
ATOM      7  N   UNL     1      -1.400  -3.400   0.000  0.00  0.00    -0.255 N 
ATOM      8  C   UNL     1      -2.117  -2.987   0.000  0.00  0.00    +0.336 A 
ATOM      9  O   UNL     1      -2.829  -3.400   0.000  0.00  0.00    -0.246 OA
ENDROOT
BRANCH   7  10
ATOM     10  C   UNL     1      -1.400  -4.225   0.000  0.00  0.00    +0.208 C 
ATOM     11  C   UNL     1      -0.733  -4.708   0.000  0.00  0.00    +0.057 C 
ATOM     12  C   UNL     1      -0.988  -5.492   0.000  0.00  0.00    +0.037 C 
ATOM     13  C   UNL     1      -1.812  -5.492   0.000  0.00  0.00    +0.144 C 
ATOM     14  O   UNL     1      -2.067  -4.708   0.000  0.00  0.00    -0.335 OA
ENDBRANCH   7  10
BRANCH   1  15
ATOM     15  C   UNL     1      -2.829  -1.750   0.000  0.00  0.00    +0.200 C 
BRANCH  15  16
ATOM     16  C   UNL     1      -3.542  -2.163   0.000  0.00  0.00    +0.249 A 
ATOM     17  N   UNL     1      -3.629  -2.983   0.000  0.00  0.00    -0.109 NA
ATOM     18  N   UNL     1      -4.438  -3.154   0.000  0.00  0.00    -0.107 NA
ATOM     19  C   UNL     1      -4.850  -2.438   0.000  0.00  0.00    +0.250 A 
ATOM     20  O   UNL     1      -4.296  -1.825   0.000  0.00  0.00    -0.418 OA
BRANCH  19  21
ATOM     21  C   UNL     1      -5.671  -2.354   0.000  0.00  0.00    +0.055 A 
ATOM     22  C   UNL     1      -6.000  -1.600   0.000  0.00  0.00    +0.005 A 
ATOM     23  C   UNL     1      -6.821  -1.512   0.000  0.00  0.00    +0.007 A 
ATOM     24  C   UNL     1      -7.308  -2.179   0.000  0.00  0.00    +0.035 A 
ATOM     25  C   UNL     1      -6.971  -2.933   0.000  0.00  0.00    +0.007 A 
ATOM     26 BR   UNL     1      -8.129  -2.096   0.000  0.00  0.00    -0.049 Br
ATOM     27  C   UNL     1      -6.150  -3.021   0.000  0.00  0.00    +0.005 A 
ENDBRANCH  19  21
ENDBRANCH  15  16
ENDBRANCH   1  15
TORSDOF 4
