REMARK  Name = 
REMARK  6 active torsions:
REMARK  status: ('A' for Active; 'I' for Inactive)
REMARK    1  A    between atoms: O_3  and  C_4
REMARK    2  A    between atoms: C_4  and  C_5
REMARK    3  A    between atoms: C_5  and  N_6
REMARK    4  A    between atoms: N_9  and  C_10
REMARK    5  A    between atoms: C_10  and  C_11
REMARK    6  A    between atoms: C_11  and  C_12
REMARK                            x       y       z     vdW  Elec       q    Type
REMARK                         _______ _______ _______ _____ _____    ______ ____
ROOT
ATOM      1 BR   UNL     1       0.000   0.000   0.000  0.00  0.00    +0.000 Br
ENDROOT
TORSDOF 0
REMARK  Name = 
REMARK  6 active torsions:
REMARK  status: ('A' for Active; 'I' for Inactive)
REMARK    1  A    between atoms: O_3  and  C_4
REMARK    2  A    between atoms: C_4  and  C_5
REMARK    3  A    between atoms: C_5  and  N_6
REMARK    4  A    between atoms: N_9  and  C_10
REMARK    5  A    between atoms: C_10  and  C_11
REMARK    6  A    between atoms: C_11  and  C_12
REMARK                            x       y       z     vdW  Elec       q    Type
REMARK                         _______ _______ _______ _____ _____    ______ ____
ROOT
ATOM      1  N   UNL     1       3.786   1.707   0.000  0.00  0.00    -0.087 NA
ATOM      2  C   UNL     1       3.786   0.882   0.000  0.00  0.00    +0.495 C 
ATOM      3  N   UNL     1       4.501   0.469   0.000  0.00  0.00    -0.089 NA
ATOM      4  N   UNL     1       3.072   0.469   0.000  0.00  0.00    +0.132 NA
ENDROOT
BRANCH   1   5
ATOM      5  C   UNL     1       3.072   2.119   0.000  0.00  0.00    +0.252 C 
BRANCH   5   6
ATOM      6  C   UNL     1       3.072   2.944   0.000  0.00  0.00    +0.189 C 
BRANCH   6   8
ATOM      7  C   UNL     1       2.357   4.182   0.000  0.00  0.00    +0.174 C 
ATOM      8  O   UNL     1       2.357   3.357   0.000  0.00  0.00    -0.347 OA
ENDBRANCH   6   8
ENDBRANCH   5   6
ENDBRANCH   1   5
BRANCH   3   9
ATOM      9  C   UNL     1       4.501  -0.356   0.000  0.00  0.00    +0.227 C 
BRANCH   9  10
ATOM     10  C   UNL     1       5.215  -0.768   0.000  0.00  0.00    +0.099 C 
BRANCH  10  11
ATOM     11  C   UNL     1       5.215  -1.593   0.000  0.00  0.00    +0.091 A 
ATOM     12  S   UNL     1       4.548  -2.078   0.000  0.00  0.00    -0.070 S 
ATOM     13  C   UNL     1       4.803  -2.863   0.000  0.00  0.00    +0.051 A 
ATOM     14  C   UNL     1       5.628  -2.863   0.000  0.00  0.00    +0.066 A 
ATOM     15  C   UNL     1       6.112  -3.530   0.000  0.00  0.00    +0.053 C 
ATOM     16  N   UNL     1       5.883  -2.078   0.000  0.00  0.00    -0.247 NA
ENDBRANCH  10  11
ENDBRANCH   9  10
ENDBRANCH   3   9
TORSDOF 6
