REMARK  Name = 
REMARK  4 active torsions:
REMARK  status: ('A' for Active; 'I' for Inactive)
REMARK    1  A    between atoms: C_2  and  C_4
REMARK    2  A    between atoms: C_4  and  N_5
REMARK    3  A    between atoms: C_4  and  C_9
REMARK    4  A    between atoms: C_15  and  N_18
REMARK                            x       y       z     vdW  Elec       q    Type
REMARK                         _______ _______ _______ _____ _____    ______ ____
ROOT
ATOM      1  C   UNL     1       4.287  -6.600   0.000  0.00  0.00    +0.267 C 
ATOM      2  N   UNL     1       5.001  -6.188   0.000  0.00  0.00    -0.159 NA
ATOM      3  C   UNL     1       5.716  -6.600   0.000  0.00  0.00    +0.155 A 
ATOM      4  N   UNL     1       5.716  -7.425   0.000  0.00  0.00    -0.226 NA
ATOM      5  C   UNL     1       6.430  -7.838   0.000  0.00  0.00    +0.115 A 
ATOM      6  C   UNL     1       7.145  -7.425   0.000  0.00  0.00    +0.068 A 
ATOM      7  C   UNL     1       7.145  -6.600   0.000  0.00  0.00    +0.019 A 
ATOM      8  C   UNL     1       6.430  -6.188   0.000  0.00  0.00    +0.037 A 
ATOM      9  O   UNL     1       4.287  -7.425   0.000  0.00  0.00    -0.271 OA
ENDROOT
BRANCH   6  10
ATOM     10  N   UNL     1       7.859  -7.838   0.000  0.00  0.00    -0.302 N 
ATOM     11  C   UNL     1       7.859  -8.662   0.000  0.00  0.00    +0.123 C 
ATOM     12  C   UNL     1       8.574  -9.075   0.000  0.00  0.00    +0.164 C 
ATOM     13  O   UNL     1       9.288  -8.662   0.000  0.00  0.00    -0.350 OA
ATOM     14  C   UNL     1       9.288  -7.838   0.000  0.00  0.00    +0.164 C 
ATOM     15  C   UNL     1       8.574  -7.425   0.000  0.00  0.00    +0.123 C 
ENDBRANCH   6  10
BRANCH   1  16
ATOM     16  C   UNL     1       3.572  -6.188   0.000  0.00  0.00    +0.173 C 
BRANCH  16  17
ATOM     17  N   UNL     1       2.858  -6.600   0.000  0.00  0.00    -0.198 NA
ATOM     18  C   UNL     1       2.143  -6.188   0.000  0.00  0.00    +0.242 C 
ATOM     19  C   UNL     1       2.143  -5.362   0.000  0.00  0.00    +0.096 C 
ATOM     20  O   UNL     1       1.429  -6.600   0.000  0.00  0.00    -0.273 OA
ENDBRANCH  16  17
BRANCH  16  22
ATOM     21  C   UNL     1       4.287  -4.950   0.000  0.00  0.00    +0.002 C 
ATOM     22  C   UNL     1       3.572  -5.362   0.000  0.00  0.00    +0.029 C 
ATOM     23  C   UNL     1       2.858  -4.950   0.000  0.00  0.00    +0.002 C 
ENDBRANCH  16  22
ENDBRANCH   1  16
TORSDOF 4
