REMARK  Name = 
REMARK  4 active torsions:
REMARK  status: ('A' for Active; 'I' for Inactive)
REMARK    1  A    between atoms: C_2  and  N_3
REMARK    2  A    between atoms: C_5  and  N_6
REMARK    3  A    between atoms: N_9  and  C_10
REMARK    4  A    between atoms: N_13  and  C_16
REMARK                            x       y       z     vdW  Elec       q    Type
REMARK                         _______ _______ _______ _____ _____    ______ ____
ROOT
ATOM      1  N   UNL     1       0.000   7.553   0.000  0.00  0.00    -0.158 NA
ATOM      2  C   UNL     1       0.000   6.728   0.000  0.00  0.00    +0.344 C 
ATOM      3  N   UNL     1       0.715   6.315   0.000  0.00  0.00    -0.189 NA
ATOM      4  O   UNL     1      -0.715   6.315   0.000  0.00  0.00    -0.249 OA
ENDROOT
BRANCH   3   5
ATOM      5  C   UNL     1       0.715   5.490   0.000  0.00  0.00    +0.100 C 
ATOM      6  C   UNL     1       0.000   5.078   0.000  0.00  0.00    +0.039 C 
ATOM      7  C   UNL     1       0.000   4.253   0.000  0.00  0.00    +0.074 C 
ATOM      8  N   UNL     1       0.715   3.840   0.000  0.00  0.00    -0.274 NA
ATOM      9  C   UNL     1       1.429   4.253   0.000  0.00  0.00    +0.074 C 
ATOM     10  C   UNL     1       1.429   5.078   0.000  0.00  0.00    +0.039 C 
BRANCH   8  11
ATOM     11  C   UNL     1       0.715   3.015   0.000  0.00  0.00    +0.058 C 
ATOM     12  C   UNL     1       0.302   2.301   0.000  0.00  0.00    +0.017 C 
ATOM     13  C   UNL     1       1.127   2.301   0.000  0.00  0.00    +0.017 C 
ENDBRANCH   8  11
ENDBRANCH   3   5
BRANCH   1  17
ATOM     14  N   UNL     1      -1.608   8.957   0.000  0.00  0.00    -0.248 N 
ATOM     15  N   UNL     1      -2.020   8.243   0.000  0.00  0.00    -0.166 NA
ATOM     16  C   UNL     1      -1.468   7.630   0.000  0.00  0.00    +0.138 A 
ATOM     17  C   UNL     1      -0.715   7.965   0.000  0.00  0.00    +0.114 A 
ATOM     18  C   UNL     1      -0.801   8.786   0.000  0.00  0.00    +0.113 A 
BRANCH  14  20
ATOM     19  C   UNL     1      -2.764   9.797   0.000  0.00  0.00    +0.028 C 
ATOM     20  C   UNL     1      -1.943   9.711   0.000  0.00  0.00    +0.128 C 
ENDBRANCH  14  20
ENDBRANCH   1  17
TORSDOF 4
