REMARK  Name = 
REMARK  4 active torsions:
REMARK  status: ('A' for Active; 'I' for Inactive)
REMARK    1  A    between atoms: C_2  and  C_4
REMARK    2  A    between atoms: C_10  and  N_11
REMARK    3  A    between atoms: C_12  and  C_14
REMARK    4  A    between atoms: C_14  and  N_15
REMARK                            x       y       z     vdW  Elec       q    Type
REMARK                         _______ _______ _______ _____ _____    ______ ____
ROOT
ATOM      1  N   UNL     1       4.287  -2.475   0.000  0.00  0.00    -0.206 NA
ATOM      2  C   UNL     1       5.001  -2.888   0.000  0.00  0.00    +0.265 C 
ATOM      3  O   UNL     1       5.001  -3.712   0.000  0.00  0.00    -0.271 OA
ENDROOT
BRANCH   1   5
ATOM      4  C   UNL     1       2.858  -2.475   0.000  0.00  0.00    +0.020 C 
ATOM      5  C   UNL     1       3.572  -2.888   0.000  0.00  0.00    +0.095 C 
ATOM      6  C   UNL     1       3.572  -3.712   0.000  0.00  0.00    +0.022 C 
ATOM      7  C   UNL     1       2.858  -4.125   0.000  0.00  0.00    +0.002 C 
ATOM      8  C   UNL     1       2.858  -4.950   0.000  0.00  0.00    +0.000 C 
ATOM      9  C   UNL     1       2.143  -3.712   0.000  0.00  0.00    +0.000 C 
ATOM     10  C   UNL     1       2.143  -2.888   0.000  0.00  0.00    +0.002 C 
BRANCH   4  12
ATOM     11  C   UNL     1       3.572  -1.238   0.000  0.00  0.00    +0.000 C 
ATOM     12  C   UNL     1       2.858  -1.650   0.000  0.00  0.00    +0.002 C 
ATOM     13  C   UNL     1       2.143  -1.238   0.000  0.00  0.00    +0.000 C 
ENDBRANCH   4  12
ENDBRANCH   1   5
BRANCH   2  14
ATOM     14  C   UNL     1       5.716  -2.475   0.000  0.00  0.00    +0.197 C 
BRANCH  14  15
ATOM     15  N   UNL     1       6.430  -2.888   0.000  0.00  0.00    -0.269 N 
ATOM     16  C   UNL     1       6.430  -3.712   0.000  0.00  0.00    +0.353 A 
ATOM     17  O   UNL     1       5.716  -4.125   0.000  0.00  0.00    -0.244 OA
ATOM     18  N   UNL     1       7.145  -4.125   0.000  0.00  0.00    -0.153 NA
ATOM     19  C   UNL     1       7.859  -3.712   0.000  0.00  0.00    +0.285 A 
ATOM     20  O   UNL     1       8.574  -4.125   0.000  0.00  0.00    -0.265 OA
ATOM     21  C   UNL     1       7.859  -2.888   0.000  0.00  0.00    +0.081 A 
ATOM     22  C   UNL     1       7.145  -2.475   0.000  0.00  0.00    +0.085 A 
ENDBRANCH  14  15
ENDBRANCH   2  14
TORSDOF 4
