REMARK  Name = 
REMARK  3 active torsions:
REMARK  status: ('A' for Active; 'I' for Inactive)
REMARK    1  A    between atoms: C_2  and  S_3
REMARK    2  A    between atoms: S_3  and  C_4
REMARK    3  A    between atoms: C_8  and  N_9
REMARK                            x       y       z     vdW  Elec       q    Type
REMARK                         _______ _______ _______ _____ _____    ______ ____
ROOT
ATOM      1  N   UNL     1      -1.731  -3.100   0.000  0.00  0.00    -0.188 NA
ATOM      2  C   UNL     1      -2.344  -3.652   0.000  0.00  0.00    +0.345 C 
ATOM      3  N   UNL     1      -3.129  -3.397   0.000  0.00  0.00    -0.140 NA
ATOM      4  C   UNL     1      -3.742  -3.949   0.000  0.00  0.00    +0.177 A 
ATOM      5  N   UNL     1      -4.549  -3.778   0.000  0.00  0.00    -0.152 NA
ATOM      6  N   UNL     1      -4.962  -4.492   0.000  0.00  0.00    -0.246 N 
ATOM      7  C   UNL     1      -5.782  -4.578   0.000  0.00  0.00    +0.154 C 
ATOM      8  C   UNL     1      -4.410  -5.105   0.000  0.00  0.00    +0.098 A 
ATOM      9  C   UNL     1      -3.656  -4.770   0.000  0.00  0.00    +0.058 A 
ATOM     10  O   UNL     1      -2.173  -4.459   0.000  0.00  0.00    -0.249 OA
ENDROOT
BRANCH   1  12
ATOM     11  C   UNL     1      -0.279  -2.870   0.000  0.00  0.00    +0.068 C 
ATOM     12  C   UNL     1      -0.947  -3.355   0.000  0.00  0.00    +0.107 C 
ATOM     13  C   UNL     1      -0.692  -4.140   0.000  0.00  0.00    +0.023 C 
ATOM     14  C   UNL     1       0.133  -4.140   0.000  0.00  0.00    +0.003 C 
ATOM     15  C   UNL     1       0.388  -3.355   0.000  0.00  0.00    +0.013 C 
BRANCH  11  16
ATOM     16  S   UNL     1      -0.279  -2.045   0.000  0.00  0.00    -0.139 S 
BRANCH  16  18
ATOM     17  C   UNL     1       0.435  -0.808   0.000  0.00  0.00    +0.013 C 
ATOM     18  C   UNL     1       0.435  -1.633   0.000  0.00  0.00    +0.058 C 
ENDBRANCH  16  18
ENDBRANCH  11  16
ENDBRANCH   1  12
TORSDOF 3
