REMARK  Name = 
REMARK  5 active torsions:
REMARK  status: ('A' for Active; 'I' for Inactive)
REMARK    1  A    between atoms: C_5  and  C_6
REMARK    2  A    between atoms: C_6  and  C_7
REMARK    3  A    between atoms: N_9  and  C_10
REMARK    4  A    between atoms: C_10  and  C_12
REMARK    5  A    between atoms: C_10  and  C_14
REMARK                            x       y       z     vdW  Elec       q    Type
REMARK                         _______ _______ _______ _____ _____    ______ ____
ROOT
ATOM      1  C   UNL     1       2.143  -6.188   0.000  0.00  0.00    +0.246 C 
ATOM      2  N   UNL     1       2.143  -7.013   0.000  0.00  0.00    -0.206 NA
ATOM      3  O   UNL     1       1.429  -5.775   0.000  0.00  0.00    -0.273 OA
ENDROOT
BRANCH   2   4
ATOM      4  C   UNL     1       1.429  -7.425   0.000  0.00  0.00    +0.109 C 
ATOM      5  C   UNL     1       1.016  -6.710   0.000  0.00  0.00    +0.024 C 
BRANCH   4   6
ATOM      6  C   UNL     1       0.715  -7.838   0.000  0.00  0.00    +0.021 C 
ATOM      7  C   UNL     1       0.000  -7.425   0.000  0.00  0.00    +0.002 C 
ATOM      8  C   UNL     1      -0.715  -7.838   0.000  0.00  0.00    +0.000 C 
ATOM      9  C   UNL     1      -0.715  -8.662   0.000  0.00  0.00    +0.000 C 
ATOM     10  C   UNL     1       0.000  -9.075   0.000  0.00  0.00    +0.000 C 
ATOM     11  C   UNL     1       0.715  -8.662   0.000  0.00  0.00    +0.002 C 
ENDBRANCH   4   6
BRANCH   4  12
ATOM     12  C   UNL     1       1.841  -8.139   0.000  0.00  0.00    +0.202 C 
ATOM     13  O   UNL     1       1.429  -8.854   0.000  0.00  0.00    -0.219 OA
ENDBRANCH   4  12
ENDBRANCH   2   4
BRANCH   1  14
ATOM     14  C   UNL     1       2.858  -5.775   0.000  0.00  0.00    +0.115 C 
BRANCH  14  19
ATOM     15  C   UNL     1       2.858  -2.475   0.000  0.00  0.00    +0.052 C 
ATOM     16  C   UNL     1       2.858  -3.300   0.000  0.00  0.00    +0.059 A 
ATOM     17  N   UNL     1       2.143  -3.712   0.000  0.00  0.00    -0.248 NA
ATOM     18  C   UNL     1       2.143  -4.537   0.000  0.00  0.00    +0.095 A 
ATOM     19  C   UNL     1       2.858  -4.950   0.000  0.00  0.00    +0.006 A 
ATOM     20  C   UNL     1       3.572  -4.537   0.000  0.00  0.00    -0.001 A 
ATOM     21  C   UNL     1       3.572  -3.712   0.000  0.00  0.00    +0.014 A 
ENDBRANCH  14  19
ENDBRANCH   1  14
TORSDOF 5
