REMARK  Name = 
REMARK  3 active torsions:
REMARK  status: ('A' for Active; 'I' for Inactive)
REMARK    1  A    between atoms: O_2  and  C_3
REMARK    2  A    between atoms: C_8  and  N_9
REMARK    3  A    between atoms: C_10  and  C_12
REMARK                            x       y       z     vdW  Elec       q    Type
REMARK                         _______ _______ _______ _____ _____    ______ ____
ROOT
ATOM      1  C   UNL     1       2.751   2.413   0.000  0.00  0.00    +0.241 A 
ATOM      2  C   UNL     1       3.466   2.001   0.000  0.00  0.00    +0.126 A 
ATOM      3  C   UNL     1       4.180   2.413   0.000  0.00  0.00    +0.023 A 
ATOM      4  C   UNL     1       4.180   3.238   0.000  0.00  0.00    +0.022 A 
ATOM      5  C   UNL     1       3.466   3.651   0.000  0.00  0.00    +0.102 A 
ATOM      6  N   UNL     1       2.751   3.238   0.000  0.00  0.00    -0.209 NA
ENDROOT
BRANCH   2   7
ATOM      7  N   UNL     1       3.466   1.176   0.000  0.00  0.00    -0.172 NA
ATOM      8  C   UNL     1       4.180   0.763   0.000  0.00  0.00    +0.273 C 
ATOM      9  O   UNL     1       4.895   1.176   0.000  0.00  0.00    -0.270 OA
BRANCH   8  10
ATOM     10  C   UNL     1       4.180  -0.062   0.000  0.00  0.00    +0.193 C 
ATOM     11  O   UNL     1       3.513  -0.546   0.000  0.00  0.00    -0.347 OA
ATOM     12  C   UNL     1       3.768  -1.331   0.000  0.00  0.00    +0.143 C 
ATOM     13  C   UNL     1       4.593  -1.331   0.000  0.00  0.00    +0.035 C 
ATOM     14  C   UNL     1       4.848  -0.546   0.000  0.00  0.00    +0.042 C 
ENDBRANCH   8  10
ENDBRANCH   2   7
BRANCH   1  16
ATOM     15  C   UNL     1       1.322   2.413   0.000  0.00  0.00    +0.254 C 
ATOM     16  O   UNL     1       2.037   2.001   0.000  0.00  0.00    -0.455 OA
ENDBRANCH   1  16
TORSDOF 3
