REMARK  Name = 
REMARK  5 active torsions:
REMARK  status: ('A' for Active; 'I' for Inactive)
REMARK    1  A    between atoms: O_2  and  C_3
REMARK    2  A    between atoms: C_7  and  C_9
REMARK    3  A    between atoms: C_9  and  C_11
REMARK    4  A    between atoms: C_11  and  N_12
REMARK    5  A    between atoms: C_14  and  C_19
REMARK                            x       y       z     vdW  Elec       q    Type
REMARK                         _______ _______ _______ _____ _____    ______ ____
ROOT
ATOM      1  N   UNL     1      -0.608   4.353   0.000  0.00  0.00    -0.214 N 
ATOM      2  C   UNL     1      -1.322   4.765   0.000  0.00  0.00    +0.277 A 
ATOM      3  O   UNL     1      -1.322   5.590   0.000  0.00  0.00    -0.266 OA
ATOM      4  C   UNL     1      -2.037   4.353   0.000  0.00  0.00    +0.064 A 
ATOM      5  C   UNL     1      -2.037   3.528   0.000  0.00  0.00    +0.026 A 
ATOM      6  C   UNL     1      -1.322   3.115   0.000  0.00  0.00    +0.107 A 
ATOM      7  N   UNL     1      -0.608   3.528   0.000  0.00  0.00    -0.166 NA
ENDROOT
BRANCH   6   8
ATOM      8  C   UNL     1      -1.322   2.290   0.000  0.00  0.00    +0.048 A 
ATOM      9  S   UNL     1      -1.990   1.805   0.000  0.00  0.00    -0.090 S 
ATOM     10  C   UNL     1      -1.735   1.021   0.000  0.00  0.00    +0.008 A 
ATOM     11  C   UNL     1      -2.220   0.353   0.000  0.00  0.00    +0.038 C 
ATOM     12  C   UNL     1      -0.910   1.021   0.000  0.00  0.00    +0.003 A 
ATOM     13  C   UNL     1      -0.655   1.805   0.000  0.00  0.00    +0.008 A 
ENDBRANCH   6   8
BRANCH   1  14
ATOM     14  C   UNL     1       0.107   4.765   0.000  0.00  0.00    +0.168 C 
BRANCH  14  15
ATOM     15  C   UNL     1       0.107   5.590   0.000  0.00  0.00    +0.199 C 
ATOM     16  O   UNL     1      -0.608   6.003   0.000  0.00  0.00    -0.216 OA
BRANCH  15  19
ATOM     17  C   UNL     1       1.536   7.240   0.000  0.00  0.00    +0.138 A 
ATOM     18  C   UNL     1       0.821   6.828   0.000  0.00  0.00    +0.035 A 
ATOM     19  C   UNL     1       0.821   6.003   0.000  0.00  0.00    +0.013 A 
ATOM     20  C   UNL     1       1.536   5.590   0.000  0.00  0.00    -0.002 A 
ATOM     21  C   UNL     1       2.250   6.003   0.000  0.00  0.00    +0.003 A 
ATOM     22  C   UNL     1       2.250   6.828   0.000  0.00  0.00    +0.037 A 
BRANCH  17  24
ATOM     23  C   UNL     1       2.250   8.478   0.000  0.00  0.00    +0.252 C 
ATOM     24  O   UNL     1       1.536   8.065   0.000  0.00  0.00    -0.471 OA
ENDBRANCH  17  24
ENDBRANCH  15  19
ENDBRANCH  14  15
ENDBRANCH   1  14
TORSDOF 5
