REMARK  Name = 
REMARK  4 active torsions:
REMARK  status: ('A' for Active; 'I' for Inactive)
REMARK    1  A    between atoms: C_2  and  C_3
REMARK    2  A    between atoms: N_12  and  C_13
REMARK    3  A    between atoms: C_13  and  C_14
REMARK    4  A    between atoms: C_14  and  C_15
REMARK                            x       y       z     vdW  Elec       q    Type
REMARK                         _______ _______ _______ _____ _____    ______ ____
ROOT
ATOM      1  C   UNL     1      -3.572  -0.412   0.000  0.00  0.00    +0.135 C 
ATOM      2  O   UNL     1      -3.572  -1.238   0.000  0.00  0.00    -0.355 OA
ATOM      3  C   UNL     1      -2.858  -1.650   0.000  0.00  0.00    +0.135 C 
ATOM      4  C   UNL     1      -2.858  -2.475   0.000  0.00  0.00    +0.034 C 
ATOM      5  C   UNL     1      -2.143  -1.238   0.000  0.00  0.00    +0.124 C 
ATOM      6  N   UNL     1      -2.143  -0.412   0.000  0.00  0.00    -0.258 N 
ATOM      7  C   UNL     1      -1.429   0.000   0.000  0.00  0.00    +0.323 C 
ATOM      8  N   UNL     1      -1.429   0.825   0.000  0.00  0.00    -0.188 NA
ATOM      9  O   UNL     1      -0.715  -0.412   0.000  0.00  0.00    -0.251 OA
ATOM     10  C   UNL     1      -2.858   0.000   0.000  0.00  0.00    +0.124 C 
ENDROOT
BRANCH   1  12
ATOM     11  C   UNL     1      -5.001  -0.412   0.000  0.00  0.00    +0.003 C 
ATOM     12  C   UNL     1      -4.287   0.000   0.000  0.00  0.00    +0.031 C 
ENDBRANCH   1  12
BRANCH   8  13
ATOM     13  C   UNL     1      -0.715   1.238   0.000  0.00  0.00    +0.122 C 
BRANCH  13  14
ATOM     14  C   UNL     1       0.000   0.825   0.000  0.00  0.00    +0.054 C 
BRANCH  14  15
ATOM     15  C   UNL     1       0.715   1.238   0.000  0.00  0.00    +0.029 A 
ATOM     16  C   UNL     1       0.801   2.058   0.000  0.00  0.00    +0.150 A 
ATOM     17  C   UNL     1       0.188   2.610   0.000  0.00  0.00    +0.075 C 
ATOM     18  O   UNL     1       1.608   2.229   0.000  0.00  0.00    -0.358 OA
ATOM     19  N   UNL     1       2.020   1.515   0.000  0.00  0.00    -0.082 NA
ATOM     20  C   UNL     1       1.468   0.902   0.000  0.00  0.00    +0.097 A 
ATOM     21  C   UNL     1       1.640   0.095   0.000  0.00  0.00    +0.055 C 
ENDBRANCH  14  15
ENDBRANCH  13  14
ENDBRANCH   8  13
TORSDOF 4
