REMARK  Name = 
REMARK  3 active torsions:
REMARK  status: ('A' for Active; 'I' for Inactive)
REMARK    1  A    between atoms: C_7  and  N_10
REMARK    2  A    between atoms: N_13  and  C_14
REMARK    3  A    between atoms: C_19  and  N_20
REMARK                            x       y       z     vdW  Elec       q    Type
REMARK                         _______ _______ _______ _____ _____    ______ ____
ROOT
ATOM      1  N   UNL     1      -0.107   0.763   0.000  0.00  0.00    -0.189 NA
ATOM      2  C   UNL     1       0.608   1.176   0.000  0.00  0.00    +0.344 C 
ATOM      3  N   UNL     1       1.322   0.763   0.000  0.00  0.00    -0.158 NA
ATOM      4  O   UNL     1       0.608   2.001   0.000  0.00  0.00    -0.249 OA
ENDROOT
BRANCH   1  10
ATOM      5  C   UNL     1      -3.679   2.001   0.000  0.00  0.00    +0.095 C 
ATOM      6  C   UNL     1      -2.965   2.413   0.000  0.00  0.00    +0.226 C 
ATOM      7  N   UNL     1      -2.250   2.001   0.000  0.00  0.00    -0.279 N 
ATOM      8  C   UNL     1      -2.250   1.176   0.000  0.00  0.00    +0.095 C 
ATOM      9  C   UNL     1      -1.536   0.763   0.000  0.00  0.00    +0.043 C 
ATOM     10  C   UNL     1      -0.821   1.176   0.000  0.00  0.00    +0.100 C 
ATOM     11  C   UNL     1      -0.821   2.001   0.000  0.00  0.00    +0.043 C 
ATOM     12  C   UNL     1      -1.536   2.413   0.000  0.00  0.00    +0.095 C 
ATOM     13  O   UNL     1      -2.965   3.238   0.000  0.00  0.00    -0.275 OA
ENDBRANCH   1  10
BRANCH   3  14
ATOM     14  C   UNL     1       2.037   1.176   0.000  0.00  0.00    +0.106 A 
ATOM     15  C   UNL     1       2.751   0.763   0.000  0.00  0.00    +0.147 A 
ATOM     16  N   UNL     1       3.466   1.176   0.000  0.00  0.00    -0.228 NA
ATOM     17  C   UNL     1       3.466   2.001   0.000  0.00  0.00    +0.100 A 
ATOM     18  C   UNL     1       2.751   2.413   0.000  0.00  0.00    +0.022 A 
ATOM     19  C   UNL     1       2.037   2.001   0.000  0.00  0.00    +0.021 A 
BRANCH  15  20
ATOM     20  N   UNL     1       2.751  -0.062   0.000  0.00  0.00    -0.292 N 
ATOM     21  C   UNL     1       2.084  -0.546   0.000  0.00  0.00    +0.092 C 
ATOM     22  C   UNL     1       2.339  -1.331   0.000  0.00  0.00    +0.023 C 
ATOM     23  C   UNL     1       3.164  -1.331   0.000  0.00  0.00    +0.023 C 
ATOM     24  C   UNL     1       3.419  -0.546   0.000  0.00  0.00    +0.092 C 
ENDBRANCH  15  20
ENDBRANCH   3  14
TORSDOF 3
