REMARK  Name = 
REMARK  8 active torsions:
REMARK  status: ('A' for Active; 'I' for Inactive)
REMARK    1  A    between atoms: N_2  and  C_10
REMARK    2  A    between atoms: C_5  and  N_6
REMARK    3  A    between atoms: C_10  and  C_11
REMARK    4  A    between atoms: C_11  and  C_15
REMARK    5  A    between atoms: C_11  and  C_18
REMARK    6  A    between atoms: C_17  and  O_21
REMARK    7  A    between atoms: O_21  and  C_28
REMARK    8  A    between atoms: C_27  and  C_28
REMARK                            x       y       z     vdW  Elec       q    Type
REMARK                         _______ _______ _______ _____ _____    ______ ____
ROOT
ATOM      1  C   UNL     1       2.562   0.825   0.000  0.00  0.00    +0.149 A 
ATOM      2  C   UNL     1       3.275   1.238   0.000  0.00  0.00    +0.154 A 
ATOM      3  N   UNL     1       3.992   0.825   0.000  0.00  0.00    -0.207 NA
ATOM      4  C   UNL     1       3.992   0.000   0.000  0.00  0.00    +0.201 A 
ATOM      5  N   UNL     1       3.275  -0.412   0.000  0.00  0.00    -0.205 NA
ATOM      6  N   UNL     1       1.779   1.083   0.000  0.00  0.00    -0.219 NA
ATOM      7  C   UNL     1       1.292   0.412   0.000  0.00  0.00    +0.180 A 
ATOM      8  N   UNL     1       1.779  -0.254   0.000  0.00  0.00    -0.294 N 
ATOM      9  C   UNL     1       2.562   0.000   0.000  0.00  0.00    +0.167 A 
ENDROOT
BRANCH   2  10
ATOM     10  N   UNL     1       3.275   2.062   0.000  0.00  0.00    -0.289 N 
ATOM     11  C   UNL     1       3.992   2.475   0.000  0.00  0.00    +0.092 C 
ATOM     12  C   UNL     1       3.992   3.300   0.000  0.00  0.00    +0.024 C 
ATOM     13  C   UNL     1       3.275   3.712   0.000  0.00  0.00    +0.033 C 
ATOM     14  C   UNL     1       2.562   3.300   0.000  0.00  0.00    +0.135 C 
ATOM     15  C   UNL     1       2.562   2.475   0.000  0.00  0.00    +0.122 C 
BRANCH  14  16
ATOM     16  O   UNL     1       1.850   3.712   0.000  0.00  0.00    -0.352 OA
BRANCH  16  17
ATOM     17  C   UNL     1       1.850   4.533   0.000  0.00  0.00    +0.178 C 
BRANCH  17  18
ATOM     18  C   UNL     1       1.133   4.950   0.000  0.00  0.00    +0.214 C 
ATOM     19  O   UNL     1       1.133   5.775   0.000  0.00  0.00    -0.218 OA
ENDBRANCH  17  18
ENDBRANCH  16  17
ENDBRANCH  14  16
ENDBRANCH   2  10
BRANCH   8  20
ATOM     20  C   UNL     1       1.521  -1.038   0.000  0.00  0.00    +0.112 C 
BRANCH  20  21
ATOM     21  C   UNL     1       2.075  -1.650   0.000  0.00  0.00    +0.058 C 
BRANCH  21  22
ATOM     22  C   UNL     1       1.821  -2.433   0.000  0.00  0.00    +0.037 C 
ATOM     23  C   UNL     1       2.304  -3.104   0.000  0.00  0.00    +0.035 C 
ATOM     24  C   UNL     1       1.821  -3.771   0.000  0.00  0.00    +0.142 C 
ATOM     25  O   UNL     1       1.033  -3.517   0.000  0.00  0.00    -0.354 OA
ATOM     26  C   UNL     1       1.033  -2.692   0.000  0.00  0.00    +0.142 C 
ENDBRANCH  21  22
BRANCH  21  27
ATOM     27  C   UNL     1       2.883  -1.479   0.000  0.00  0.00    +0.184 C 
ATOM     28  O   UNL     1       3.433  -2.092   0.000  0.00  0.00    -0.220 OA
ENDBRANCH  21  27
ENDBRANCH  20  21
ENDBRANCH   8  20
TORSDOF 8
