REMARK  Name = 
REMARK  7 active torsions:
REMARK  status: ('A' for Active; 'I' for Inactive)
REMARK    1  A    between atoms: O_2  and  C_3
REMARK    2  A    between atoms: C_3  and  C_4
REMARK    3  A    between atoms: C_4  and  O_5
REMARK    4  A    between atoms: O_5  and  C_6
REMARK    5  A    between atoms: C_11  and  C_12
REMARK    6  A    between atoms: C_17  and  C_18
REMARK    7  A    between atoms: C_18  and  C_19
REMARK                            x       y       z     vdW  Elec       q    Type
REMARK                         _______ _______ _______ _____ _____    ______ ____
ROOT
ATOM      1  C   UNL     1       5.716   0.000   0.000  0.00  0.00    +0.254 C 
ATOM      2  N   UNL     1       5.001  -0.412   0.000  0.00  0.00    -0.276 N 
ATOM      3  C   UNL     1       4.287   0.000   0.000  0.00  0.00    +0.094 C 
ATOM      4  C   UNL     1       3.572  -0.412   0.000  0.00  0.00    +0.022 C 
ATOM      5  C   UNL     1       3.572  -1.238   0.000  0.00  0.00    +0.013 C 
ATOM      6  C   UNL     1       4.287  -1.650   0.000  0.00  0.00    +0.022 C 
ATOM      7  C   UNL     1       5.001  -1.238   0.000  0.00  0.00    +0.094 C 
ATOM      8  O   UNL     1       6.430  -0.412   0.000  0.00  0.00    -0.270 OA
ENDROOT
BRANCH   1  10
ATOM      9  C   UNL     1       5.001   1.238   0.000  0.00  0.00    +0.229 A 
ATOM     10  C   UNL     1       5.716   0.825   0.000  0.00  0.00    +0.107 A 
ATOM     11  C   UNL     1       6.430   1.238   0.000  0.00  0.00    +0.011 A 
ATOM     12  C   UNL     1       6.430   2.062   0.000  0.00  0.00    +0.021 A 
ATOM     13  C   UNL     1       5.716   2.475   0.000  0.00  0.00    +0.102 A 
ATOM     14  N   UNL     1       5.001   2.062   0.000  0.00  0.00    -0.210 NA
BRANCH   9  15
ATOM     15  O   UNL     1       4.287   0.825   0.000  0.00  0.00    -0.457 OA
BRANCH  15  16
ATOM     16  C   UNL     1       3.572   1.238   0.000  0.00  0.00    +0.239 C 
BRANCH  16  17
ATOM     17  C   UNL     1       2.858   0.825   0.000  0.00  0.00    +0.189 C 
BRANCH  17  19
ATOM     18  C   UNL     1       1.429   0.825   0.000  0.00  0.00    +0.174 C 
ATOM     19  O   UNL     1       2.143   1.238   0.000  0.00  0.00    -0.347 OA
ENDBRANCH  17  19
ENDBRANCH  16  17
ENDBRANCH  15  16
ENDBRANCH   9  15
ENDBRANCH   1  10
BRANCH   5  20
ATOM     20  C   UNL     1       2.858  -1.650   0.000  0.00  0.00    +0.089 C 
BRANCH  20  21
ATOM     21  C   UNL     1       2.858  -2.475   0.000  0.00  0.00    +0.261 C 
ATOM     22  N   UNL     1       2.143  -2.888   0.000  0.00  0.00    -0.088 NA
ATOM     23  O   UNL     1       3.572  -2.888   0.000  0.00  0.00    -0.272 OA
ENDBRANCH  20  21
ENDBRANCH   5  20
TORSDOF 7
