REMARK  Name = 
REMARK  5 active torsions:
REMARK  status: ('A' for Active; 'I' for Inactive)
REMARK    1  A    between atoms: C_2  and  C_3
REMARK    2  A    between atoms: C_6  and  C_7
REMARK    3  A    between atoms: C_7  and  C_8
REMARK    4  A    between atoms: C_8  and  N_9
REMARK    5  A    between atoms: N_9  and  C_10
REMARK                            x       y       z     vdW  Elec       q    Type
REMARK                         _______ _______ _______ _____ _____    ______ ____
ROOT
ATOM      1  C   UNL     1       1.854  -4.474   0.000  0.00  0.00    +0.071 C 
ENDROOT
BRANCH   1   4
ATOM      2  C   UNL     1       2.751  -2.537   0.000  0.00  0.00    +0.027 A 
ATOM      3  S   UNL     1       2.084  -3.022   0.000  0.00  0.00    -0.075 S 
ATOM      4  C   UNL     1       2.339  -3.806   0.000  0.00  0.00    +0.089 A 
ATOM      5  N   UNL     1       3.164  -3.806   0.000  0.00  0.00    -0.241 NA
ATOM      6  C   UNL     1       3.419  -3.022   0.000  0.00  0.00    +0.101 A 
BRANCH   2   8
ATOM      7  C   UNL     1       3.466  -1.299   0.000  0.00  0.00    +0.006 C 
ATOM      8  C   UNL     1       2.751  -1.712   0.000  0.00  0.00    +0.035 C 
ENDBRANCH   2   8
ENDBRANCH   1   4
BRANCH   1   9
ATOM      9  C   UNL     1       1.033  -4.387   0.000  0.00  0.00    +0.096 C 
BRANCH   9  10
ATOM     10  N   UNL     1       0.548  -5.055   0.000  0.00  0.00    -0.218 NA
BRANCH  10  11
ATOM     11  C   UNL     1      -0.272  -4.969   0.000  0.00  0.00    +0.084 C 
ATOM     12  C   UNL     1      -0.608  -4.215   0.000  0.00  0.00    +0.075 C 
ATOM     13  S   UNL     1      -1.428  -4.129   0.000  0.00  0.00    -0.139 S 
ATOM     14  C   UNL     1      -1.913  -4.796   0.000  0.00  0.00    +0.058 C 
ATOM     15  C   UNL     1      -1.577  -5.550   0.000  0.00  0.00    +0.013 C 
ATOM     16  C   UNL     1      -0.757  -5.636   0.000  0.00  0.00    +0.019 C 
ENDBRANCH  10  11
ENDBRANCH   9  10
ENDBRANCH   1   9
TORSDOF 5
