REMARK  Name = 
REMARK  7 active torsions:
REMARK  status: ('A' for Active; 'I' for Inactive)
REMARK    1  A    between atoms: C_4  and  C_5
REMARK    2  A    between atoms: C_5  and  C_6
REMARK    3  A    between atoms: N_8  and  C_9
REMARK    4  A    between atoms: C_9  and  C_10
REMARK    5  A    between atoms: C_10  and  C_11
REMARK    6  A    between atoms: C_11  and  C_12
REMARK    7  A    between atoms: C_12  and  C_13
REMARK                            x       y       z     vdW  Elec       q    Type
REMARK                         _______ _______ _______ _____ _____    ______ ____
ROOT
ATOM      1  C   UNL     1      -0.581   2.130   0.000  0.00  0.00    +0.247 C 
ATOM      2  N   UNL     1       0.133   2.543   0.000  0.00  0.00    -0.205 NA
ATOM      3  O   UNL     1      -0.581   1.305   0.000  0.00  0.00    -0.273 OA
ENDROOT
BRANCH   2   4
ATOM      4  C   UNL     1       0.848   2.130   0.000  0.00  0.00    +0.115 C 
BRANCH   4   5
ATOM      5  C   UNL     1       1.562   2.543   0.000  0.00  0.00    +0.024 C 
BRANCH   5   6
ATOM      6  C   UNL     1       2.277   2.130   0.000  0.00  0.00    +0.014 C 
BRANCH   6   7
ATOM      7  C   UNL     1       2.991   2.543   0.000  0.00  0.00    +0.114 C 
BRANCH   7   8
ATOM      8  C   UNL     1       3.706   2.130   0.000  0.00  0.00    +0.365 C 
ATOM      9  O   UNL     1       3.706   1.305   0.000  0.00  0.00    -0.246 OA
ATOM     10  O   UNL     1       4.420   2.543   0.000  0.00  0.00    -0.246 OA
ENDBRANCH   7   8
ENDBRANCH   6   7
ENDBRANCH   5   6
ENDBRANCH   4   5
ENDBRANCH   2   4
BRANCH   1  11
ATOM     11  C   UNL     1      -1.296   2.543   0.000  0.00  0.00    +0.133 C 
BRANCH  11  16
ATOM     12  C   UNL     1      -4.136   1.939   0.000  0.00  0.00    +0.059 C 
ATOM     13  C   UNL     1      -3.316   1.853   0.000  0.00  0.00    +0.088 A 
ATOM     14  S   UNL     1      -2.903   1.138   0.000  0.00  0.00    -0.071 S 
ATOM     15  C   UNL     1      -2.096   1.310   0.000  0.00  0.00    +0.052 A 
ATOM     16  C   UNL     1      -2.010   2.130   0.000  0.00  0.00    +0.075 A 
ATOM     17  N   UNL     1      -2.764   2.466   0.000  0.00  0.00    -0.247 NA
ENDBRANCH  11  16
ENDBRANCH   1  11
TORSDOF 7
