REMARK  Name = 
REMARK  5 active torsions:
REMARK  status: ('A' for Active; 'I' for Inactive)
REMARK    1  A    between atoms: C_2  and  N_4
REMARK    2  A    between atoms: C_8  and  N_9
REMARK    3  A    between atoms: N_12  and  C_13
REMARK    4  A    between atoms: C_13  and  C_14
REMARK    5  A    between atoms: C_14  and  C_15
REMARK                            x       y       z     vdW  Elec       q    Type
REMARK                         _______ _______ _______ _____ _____    ______ ____
ROOT
ATOM      1  N   UNL     1       3.163  -2.952   0.000  0.00  0.00    -0.142 NA
ATOM      2  C   UNL     1       3.878  -3.364   0.000  0.00  0.00    +0.345 C 
ATOM      3  N   UNL     1       4.592  -2.952   0.000  0.00  0.00    -0.187 NA
ATOM      4  O   UNL     1       3.878  -4.189   0.000  0.00  0.00    -0.249 OA
ENDROOT
BRANCH   1   6
ATOM      5  N   UNL     1       1.695  -3.029   0.000  0.00  0.00    -0.238 N 
ATOM      6  C   UNL     1       2.449  -3.364   0.000  0.00  0.00    +0.155 A 
ATOM      7  C   UNL     1       2.363  -4.185   0.000  0.00  0.00    +0.058 A 
ATOM      8  C   UNL     1       1.556  -4.356   0.000  0.00  0.00    +0.123 A 
ATOM      9  N   UNL     1       1.143  -3.642   0.000  0.00  0.00    -0.167 NA
BRANCH   5  11
ATOM     10  C   UNL     1       2.137  -1.670   0.000  0.00  0.00    +0.026 C 
ATOM     11  C   UNL     1       1.524  -2.222   0.000  0.00  0.00    +0.107 C 
ATOM     12  C   UNL     1       0.739  -1.967   0.000  0.00  0.00    +0.026 C 
ENDBRANCH   5  11
ENDBRANCH   1   6
BRANCH   3  13
ATOM     13  C   UNL     1       5.307  -3.364   0.000  0.00  0.00    +0.121 C 
BRANCH  13  14
ATOM     14  C   UNL     1       6.021  -2.952   0.000  0.00  0.00    +0.045 C 
BRANCH  14  15
ATOM     15  C   UNL     1       6.736  -3.364   0.000  0.00  0.00    -0.047 C 
ATOM     16  C   UNL     1       6.822  -4.185   0.000  0.00  0.00    +0.022 C 
ATOM     17  C   UNL     1       7.629  -4.356   0.000  0.00  0.00    +0.009 C 
ATOM     18  C   UNL     1       8.041  -3.642   0.000  0.00  0.00    +0.026 C 
ATOM     19  C   UNL     1       7.489  -3.029   0.000  0.00  0.00    -0.035 C 
ENDBRANCH  14  15
ENDBRANCH  13  14
ENDBRANCH   3  13
TORSDOF 5
