REMARK  Name = 
REMARK  7 active torsions:
REMARK  status: ('A' for Active; 'I' for Inactive)
REMARK    1  A    between atoms: C_2  and  N_3
REMARK    2  A    between atoms: C_2  and  C_12
REMARK    3  A    between atoms: N_3  and  C_4
REMARK    4  A    between atoms: C_4  and  C_5
REMARK    5  A    between atoms: C_5  and  N_6
REMARK    6  A    between atoms: N_14  and  C_15
REMARK    7  A    between atoms: C_15  and  C_16
REMARK                            x       y       z     vdW  Elec       q    Type
REMARK                         _______ _______ _______ _____ _____    ______ ____
ROOT
ATOM      1  C   UNL     1       3.183   0.198   0.000  0.00  0.00    +0.029 C 
ATOM      2  C   UNL     1       3.183  -0.627   0.000  0.00  0.00    +0.150 C 
ENDROOT
BRANCH   2   3
ATOM      3  C   UNL     1       3.897  -1.040   0.000  0.00  0.00    +0.257 C 
ATOM      4  N   UNL     1       4.612  -0.627   0.000  0.00  0.00    -0.195 NA
ATOM      5  O   UNL     1       3.897  -1.865   0.000  0.00  0.00    -0.272 OA
BRANCH   4   6
ATOM      6  C   UNL     1       5.326  -1.040   0.000  0.00  0.00    +0.218 C 
BRANCH   6   7
ATOM      7  C   UNL     1       6.041  -0.627   0.000  0.00  0.00    +0.417 C 
ATOM      8  F   UNL     1       5.628   0.087   0.000  0.00  0.00    -0.168 F 
ATOM      9  F   UNL     1       6.453  -1.341   0.000  0.00  0.00    -0.168 F 
ATOM     10  F   UNL     1       6.755  -0.215   0.000  0.00  0.00    -0.168 F 
ENDBRANCH   6   7
ENDBRANCH   4   6
ENDBRANCH   2   3
BRANCH   2  11
ATOM     11  N   UNL     1       2.469  -1.040   0.000  0.00  0.00    -0.208 NA
BRANCH  11  12
ATOM     12  C   UNL     1       1.754  -0.627   0.000  0.00  0.00    +0.115 C 
BRANCH  12  13
ATOM     13  C   UNL     1       1.040  -1.040   0.000  0.00  0.00    +0.146 C 
BRANCH  13  14
ATOM     14  N   UNL     1       0.325  -0.627   0.000  0.00  0.00    -0.248 N 
ATOM     15  N   UNL     1       0.239   0.193   0.000  0.00  0.00    -0.168 NA
ATOM     16  C   UNL     1      -0.568   0.365   0.000  0.00  0.00    +0.117 A 
ATOM     17  C   UNL     1      -0.981  -0.349   0.000  0.00  0.00    +0.018 A 
ATOM     18  C   UNL     1      -1.801  -0.436   0.000  0.00  0.00    +0.034 C 
ATOM     19  C   UNL     1      -0.429  -0.963   0.000  0.00  0.00    +0.092 A 
ENDBRANCH  13  14
ENDBRANCH  12  13
ENDBRANCH  11  12
ENDBRANCH   2  11
TORSDOF 7
