REMARK  Name = 
REMARK  2 active torsions:
REMARK  status: ('A' for Active; 'I' for Inactive)
REMARK    1  A    between atoms: C_2  and  N_8
REMARK    2  A    between atoms: N_11  and  C_12
REMARK                            x       y       z     vdW  Elec       q    Type
REMARK                         _______ _______ _______ _____ _____    ______ ____
ROOT
ATOM      1  N   UNL     1       3.486  -1.287   0.000  0.00  0.00    -0.190 NA
ATOM      2  C   UNL     1       4.299  -1.431   0.000  0.00  0.00    +0.343 C 
ATOM      3  N   UNL     1       4.829  -0.798   0.000  0.00  0.00    -0.159 NA
ATOM      4  O   UNL     1       4.581  -2.206   0.000  0.00  0.00    -0.249 OA
ENDROOT
BRANCH   1   6
ATOM      5  C   UNL     1       2.426  -1.287   0.000  0.00  0.00    +0.022 C 
ATOM      6  C   UNL     1       2.956  -1.919   0.000  0.00  0.00    +0.085 C 
ATOM      7  C   UNL     1       2.241  -2.332   0.000  0.00  0.00    +0.052 C 
ATOM      8  C   UNL     1       2.241  -3.157   0.000  0.00  0.00    +0.144 C 
ATOM      9  O   UNL     1       2.956  -3.569   0.000  0.00  0.00    -0.354 OA
ATOM     10  C   UNL     1       3.670  -3.157   0.000  0.00  0.00    +0.144 C 
ATOM     11  C   UNL     1       3.670  -2.332   0.000  0.00  0.00    +0.052 C 
ENDBRANCH   1   6
BRANCH   3  12
ATOM     12  C   UNL     1       5.641  -0.942   0.000  0.00  0.00    +0.105 A 
ATOM     13  C   UNL     1       5.924  -1.717   0.000  0.00  0.00    +0.174 A 
ATOM     14  F   UNL     1       5.393  -2.349   0.000  0.00  0.00    -0.201 F 
ATOM     15  C   UNL     1       6.736  -1.860   0.000  0.00  0.00    +0.130 A 
ATOM     16  N   UNL     1       7.266  -1.228   0.000  0.00  0.00    -0.240 NA
ATOM     17  C   UNL     1       6.984  -0.453   0.000  0.00  0.00    +0.100 A 
ATOM     18  C   UNL     1       6.172  -0.310   0.000  0.00  0.00    +0.040 A 
ENDBRANCH   3  12
TORSDOF 2
