REMARK  Name = 
REMARK  5 active torsions:
REMARK  status: ('A' for Active; 'I' for Inactive)
REMARK    1  A    between atoms: N_1  and  C_11
REMARK    2  A    between atoms: N_2  and  C_14
REMARK    3  A    between atoms: C_4  and  C_10
REMARK    4  A    between atoms: C_5  and  C_16
REMARK    5  A    between atoms: C_10  and  C_11
REMARK                            x       y       z     vdW  Elec       q    Type
REMARK                         _______ _______ _______ _____ _____    ______ ____
ROOT
ATOM      1  C   UNL     1       0.883  -2.150   0.000  0.00  0.00    +0.198 C 
ATOM      2  O   UNL     1       0.075  -2.321   0.000  0.00  0.00    -0.289 OA
ENDROOT
BRANCH   1   3
ATOM      3  C   UNL     1       1.137  -1.363   0.000  0.00  0.00    +0.056 A 
ATOM      4  C   UNL     1       1.921  -1.108   0.000  0.00  0.00    +0.022 A 
ATOM      5  C   UNL     1       2.638  -1.521   0.000  0.00  0.00    +0.002 A 
ATOM      6  C   UNL     1       3.350  -1.108   0.000  0.00  0.00    +0.000 A 
ATOM      7  C   UNL     1       3.350  -0.283   0.000  0.00  0.00    +0.002 A 
ATOM      8  C   UNL     1       2.638   0.129   0.000  0.00  0.00    +0.019 A 
ATOM      9  C   UNL     1       1.921  -0.283   0.000  0.00  0.00    +0.081 A 
ATOM     10  N   UNL     1       1.137  -0.029   0.000  0.00  0.00    -0.245 NA
ATOM     11  C   UNL     1       0.650  -0.696   0.000  0.00  0.00    +0.084 A 
BRANCH  11  12
ATOM     12  C   UNL     1      -0.175  -0.696   0.000  0.00  0.00    +0.018 A 
ATOM     13  C   UNL     1      -0.588   0.017   0.000  0.00  0.00    +0.001 A 
ATOM     14  C   UNL     1      -1.413   0.017   0.000  0.00  0.00    +0.000 A 
ATOM     15  C   UNL     1      -1.825  -0.696   0.000  0.00  0.00    +0.000 A 
ATOM     16  C   UNL     1      -1.413  -1.408   0.000  0.00  0.00    +0.000 A 
ATOM     17  C   UNL     1      -0.588  -1.408   0.000  0.00  0.00    +0.001 A 
ENDBRANCH  11  12
ENDBRANCH   1   3
BRANCH   1  18
ATOM     18  C   UNL     1       1.433  -2.763   0.000  0.00  0.00    +0.183 C 
BRANCH  18  19
ATOM     19  N   UNL     1       1.179  -3.546   0.000  0.00  0.00    -0.239 N 
ATOM     20  C   UNL     1       1.729  -4.158   0.000  0.00  0.00    +0.294 A 
ATOM     21  O   UNL     1       2.538  -3.987   0.000  0.00  0.00    -0.264 OA
ATOM     22  C   UNL     1       1.475  -4.942   0.000  0.00  0.00    +0.213 A 
ATOM     23  F   UNL     1       2.029  -5.558   0.000  0.00  0.00    -0.198 F 
ATOM     24  C   UNL     1       0.671  -5.117   0.000  0.00  0.00    +0.116 A 
ATOM     25  N   UNL     1       0.117  -4.500   0.000  0.00  0.00    -0.255 N 
ATOM     26  C   UNL     1       0.371  -3.717   0.000  0.00  0.00    +0.336 A 
ATOM     27  O   UNL     1      -0.179  -3.104   0.000  0.00  0.00    -0.246 OA
BRANCH  25  28
ATOM     28  C   UNL     1      -0.692  -4.675   0.000  0.00  0.00    +0.208 C 
ATOM     29  C   UNL     1      -1.025  -5.425   0.000  0.00  0.00    +0.057 C 
ATOM     30  C   UNL     1      -1.846  -5.342   0.000  0.00  0.00    +0.037 C 
ATOM     31  C   UNL     1      -2.017  -4.533   0.000  0.00  0.00    +0.144 C 
ATOM     32  O   UNL     1      -1.304  -4.121   0.000  0.00  0.00    -0.335 OA
ENDBRANCH  25  28
ENDBRANCH  18  19
ENDBRANCH   1  18
TORSDOF 5
