REMARK  Name = 
REMARK  5 active torsions:
REMARK  status: ('A' for Active; 'I' for Inactive)
REMARK    1  A    between atoms: C_2  and  C_3
REMARK    2  A    between atoms: C_2  and  C_16
REMARK    3  A    between atoms: C_3  and  N_4
REMARK    4  A    between atoms: C_10  and  C_11
REMARK    5  A    between atoms: C_16  and  N_17
REMARK                            x       y       z     vdW  Elec       q    Type
REMARK                         _______ _______ _______ _____ _____    ______ ____
ROOT
ATOM      1  N   UNL     1       2.858  -4.125   0.000  0.00  0.00    -0.187 NA
ATOM      2  C   UNL     1       2.143  -3.712   0.000  0.00  0.00    +0.345 C 
ATOM      3  N   UNL     1       1.429  -4.125   0.000  0.00  0.00    -0.142 NA
ATOM      4  C   UNL     1       0.715  -3.712   0.000  0.00  0.00    +0.157 A 
ATOM      5  N   UNL     1       0.715  -2.888   0.000  0.00  0.00    -0.227 NA
ATOM      6  C   UNL     1       0.000  -2.475   0.000  0.00  0.00    +0.101 A 
ATOM      7  C   UNL     1      -0.715  -2.888   0.000  0.00  0.00    +0.031 A 
ATOM      8  C   UNL     1      -0.715  -3.712   0.000  0.00  0.00    +0.073 A 
ATOM      9  C   UNL     1       0.000  -4.125   0.000  0.00  0.00    +0.047 A 
ATOM     10  O   UNL     1       2.143  -2.888   0.000  0.00  0.00    -0.249 OA
ENDROOT
BRANCH   8  11
ATOM     11  C   UNL     1      -1.429  -4.125   0.000  0.00  0.00    +0.101 C 
ATOM     12  N   UNL     1      -2.143  -4.537   0.000  0.00  0.00    -0.191 NA
ENDBRANCH   8  11
BRANCH   1  13
ATOM     13  C   UNL     1       3.572  -3.712   0.000  0.00  0.00    +0.118 C 
BRANCH  13  15
ATOM     14  C   UNL     1       4.287  -4.950   0.000  0.00  0.00    +0.003 C 
ATOM     15  C   UNL     1       4.287  -4.125   0.000  0.00  0.00    +0.038 C 
BRANCH  15  16
ATOM     16  C   UNL     1       5.001  -3.712   0.000  0.00  0.00    +0.074 C 
BRANCH  16  17
ATOM     17  N   UNL     1       5.716  -4.125   0.000  0.00  0.00    -0.270 NA
ATOM     18  C   UNL     1       5.716  -4.950   0.000  0.00  0.00    +0.090 C 
ATOM     19  C   UNL     1       6.430  -5.362   0.000  0.00  0.00    +0.090 C 
ATOM     20  N   UNL     1       7.145  -4.950   0.000  0.00  0.00    -0.269 NA
ATOM     21  C   UNL     1       7.859  -5.362   0.000  0.00  0.00    +0.090 C 
ATOM     22  C   UNL     1       7.145  -4.125   0.000  0.00  0.00    +0.090 C 
ATOM     23  C   UNL     1       6.430  -3.712   0.000  0.00  0.00    +0.090 C 
ENDBRANCH  16  17
ENDBRANCH  15  16
ENDBRANCH  13  15
ENDBRANCH   1  13
TORSDOF 5
