REMARK  Name = 
REMARK  4 active torsions:
REMARK  status: ('A' for Active; 'I' for Inactive)
REMARK    1  A    between atoms: C_5  and  N_6
REMARK    2  A    between atoms: N_9  and  C_10
REMARK    3  A    between atoms: C_10  and  C_11
REMARK    4  A    between atoms: C_11  and  C_12
REMARK                            x       y       z     vdW  Elec       q    Type
REMARK                         _______ _______ _______ _____ _____    ______ ____
ROOT
ATOM      1  N   UNL     1       2.143  -3.712   0.000  0.00  0.00    -0.186 NA
ATOM      2  C   UNL     1       2.858  -4.125   0.000  0.00  0.00    +0.339 C 
ATOM      3  N   UNL     1       3.572  -3.712   0.000  0.00  0.00    -0.187 NA
ATOM      4  O   UNL     1       2.858  -4.950   0.000  0.00  0.00    -0.249 OA
ENDROOT
BRANCH   1  11
ATOM      5  C   UNL     1      -0.429  -3.789   0.000  0.00  0.00    +0.030 C 
ATOM      6  C   UNL     1       0.123  -4.402   0.000  0.00  0.00    +0.095 C 
ATOM      7  O   UNL     1       0.536  -5.117   0.000  0.00  0.00    -0.362 OA
ATOM      8  C   UNL     1       1.343  -4.946   0.000  0.00  0.00    +0.111 C 
ATOM      9  C   UNL     1       1.429  -5.766   0.000  0.00  0.00    +0.031 C 
ATOM     10  C   UNL     1       2.168  -4.946   0.000  0.00  0.00    +0.031 C 
ATOM     11  C   UNL     1       1.429  -4.125   0.000  0.00  0.00    +0.124 C 
ATOM     12  C   UNL     1       0.675  -3.789   0.000  0.00  0.00    +0.051 C 
ATOM     13  C   UNL     1      -0.544  -4.888   0.000  0.00  0.00    +0.030 C 
ENDBRANCH   1  11
BRANCH   3  14
ATOM     14  C   UNL     1       4.287  -4.125   0.000  0.00  0.00    +0.123 C 
BRANCH  14  15
ATOM     15  C   UNL     1       5.001  -3.712   0.000  0.00  0.00    +0.069 C 
BRANCH  15  16
ATOM     16  C   UNL     1       5.716  -4.125   0.000  0.00  0.00    +0.061 A 
ATOM     17  N   UNL     1       5.716  -4.950   0.000  0.00  0.00    -0.248 NA
ATOM     18  C   UNL     1       6.430  -5.362   0.000  0.00  0.00    +0.098 A 
ATOM     19  C   UNL     1       7.145  -4.950   0.000  0.00  0.00    +0.021 A 
ATOM     20  C   UNL     1       7.145  -4.125   0.000  0.00  0.00    +0.003 A 
ATOM     21  C   UNL     1       6.430  -3.712   0.000  0.00  0.00    +0.015 A 
ENDBRANCH  15  16
ENDBRANCH  14  15
ENDBRANCH   3  14
TORSDOF 4
