REMARK  Name = 
REMARK  4 active torsions:
REMARK  status: ('A' for Active; 'I' for Inactive)
REMARK    1  A    between atoms: O_2  and  C_3
REMARK    2  A    between atoms: C_6  and  N_7
REMARK    3  A    between atoms: N_10  and  C_11
REMARK    4  A    between atoms: N_14  and  C_16
REMARK                            x       y       z     vdW  Elec       q    Type
REMARK                         _______ _______ _______ _____ _____    ______ ____
ROOT
ATOM      1  N   UNL     1      -0.608   6.828   0.000  0.00  0.00    -0.159 NA
ATOM      2  C   UNL     1      -0.608   6.003   0.000  0.00  0.00    +0.344 C 
ATOM      3  N   UNL     1      -1.322   5.590   0.000  0.00  0.00    -0.187 NA
ATOM      4  O   UNL     1       0.107   5.590   0.000  0.00  0.00    -0.249 OA
ENDROOT
BRANCH   1   8
ATOM      5  C   UNL     1       1.536   8.065   0.000  0.00  0.00    +0.225 A 
ATOM      6  N   UNL     1       0.821   8.478   0.000  0.00  0.00    -0.209 NA
ATOM      7  C   UNL     1       0.107   8.065   0.000  0.00  0.00    +0.119 A 
ATOM      8  C   UNL     1       0.107   7.240   0.000  0.00  0.00    +0.094 A 
ATOM      9  C   UNL     1       0.821   6.828   0.000  0.00  0.00    +0.023 A 
ATOM     10  C   UNL     1       1.536   7.240   0.000  0.00  0.00    +0.059 A 
BRANCH   5  12
ATOM     11  C   UNL     1       2.250   9.303   0.000  0.00  0.00    +0.254 C 
ATOM     12  O   UNL     1       2.250   8.478   0.000  0.00  0.00    -0.456 OA
ENDBRANCH   5  12
ENDBRANCH   1   8
BRANCH   3  13
ATOM     13  C   UNL     1      -1.322   4.765   0.000  0.00  0.00    +0.114 C 
ATOM     14  C   UNL     1      -1.990   4.280   0.000  0.00  0.00    +0.094 C 
ATOM     15  N   UNL     1      -1.735   3.496   0.000  0.00  0.00    -0.272 NA
ATOM     16  C   UNL     1      -0.910   3.496   0.000  0.00  0.00    +0.074 C 
ATOM     17  C   UNL     1      -0.655   4.280   0.000  0.00  0.00    +0.040 C 
BRANCH  15  18
ATOM     18  C   UNL     1      -2.220   2.828   0.000  0.00  0.00    +0.058 C 
ATOM     19  C   UNL     1      -3.040   2.914   0.000  0.00  0.00    +0.017 C 
ATOM     20  C   UNL     1      -1.884   2.075   0.000  0.00  0.00    +0.017 C 
ENDBRANCH  15  18
ENDBRANCH   3  13
TORSDOF 4
