REMARK  Name = 
REMARK  5 active torsions:
REMARK  status: ('A' for Active; 'I' for Inactive)
REMARK    1  A    between atoms: C_2  and  C_3
REMARK    2  A    between atoms: C_2  and  N_17
REMARK    3  A    between atoms: N_5  and  C_6
REMARK    4  A    between atoms: C_6  and  C_7
REMARK    5  A    between atoms: C_7  and  C_12
REMARK                            x       y       z     vdW  Elec       q    Type
REMARK                         _______ _______ _______ _____ _____    ______ ____
ROOT
ATOM      1  C   UNL     1       3.276  -1.211   0.000  0.00  0.00    +0.124 C 
ENDROOT
BRANCH   1   2
ATOM      2  C   UNL     1       3.990  -1.624   0.000  0.00  0.00    +0.089 C 
ATOM      3  C   UNL     1       3.505  -2.291   0.000  0.00  0.00    +0.010 C 
ATOM      4  C   UNL     1       3.990  -2.958   0.000  0.00  0.00    +0.001 C 
ATOM      5  C   UNL     1       4.775  -2.704   0.000  0.00  0.00    +0.001 C 
ATOM      6  C   UNL     1       4.775  -1.879   0.000  0.00  0.00    +0.010 C 
BRANCH   2   7
ATOM      7  C   UNL     1       4.325  -0.870   0.000  0.00  0.00    +0.226 C 
ATOM      8  N   UNL     1       5.146  -0.784   0.000  0.00  0.00    -0.276 N 
ATOM      9  C   UNL     1       5.481  -0.030   0.000  0.00  0.00    +0.115 C 
ATOM     10  C   UNL     1       5.631  -1.451   0.000  0.00  0.00    +0.115 C 
ATOM     11  O   UNL     1       3.841  -0.203   0.000  0.00  0.00    -0.275 OA
ENDBRANCH   2   7
ENDBRANCH   1   2
BRANCH   1  13
ATOM     12  C   UNL     1       1.847  -1.211   0.000  0.00  0.00    +0.264 C 
ATOM     13  N   UNL     1       2.561  -1.624   0.000  0.00  0.00    -0.203 NA
ATOM     14  O   UNL     1       1.847  -0.386   0.000  0.00  0.00    -0.271 OA
BRANCH  12  16
ATOM     15  C   UNL     1       1.132  -2.449   0.000  0.00  0.00    +0.036 C 
ATOM     16  C   UNL     1       1.132  -1.624   0.000  0.00  0.00    +0.183 C 
BRANCH  16  17
ATOM     17  N   UNL     1       0.418  -1.211   0.000  0.00  0.00    -0.242 N 
ATOM     18  N   UNL     1       0.331  -0.391   0.000  0.00  0.00    -0.167 NA
ATOM     19  C   UNL     1      -0.476  -0.219   0.000  0.00  0.00    +0.122 A 
ATOM     20  C   UNL     1      -0.888  -0.934   0.000  0.00  0.00    +0.043 A 
ATOM     21  C   UNL     1      -0.336  -1.547   0.000  0.00  0.00    +0.097 A 
ENDBRANCH  16  17
ENDBRANCH  12  16
ENDBRANCH   1  13
TORSDOF 5
