REMARK  Name = 
REMARK  5 active torsions:
REMARK  status: ('A' for Active; 'I' for Inactive)
REMARK    1  A    between atoms: C_2  and  N_3
REMARK    2  A    between atoms: C_7  and  C_8
REMARK    3  A    between atoms: C_8  and  N_9
REMARK    4  A    between atoms: C_10  and  C_12
REMARK    5  A    between atoms: C_12  and  N_13
REMARK                            x       y       z     vdW  Elec       q    Type
REMARK                         _______ _______ _______ _____ _____    ______ ____
ROOT
ATOM      1  N   UNL     1       2.143   2.062   0.000  0.00  0.00    -0.204 NA
ATOM      2  C   UNL     1       2.858   1.650   0.000  0.00  0.00    +0.266 C 
ATOM      3  O   UNL     1       2.858   0.825   0.000  0.00  0.00    -0.271 OA
ENDROOT
BRANCH   1   4
ATOM      4  C   UNL     1       1.429   1.650   0.000  0.00  0.00    +0.117 C 
BRANCH   4   7
ATOM      5  N   UNL     1      -0.715   2.062   0.000  0.00  0.00    -0.273 NA
ATOM      6  C   UNL     1       0.000   1.650   0.000  0.00  0.00    +0.074 C 
ATOM      7  C   UNL     1       0.715   2.062   0.000  0.00  0.00    +0.038 C 
ATOM      8  C   UNL     1       0.715   2.888   0.000  0.00  0.00    +0.005 C 
ATOM      9  C   UNL     1       0.000   3.300   0.000  0.00  0.00    +0.017 C 
ATOM     10  C   UNL     1      -0.715   2.888   0.000  0.00  0.00    +0.072 C 
BRANCH   5  12
ATOM     11  C   UNL     1      -2.143   2.062   0.000  0.00  0.00    +0.019 C 
ATOM     12  C   UNL     1      -1.429   1.650   0.000  0.00  0.00    +0.072 C 
ENDBRANCH   5  12
ENDBRANCH   4   7
ENDBRANCH   1   4
BRANCH   2  13
ATOM     13  C   UNL     1       3.572   2.062   0.000  0.00  0.00    +0.214 C 
BRANCH  13  14
ATOM     14  N   UNL     1       4.287   1.650   0.000  0.00  0.00    -0.240 N 
ATOM     15  N   UNL     1       4.373   0.830   0.000  0.00  0.00    -0.168 NA
ATOM     16  C   UNL     1       5.180   0.658   0.000  0.00  0.00    +0.117 A 
ATOM     17  C   UNL     1       5.593   1.373   0.000  0.00  0.00    +0.018 A 
ATOM     18  C   UNL     1       6.413   1.459   0.000  0.00  0.00    +0.034 C 
ATOM     19  C   UNL     1       5.040   1.986   0.000  0.00  0.00    +0.093 A 
ENDBRANCH  13  14
ENDBRANCH   2  13
TORSDOF 5
