REMARK  Name = 
REMARK  3 active torsions:
REMARK  status: ('A' for Active; 'I' for Inactive)
REMARK    1  A    between atoms: C_4  and  N_5
REMARK    2  A    between atoms: N_8  and  C_9
REMARK    3  A    between atoms: C_10  and  C_11
REMARK                            x       y       z     vdW  Elec       q    Type
REMARK                         _______ _______ _______ _____ _____    ______ ____
ROOT
ATOM      1  N   UNL     1      -1.265   2.192   0.000  0.00  0.00    -0.124 NA
ATOM      2  C   UNL     1      -0.551   1.779   0.000  0.00  0.00    +0.346 C 
ATOM      3  N   UNL     1      -0.551   0.954   0.000  0.00  0.00    -0.189 NA
ATOM      4  O   UNL     1       0.164   2.192   0.000  0.00  0.00    -0.249 OA
ENDROOT
BRANCH   3   5
ATOM      5  C   UNL     1       0.164   0.542   0.000  0.00  0.00    +0.099 C 
ATOM      6  C   UNL     1       0.878   0.954   0.000  0.00  0.00    +0.020 C 
ATOM      7  C   UNL     1       0.672   0.129   0.000  0.00  0.00    +0.002 C 
ATOM      8  C   UNL     1       0.878  -0.696   0.000  0.00  0.00    +0.004 C 
ATOM      9  C   UNL     1       1.593  -0.283   0.000  0.00  0.00    +0.000 C 
ATOM     10  C   UNL     1       1.593   0.542   0.000  0.00  0.00    +0.002 C 
ATOM     11  C   UNL     1       0.164  -0.283   0.000  0.00  0.00    +0.053 C 
BRANCH  11  12
ATOM     12  C   UNL     1      -0.551  -0.696   0.000  0.00  0.00    +0.184 C 
ATOM     13  O   UNL     1      -0.551  -1.521   0.000  0.00  0.00    -0.220 OA
ENDBRANCH  11  12
ENDBRANCH   3   5
BRANCH   1  18
ATOM     14  C   UNL     1      -0.368   4.954   0.000  0.00  0.00    +0.056 C 
ATOM     15  C   UNL     1      -0.853   4.286   0.000  0.00  0.00    +0.103 A 
ATOM     16  N   UNL     1      -1.678   4.286   0.000  0.00  0.00    -0.080 NA
ATOM     17  O   UNL     1      -1.933   3.502   0.000  0.00  0.00    -0.337 OA
ATOM     18  C   UNL     1      -1.265   3.017   0.000  0.00  0.00    +0.253 A 
ATOM     19  C   UNL     1      -0.598   3.502   0.000  0.00  0.00    +0.076 A 
ENDBRANCH   1  18
TORSDOF 3
