REMARK  Name = 
REMARK  3 active torsions:
REMARK  status: ('A' for Active; 'I' for Inactive)
REMARK    1  A    between atoms: O_2  and  C_3
REMARK    2  A    between atoms: C_3  and  C_4
REMARK    3  A    between atoms: C_4  and  N_5
REMARK                            x       y       z     vdW  Elec       q    Type
REMARK                         _______ _______ _______ _____ _____    ______ ____
ROOT
ATOM      1  N   UNL     1       0.715   1.238   0.000  0.00  0.00    -0.263 N 
ATOM      2  C   UNL     1       0.000   0.825   0.000  0.00  0.00    +0.354 A 
ATOM      3  O   UNL     1      -0.715   1.238   0.000  0.00  0.00    -0.244 OA
ATOM      4  N   UNL     1       0.000   0.000   0.000  0.00  0.00    -0.153 NA
ATOM      5  C   UNL     1       0.715  -0.412   0.000  0.00  0.00    +0.286 A 
ATOM      6  O   UNL     1       0.715  -1.238   0.000  0.00  0.00    -0.265 OA
ATOM      7  C   UNL     1       1.429   0.000   0.000  0.00  0.00    +0.099 A 
ATOM      8  C   UNL     1       1.429   0.825   0.000  0.00  0.00    +0.160 A 
ATOM      9  N   UNL     1       2.143   1.238   0.000  0.00  0.00    -0.109 NA
ENDROOT
BRANCH   1  10
ATOM     10  C   UNL     1       0.715   2.062   0.000  0.00  0.00    +0.144 C 
BRANCH  10  11
ATOM     11  C   UNL     1       0.000   2.475   0.000  0.00  0.00    +0.167 C 
BRANCH  11  13
ATOM     12  C   UNL     1      -0.715   3.712   0.000  0.00  0.00    +0.174 C 
ATOM     13  O   UNL     1       0.000   3.300   0.000  0.00  0.00    -0.349 OA
ENDBRANCH  11  13
ENDBRANCH  10  11
ENDBRANCH   1  10
TORSDOF 3
