REMARK  Name = 
REMARK  6 active torsions:
REMARK  status: ('A' for Active; 'I' for Inactive)
REMARK    1  A    between atoms: N_7  and  C_8
REMARK    2  A    between atoms: C_8  and  C_9
REMARK    3  A    between atoms: C_9  and  C_11
REMARK    4  A    between atoms: C_11  and  N_12
REMARK    5  A    between atoms: N_12  and  C_13
REMARK    6  A    between atoms: C_13  and  C_14
REMARK                            x       y       z     vdW  Elec       q    Type
REMARK                         _______ _______ _______ _____ _____    ______ ____
ROOT
ATOM      1  C   UNL     1      -0.470  -0.929   0.000  0.00  0.00    +0.031 C 
ATOM      2  C   UNL     1      -0.216  -0.145   0.000  0.00  0.00    -0.024 A 
ATOM      3  C   UNL     1       0.591   0.027   0.000  0.00  0.00    -0.024 A 
ATOM      4  C   UNL     1       1.143  -0.586   0.000  0.00  0.00    +0.031 C 
ATOM      5  C   UNL     1       0.846   0.811   0.000  0.00  0.00    +0.014 A 
ATOM      6  C   UNL     1       0.294   1.425   0.000  0.00  0.00    +0.079 A 
ATOM      7  C   UNL     1      -0.513   1.253   0.000  0.00  0.00    +0.098 A 
ATOM      8  N   UNL     1      -0.925   1.968   0.000  0.00  0.00    -0.224 NA
ATOM      9  C   UNL     1      -0.373   2.581   0.000  0.00  0.00    +0.179 A 
ATOM     10  N   UNL     1       0.381   2.245   0.000  0.00  0.00    -0.306 N 
ATOM     11  C   UNL     1      -0.768   0.468   0.000  0.00  0.00    +0.016 A 
ENDROOT
BRANCH  10  12
ATOM     12  C   UNL     1       1.095   2.658   0.000  0.00  0.00    +0.142 C 
BRANCH  12  13
ATOM     13  C   UNL     1       1.809   2.245   0.000  0.00  0.00    +0.192 C 
ATOM     14  O   UNL     1       1.809   1.420   0.000  0.00  0.00    -0.220 OA
BRANCH  13  15
ATOM     15  C   UNL     1       2.524   2.658   0.000  0.00  0.00    +0.124 C 
BRANCH  15  16
ATOM     16  N   UNL     1       3.238   2.245   0.000  0.00  0.00    -0.210 NA
BRANCH  16  17
ATOM     17  C   UNL     1       3.953   2.658   0.000  0.00  0.00    +0.121 C 
BRANCH  17  18
ATOM     18  C   UNL     1       4.667   2.245   0.000  0.00  0.00    +0.025 A 
ATOM     19  S   UNL     1       4.754   1.425   0.000  0.00  0.00    -0.089 S 
ATOM     20  C   UNL     1       5.561   1.253   0.000  0.00  0.00    +0.035 A 
ATOM     21  C   UNL     1       5.973   1.968   0.000  0.00  0.00    +0.007 A 
ATOM     22  C   UNL     1       5.421   2.581   0.000  0.00  0.00    +0.004 A 
ENDBRANCH  17  18
ENDBRANCH  16  17
ENDBRANCH  15  16
ENDBRANCH  13  15
ENDBRANCH  12  13
ENDBRANCH  10  12
TORSDOF 6
