REMARK  Name = 
REMARK  4 active torsions:
REMARK  status: ('A' for Active; 'I' for Inactive)
REMARK    1  A    between atoms: C_2  and  C_4
REMARK    2  A    between atoms: C_6  and  C_7
REMARK    3  A    between atoms: C_7  and  C_8
REMARK    4  A    between atoms: C_10  and  C_14
REMARK                            x       y       z     vdW  Elec       q    Type
REMARK                         _______ _______ _______ _____ _____    ______ ____
ROOT
ATOM      1  C   UNL     1       0.715   1.238   0.000  0.00  0.00    +0.114 A 
ATOM      2  C   UNL     1       0.000   0.825   0.000  0.00  0.00    +0.284 A 
ATOM      3  O   UNL     1      -0.715   1.238   0.000  0.00  0.00    -0.265 OA
ATOM      4  N   UNL     1       0.000   0.000   0.000  0.00  0.00    -0.204 NA
ATOM      5  C   UNL     1       0.715  -0.412   0.000  0.00  0.00    +0.152 A 
ATOM      6  C   UNL     1       1.429   0.000   0.000  0.00  0.00    +0.002 A 
ATOM      7  C   UNL     1       1.429   0.825   0.000  0.00  0.00    +0.007 A 
ENDROOT
BRANCH   5   8
ATOM      8  C   UNL     1       0.715  -1.238   0.000  0.00  0.00    +0.435 C 
ATOM      9  F   UNL     1       1.540  -1.238   0.000  0.00  0.00    -0.164 F 
ATOM     10  F   UNL     1      -0.111  -1.238   0.000  0.00  0.00    -0.164 F 
ATOM     11  F   UNL     1       0.715  -2.062   0.000  0.00  0.00    -0.164 F 
ENDBRANCH   5   8
BRANCH   1  13
ATOM     12  N   UNL     1       1.429   2.475   0.000  0.00  0.00    -0.084 NA
ATOM     13  C   UNL     1       0.715   2.062   0.000  0.00  0.00    +0.289 C 
ATOM     14  O   UNL     1       0.000   2.475   0.000  0.00  0.00    -0.266 OA
ENDBRANCH   1  13
BRANCH   6  15
ATOM     15  C   UNL     1       2.143  -0.412   0.000  0.00  0.00    +0.063 C 
BRANCH  15  16
ATOM     16  C   UNL     1       2.143  -1.238   0.000  0.00  0.00    +0.187 C 
ATOM     17  O   UNL     1       2.858  -1.650   0.000  0.00  0.00    -0.220 OA
ENDBRANCH  15  16
ENDBRANCH   6  15
TORSDOF 4
