REMARK  Name = 
REMARK  5 active torsions:
REMARK  status: ('A' for Active; 'I' for Inactive)
REMARK    1  A    between atoms: N_1  and  C_2
REMARK    2  A    between atoms: C_11  and  C_15
REMARK    3  A    between atoms: C_12  and  O_14
REMARK    4  A    between atoms: C_12  and  C_18
REMARK    5  A    between atoms: O_14  and  C_15
REMARK                            x       y       z     vdW  Elec       q    Type
REMARK                         _______ _______ _______ _____ _____    ______ ____
ROOT
ATOM      1  C   UNL     1       2.750  -2.533   0.000  0.00  0.00    +0.242 C 
ATOM      2  O   UNL     1       3.417  -3.021   0.000  0.00  0.00    -0.329 OA
ATOM      3  C   UNL     1       3.163  -3.804   0.000  0.00  0.00    +0.194 C 
ATOM      4  C   UNL     1       2.337  -3.804   0.000  0.00  0.00    +0.217 C 
ATOM      5  O   UNL     1       1.850  -4.471   0.000  0.00  0.00    -0.217 OA
ATOM      6  C   UNL     1       2.083  -3.021   0.000  0.00  0.00    +0.234 C 
ATOM      7  O   UNL     1       1.296  -2.763   0.000  0.00  0.00    -0.216 OA
ENDROOT
BRANCH   1   8
ATOM      8  N   UNL     1       2.750  -1.708   0.000  0.00  0.00    -0.254 N 
ATOM      9  C   UNL     1       3.462  -1.296   0.000  0.00  0.00    +0.083 A 
ATOM     10  C   UNL     1       3.462  -0.471   0.000  0.00  0.00    +0.053 A 
ATOM     11  C   UNL     1       2.750  -0.058   0.000  0.00  0.00    +0.280 A 
ATOM     12  O   UNL     1       2.750   0.767   0.000  0.00  0.00    -0.265 OA
ATOM     13  N   UNL     1       2.033  -0.471   0.000  0.00  0.00    -0.153 NA
ATOM     14  C   UNL     1       4.179  -0.058   0.000  0.00  0.00    +0.038 C 
ATOM     15  C   UNL     1       2.033  -1.296   0.000  0.00  0.00    +0.355 A 
ATOM     16  O   UNL     1       1.321  -1.708   0.000  0.00  0.00    -0.244 OA
ENDBRANCH   1   8
BRANCH   3  17
ATOM     17  C   UNL     1       3.646  -4.471   0.000  0.00  0.00    +0.241 C 
BRANCH  17  18
ATOM     18  O   UNL     1       3.312  -5.225   0.000  0.00  0.00    -0.443 OA
BRANCH  18  19
ATOM     19  C   UNL     1       3.796  -5.892   0.000  0.00  0.00    +0.341 C 
ATOM     20  O   UNL     1       4.617  -5.808   0.000  0.00  0.00    -0.245 OA
BRANCH  19  21
ATOM     21  C   UNL     1       3.458  -6.646   0.000  0.00  0.00    +0.076 A 
ATOM     22  C   UNL     1       3.946  -7.312   0.000  0.00  0.00    +0.006 A 
ATOM     23  C   UNL     1       3.608  -8.067   0.000  0.00  0.00    +0.000 A 
ATOM     24  C   UNL     1       2.788  -8.154   0.000  0.00  0.00    +0.000 A 
ATOM     25  C   UNL     1       2.304  -7.487   0.000  0.00  0.00    +0.000 A 
ATOM     26  C   UNL     1       2.642  -6.733   0.000  0.00  0.00    +0.006 A 
ENDBRANCH  19  21
ENDBRANCH  18  19
ENDBRANCH  17  18
ENDBRANCH   3  17
TORSDOF 5
