REMARK  Name = 
REMARK  4 active torsions:
REMARK  status: ('A' for Active; 'I' for Inactive)
REMARK    1  A    between atoms: O_2  and  C_3
REMARK    2  A    between atoms: C_3  and  C_4
REMARK    3  A    between atoms: C_4  and  N_5
REMARK    4  A    between atoms: C_12  and  C_15
REMARK                            x       y       z     vdW  Elec       q    Type
REMARK                         _______ _______ _______ _____ _____    ______ ____
ROOT
ATOM      1  N   UNL     1       1.429  -2.475   0.000  0.00  0.00    -0.184 NA
ATOM      2  C   UNL     1       2.143  -2.888   0.000  0.00  0.00    +0.345 C 
ATOM      3  N   UNL     1       2.858  -2.475   0.000  0.00  0.00    -0.140 NA
ATOM      4  C   UNL     1       3.572  -2.888   0.000  0.00  0.00    +0.177 A 
ATOM      5  N   UNL     1       3.572  -3.712   0.000  0.00  0.00    -0.131 NA
ATOM      6  N   UNL     1       4.287  -4.125   0.000  0.00  0.00    -0.151 NA
ATOM      7  C   UNL     1       5.001  -3.712   0.000  0.00  0.00    +0.080 A 
ATOM      8  C   UNL     1       5.001  -2.888   0.000  0.00  0.00    +0.019 A 
ATOM      9  C   UNL     1       4.287  -2.475   0.000  0.00  0.00    +0.039 A 
ATOM     10  O   UNL     1       2.143  -3.712   0.000  0.00  0.00    -0.249 OA
ENDROOT
BRANCH   7  11
ATOM     11  C   UNL     1       5.716  -4.125   0.000  0.00  0.00    +0.037 C 
ATOM     12  C   UNL     1       6.128  -3.410   0.000  0.00  0.00    +0.006 C 
ATOM     13  C   UNL     1       5.303  -4.840   0.000  0.00  0.00    +0.006 C 
ATOM     14  C   UNL     1       6.430  -4.537   0.000  0.00  0.00    +0.006 C 
ENDBRANCH   7  11
BRANCH   1  15
ATOM     15  C   UNL     1       1.429  -1.650   0.000  0.00  0.00    +0.144 C 
BRANCH  15  16
ATOM     16  C   UNL     1       2.143  -1.238   0.000  0.00  0.00    +0.113 C 
ATOM     17  C   UNL     1       2.556  -1.952   0.000  0.00  0.00    +0.029 C 
ATOM     18  C   UNL     1       3.270  -1.540   0.000  0.00  0.00    +0.005 C 
ATOM     19  C   UNL     1       2.858  -0.825   0.000  0.00  0.00    +0.029 C 
BRANCH  16  21
ATOM     20  C   UNL     1       0.906  -0.523   0.000  0.00  0.00    +0.174 C 
ATOM     21  O   UNL     1       1.731  -0.523   0.000  0.00  0.00    -0.354 OA
ENDBRANCH  16  21
ENDBRANCH  15  16
ENDBRANCH   1  15
TORSDOF 4
