REMARK  Name = 
REMARK  3 active torsions:
REMARK  status: ('A' for Active; 'I' for Inactive)
REMARK    1  A    between atoms: N_4  and  C_15
REMARK    2  A    between atoms: C_15  and  C_19
REMARK    3  A    between atoms: C_19  and  C_22
REMARK                            x       y       z     vdW  Elec       q    Type
REMARK                         _______ _______ _______ _____ _____    ______ ____
ROOT
ATOM      1  S   UNL     1       0.029  -1.432   0.000  0.00  0.00    -0.010 S 
ATOM      2  O   UNL     1      -0.309  -2.187   0.000  0.00  0.00    -0.173 OA
ATOM      3  O   UNL     1       0.743  -1.845   0.000  0.00  0.00    -0.173 OA
ATOM      4  C   UNL     1       0.513  -0.764   0.000  0.00  0.00    +0.151 C 
ATOM      5  C   UNL     1       0.029  -0.096   0.000  0.00  0.00    +0.029 C 
ATOM      6  C   UNL     1      -0.760  -0.351   0.000  0.00  0.00    +0.045 C 
ATOM      7  C   UNL     1      -1.544  -0.096   0.000  0.00  0.00    +0.094 C 
ATOM      8  N   UNL     1      -2.028  -0.764   0.000  0.00  0.00    -0.290 N 
ATOM      9  C   UNL     1      -2.855  -0.764   0.000  0.00  0.00    +0.154 A 
ATOM     10  N   UNL     1      -3.268  -1.478   0.000  0.00  0.00    -0.207 NA
ATOM     11  C   UNL     1      -4.094  -1.478   0.000  0.00  0.00    +0.201 A 
ATOM     12  N   UNL     1      -4.508  -0.764   0.000  0.00  0.00    -0.205 NA
ATOM     13  C   UNL     1      -4.094  -0.046   0.000  0.00  0.00    +0.167 A 
ATOM     14  N   UNL     1      -4.349   0.739   0.000  0.00  0.00    -0.292 N 
ATOM     15  C   UNL     1      -3.681   1.223   0.000  0.00  0.00    +0.180 A 
ATOM     16  N   UNL     1      -3.013   0.739   0.000  0.00  0.00    -0.219 NA
ATOM     17  C   UNL     1      -3.268  -0.046   0.000  0.00  0.00    +0.149 A 
ATOM     18  C   UNL     1      -1.544  -1.432   0.000  0.00  0.00    +0.116 C 
ATOM     19  C   UNL     1      -0.760  -1.177   0.000  0.00  0.00    +0.150 C 
ENDROOT
BRANCH  14  20
ATOM     20  C   UNL     1      -5.138   0.993   0.000  0.00  0.00    +0.144 C 
BRANCH  20  21
ATOM     21  C   UNL     1      -5.751   0.442   0.000  0.00  0.00    +0.201 C 
ATOM     22  O   UNL     1      -5.580  -0.367   0.000  0.00  0.00    -0.218 OA
BRANCH  21  23
ATOM     23  C   UNL     1      -6.532   0.697   0.000  0.00  0.00    +0.147 C 
ATOM     24  C   UNL     1      -7.200   0.213   0.000  0.00  0.00    +0.035 C 
ATOM     25  C   UNL     1      -7.872   0.697   0.000  0.00  0.00    +0.035 C 
ATOM     26  C   UNL     1      -7.613   1.482   0.000  0.00  0.00    +0.142 C 
ATOM     27  O   UNL     1      -6.786   1.482   0.000  0.00  0.00    -0.354 OA
ENDBRANCH  21  23
ENDBRANCH  20  21
ENDBRANCH  14  20
TORSDOF 3
