REMARK  Name = 
REMARK  1 active torsions:
REMARK  status: ('A' for Active; 'I' for Inactive)
REMARK    1  A    between atoms: C_5  and  N_6
REMARK                            x       y       z     vdW  Elec       q    Type
REMARK                         _______ _______ _______ _____ _____    ______ ____
ROOT
ATOM      1 CL   UNL     1       0.000   0.000   0.000  0.00  0.00    +0.000 Cl
ENDROOT
TORSDOF 0
REMARK  Name = 
REMARK  1 active torsions:
REMARK  status: ('A' for Active; 'I' for Inactive)
REMARK    1  A    between atoms: C_5  and  N_6
REMARK                            x       y       z     vdW  Elec       q    Type
REMARK                         _______ _______ _______ _____ _____    ______ ____
ROOT
ATOM      1  N   UNL     1       2.941   0.236   0.000  0.00  0.00    -0.229 N 
ATOM      2  N   UNL     1       3.608   0.721   0.000  0.00  0.00    -0.064 NA
ATOM      3  N   UNL     1       3.353   1.506   0.000  0.00  0.00    -0.127 NA
ATOM      4  C   UNL     1       2.528   1.506   0.000  0.00  0.00    +0.144 A 
ATOM      5  C   UNL     1       2.273   0.721   0.000  0.00  0.00    +0.119 A 
ENDROOT
BRANCH   1   7
ATOM      6  C   UNL     1       3.524  -1.172   0.000  0.00  0.00    +0.115 C 
ATOM      7  C   UNL     1       2.941  -0.589   0.000  0.00  0.00    +0.142 C 
ATOM      8  C   UNL     1       2.357  -1.172   0.000  0.00  0.00    +0.115 C 
ATOM      9  N   UNL     1       2.941  -1.756   0.000  0.00  0.00    -0.214 NA
ENDBRANCH   1   7
TORSDOF 1
