REMARK  Name = 
REMARK  3 active torsions:
REMARK  status: ('A' for Active; 'I' for Inactive)
REMARK    1  A    between atoms: C_4  and  C_5
REMARK    2  A    between atoms: C_5  and  C_6
REMARK    3  A    between atoms: N_8  and  C_9
REMARK                            x       y       z     vdW  Elec       q    Type
REMARK                         _______ _______ _______ _____ _____    ______ ____
ROOT
ATOM      1  C   UNL     1       1.946  -5.962   0.000  0.00  0.00    +0.247 C 
ATOM      2  N   UNL     1       2.430  -6.630   0.000  0.00  0.00    -0.207 NA
ATOM      3  O   UNL     1       1.125  -6.049   0.000  0.00  0.00    -0.273 OA
ENDROOT
BRANCH   2   4
ATOM      4  C   UNL     1       2.095  -7.383   0.000  0.00  0.00    +0.095 C 
ATOM      5  C   UNL     1       1.270  -7.362   0.000  0.00  0.00    +0.022 C 
ATOM      6  C   UNL     1       0.672  -7.930   0.000  0.00  0.00    +0.002 C 
ATOM      7  C   UNL     1       0.650  -8.755   0.000  0.00  0.00    +0.000 C 
ATOM      8  C   UNL     1       1.218  -9.353   0.000  0.00  0.00    +0.000 C 
ATOM      9  C   UNL     1       2.043  -9.375   0.000  0.00  0.00    +0.000 C 
ATOM     10  C   UNL     1       2.641  -8.807   0.000  0.00  0.00    +0.002 C 
ATOM     11  C   UNL     1       2.663  -7.982   0.000  0.00  0.00    +0.022 C 
ENDBRANCH   2   4
BRANCH   1  12
ATOM     12  C   UNL     1       2.281  -5.209   0.000  0.00  0.00    +0.133 C 
BRANCH  12  17
ATOM     13  C   UNL     1       1.384  -2.447   0.000  0.00  0.00    +0.059 C 
ATOM     14  C   UNL     1       1.384  -3.272   0.000  0.00  0.00    +0.088 A 
ATOM     15  S   UNL     1       0.716  -3.757   0.000  0.00  0.00    -0.071 S 
ATOM     16  C   UNL     1       0.971  -4.541   0.000  0.00  0.00    +0.052 A 
ATOM     17  C   UNL     1       1.796  -4.541   0.000  0.00  0.00    +0.075 A 
ATOM     18  N   UNL     1       2.051  -3.757   0.000  0.00  0.00    -0.247 NA
ENDBRANCH  12  17
ENDBRANCH   1  12
TORSDOF 3
