REMARK  Name = 
REMARK  2 active torsions:
REMARK  status: ('A' for Active; 'I' for Inactive)
REMARK    1  A    between atoms: N_3  and  C_4
REMARK    2  A    between atoms: C_4  and  C_5
REMARK                            x       y       z     vdW  Elec       q    Type
REMARK                         _______ _______ _______ _____ _____    ______ ____
ROOT
ATOM      1  O   UNL     1       2.143  -3.712   0.000  0.00  0.00    -0.249 OA
ATOM      2  C   UNL     1       2.143  -2.888   0.000  0.00  0.00    +0.345 C 
ATOM      3  N   UNL     1       2.858  -2.475   0.000  0.00  0.00    -0.142 NA
ATOM      4  C   UNL     1       3.572  -2.888   0.000  0.00  0.00    +0.156 A 
ATOM      5  N   UNL     1       3.572  -3.712   0.000  0.00  0.00    -0.227 NA
ATOM      6  C   UNL     1       4.287  -4.125   0.000  0.00  0.00    +0.100 A 
ATOM      7  C   UNL     1       5.001  -3.712   0.000  0.00  0.00    +0.021 A 
ATOM      8  C   UNL     1       5.001  -2.888   0.000  0.00  0.00    +0.005 A 
ATOM      9  C   UNL     1       4.287  -2.475   0.000  0.00  0.00    +0.036 A 
ATOM     10  N   UNL     1       1.429  -2.475   0.000  0.00  0.00    -0.187 NA
ENDROOT
BRANCH  10  11
ATOM     11  C   UNL     1       0.715  -2.888   0.000  0.00  0.00    +0.119 C 
BRANCH  11  12
ATOM     12  C   UNL     1       0.000  -2.475   0.000  0.00  0.00    +0.054 C 
ATOM     13  C   UNL     1      -0.086  -1.655   0.000  0.00  0.00    +0.144 C 
ATOM     14  O   UNL     1      -0.893  -1.483   0.000  0.00  0.00    -0.354 OA
ATOM     15  C   UNL     1      -1.306  -2.197   0.000  0.00  0.00    +0.142 C 
ATOM     16  C   UNL     1      -0.754  -2.811   0.000  0.00  0.00    +0.036 C 
ENDBRANCH  11  12
ENDBRANCH  10  11
TORSDOF 2
