REMARK  Name = 
REMARK  5 active torsions:
REMARK  status: ('A' for Active; 'I' for Inactive)
REMARK    1  A    between atoms: C_4  and  C_5
REMARK    2  A    between atoms: C_5  and  C_6
REMARK    3  A    between atoms: C_6  and  N_7
REMARK    4  A    between atoms: N_10  and  C_11
REMARK    5  A    between atoms: C_11  and  C_12
REMARK                            x       y       z     vdW  Elec       q    Type
REMARK                         _______ _______ _______ _____ _____    ______ ____
ROOT
ATOM      1  N   UNL     1       3.878  -3.364   0.000  0.00  0.00    -0.187 NA
ATOM      2  C   UNL     1       4.592  -2.952   0.000  0.00  0.00    +0.339 C 
ATOM      3  N   UNL     1       5.307  -3.364   0.000  0.00  0.00    -0.187 NA
ATOM      4  O   UNL     1       4.592  -2.127   0.000  0.00  0.00    -0.249 OA
ENDROOT
BRANCH   1   5
ATOM      5  C   UNL     1       3.163  -2.952   0.000  0.00  0.00    +0.122 C 
BRANCH   5   6
ATOM      6  C   UNL     1       2.449  -3.364   0.000  0.00  0.00    +0.053 C 
BRANCH   6  11
ATOM      7  C   UNL     1       0.506  -1.206   0.000  0.00  0.00    +0.154 C 
ATOM      8  N   UNL     1       0.841  -1.960   0.000  0.00  0.00    -0.248 N 
ATOM      9  N   UNL     1       0.429  -2.674   0.000  0.00  0.00    -0.168 NA
ATOM     10  C   UNL     1       0.981  -3.287   0.000  0.00  0.00    +0.117 A 
ATOM     11  C   UNL     1       1.734  -2.952   0.000  0.00  0.00    +0.019 A 
ATOM     12  C   UNL     1       1.648  -2.131   0.000  0.00  0.00    +0.092 A 
ENDBRANCH   6  11
ENDBRANCH   5   6
ENDBRANCH   1   5
BRANCH   3  13
ATOM     13  C   UNL     1       6.021  -2.952   0.000  0.00  0.00    +0.119 C 
BRANCH  13  14
ATOM     14  C   UNL     1       6.736  -3.364   0.000  0.00  0.00    +0.054 C 
ATOM     15  C   UNL     1       6.822  -4.185   0.000  0.00  0.00    +0.144 C 
ATOM     16  O   UNL     1       7.629  -4.356   0.000  0.00  0.00    -0.354 OA
ATOM     17  C   UNL     1       8.041  -3.642   0.000  0.00  0.00    +0.142 C 
ATOM     18  C   UNL     1       7.489  -3.029   0.000  0.00  0.00    +0.036 C 
ENDBRANCH  13  14
ENDBRANCH   3  13
TORSDOF 5
