REMARK  Name = 
REMARK  5 active torsions:
REMARK  status: ('A' for Active; 'I' for Inactive)
REMARK    1  A    between atoms: C_2  and  C_3
REMARK    2  A    between atoms: C_2  and  N_15
REMARK    3  A    between atoms: C_3  and  N_4
REMARK    4  A    between atoms: C_5  and  C_7
REMARK    5  A    between atoms: C_7  and  C_8
REMARK                            x       y       z     vdW  Elec       q    Type
REMARK                         _______ _______ _______ _____ _____    ______ ____
ROOT
ATOM      1  N   UNL     1       2.469  -1.040   0.000  0.00  0.00    -0.204 NA
ATOM      2  C   UNL     1       3.183  -0.627   0.000  0.00  0.00    +0.246 C 
ATOM      3  O   UNL     1       3.183   0.198   0.000  0.00  0.00    -0.273 OA
ENDROOT
BRANCH   1   4
ATOM      4  C   UNL     1       1.754  -0.627   0.000  0.00  0.00    +0.131 C 
BRANCH   4   6
ATOM      5  C   UNL     1       1.040  -1.865   0.000  0.00  0.00    +0.019 C 
ATOM      6  C   UNL     1       1.040  -1.040   0.000  0.00  0.00    +0.079 C 
BRANCH   6   7
ATOM      7  N   UNL     1       0.325  -0.627   0.000  0.00  0.00    -0.272 NA
ATOM      8  C   UNL     1       0.239   0.193   0.000  0.00  0.00    +0.072 C 
ATOM      9  C   UNL     1      -0.568   0.365   0.000  0.00  0.00    +0.019 C 
ATOM     10  C   UNL     1      -0.981  -0.349   0.000  0.00  0.00    +0.019 C 
ATOM     11  C   UNL     1      -0.429  -0.963   0.000  0.00  0.00    +0.072 C 
ENDBRANCH   6   7
ENDBRANCH   4   6
ENDBRANCH   1   4
BRANCH   2  12
ATOM     12  C   UNL     1       3.897  -1.040   0.000  0.00  0.00    +0.117 C 
BRANCH  12  13
ATOM     13  C   UNL     1       4.612  -0.627   0.000  0.00  0.00    +0.037 A 
ATOM     14  C   UNL     1       5.366  -0.963   0.000  0.00  0.00    +0.151 A 
ATOM     15  C   UNL     1       5.537  -1.770   0.000  0.00  0.00    +0.075 C 
ATOM     16  O   UNL     1       5.918  -0.349   0.000  0.00  0.00    -0.358 OA
ATOM     17  N   UNL     1       5.505   0.365   0.000  0.00  0.00    -0.082 NA
ATOM     18  C   UNL     1       4.698   0.193   0.000  0.00  0.00    +0.097 A 
ATOM     19  C   UNL     1       4.085   0.746   0.000  0.00  0.00    +0.055 C 
ENDBRANCH  12  13
ENDBRANCH   2  12
TORSDOF 5
