REMARK  Name = 
REMARK  4 active torsions:
REMARK  status: ('A' for Active; 'I' for Inactive)
REMARK    1  A    between atoms: C_2  and  N_3
REMARK    2  A    between atoms: N_5  and  C_6
REMARK    3  A    between atoms: N_8  and  C_9
REMARK    4  A    between atoms: C_9  and  C_10
REMARK                            x       y       z     vdW  Elec       q    Type
REMARK                         _______ _______ _______ _____ _____    ______ ____
ROOT
ATOM      1  C   UNL     1       0.715  -1.238   0.000  0.00  0.00    +0.040 A 
ATOM      2  C   UNL     1       0.000  -1.650   0.000  0.00  0.00    +0.099 A 
ATOM      3  N   UNL     1       0.000  -2.475   0.000  0.00  0.00    -0.229 NA
ATOM      4  C   UNL     1       0.715  -2.888   0.000  0.00  0.00    +0.132 A 
ATOM      5  N   UNL     1       0.715  -3.712   0.000  0.00  0.00    -0.288 N 
ATOM      6  C   UNL     1       0.000  -4.125   0.000  0.00  0.00    +0.122 C 
ATOM      7  C   UNL     1       0.000  -4.950   0.000  0.00  0.00    +0.135 C 
ATOM      8  C   UNL     1      -0.715  -5.362   0.000  0.00  0.00    +0.034 C 
ATOM      9  O   UNL     1       0.715  -5.362   0.000  0.00  0.00    -0.353 OA
ATOM     10  C   UNL     1       1.429  -4.950   0.000  0.00  0.00    +0.163 C 
ATOM     11  C   UNL     1       1.429  -4.125   0.000  0.00  0.00    +0.124 C 
ATOM     12  C   UNL     1       1.429  -2.475   0.000  0.00  0.00    +0.034 A 
ATOM     13  C   UNL     1       1.429  -1.650   0.000  0.00  0.00    +0.004 A 
ENDROOT
BRANCH   1  14
ATOM     14  C   UNL     1       0.715  -0.412   0.000  0.00  0.00    +0.248 C 
BRANCH  14  17
ATOM     15  N   UNL     1       0.715   1.238   0.000  0.00  0.00    -0.092 NA
ATOM     16  C   UNL     1       0.000   0.825   0.000  0.00  0.00    +0.455 C 
ATOM     17  N   UNL     1       0.000   0.000   0.000  0.00  0.00    -0.087 NA
ATOM     18  N   UNL     1      -0.715   1.238   0.000  0.00  0.00    -0.092 NA
BRANCH  15  20
ATOM     19  C   UNL     1       1.429   2.475   0.000  0.00  0.00    +0.051 C 
ATOM     20  C   UNL     1       0.715   2.062   0.000  0.00  0.00    +0.220 C 
ENDBRANCH  15  20
BRANCH  18  21
ATOM     21  C   UNL     1      -0.715   2.062   0.000  0.00  0.00    +0.220 C 
ATOM     22  C   UNL     1      -1.429   2.475   0.000  0.00  0.00    +0.051 C 
ENDBRANCH  18  21
ENDBRANCH  14  17
ENDBRANCH   1  14
TORSDOF 4
