REMARK  Name = 
REMARK  2 active torsions:
REMARK  status: ('A' for Active; 'I' for Inactive)
REMARK    1  A    between atoms: C_5  and  C_7
REMARK    2  A    between atoms: C_7  and  N_8
REMARK                            x       y       z     vdW  Elec       q    Type
REMARK                         _______ _______ _______ _____ _____    ______ ____
ROOT
ATOM      1  N   UNL     1       0.963   2.645   0.000  0.00  0.00    -0.184 NA
ATOM      2  C   UNL     1       1.677   2.232   0.000  0.00  0.00    +0.345 C 
ATOM      3  N   UNL     1       2.392   2.645   0.000  0.00  0.00    -0.136 NA
ATOM      4  C   UNL     1       3.106   2.232   0.000  0.00  0.00    +0.187 A 
ATOM      5  S   UNL     1       3.192   1.412   0.000  0.00  0.00    -0.049 S 
ATOM      6  C   UNL     1       3.999   1.240   0.000  0.00  0.00    +0.053 A 
ATOM      7  C   UNL     1       4.412   1.955   0.000  0.00  0.00    +0.068 A 
ATOM      8  C   UNL     1       5.232   2.041   0.000  0.00  0.00    +0.053 C 
ATOM      9  N   UNL     1       3.860   2.568   0.000  0.00  0.00    -0.227 NA
ATOM     10  O   UNL     1       1.677   1.407   0.000  0.00  0.00    -0.249 OA
ENDROOT
BRANCH   1  11
ATOM     11  C   UNL     1       0.248   2.232   0.000  0.00  0.00    +0.147 C 
BRANCH  11  16
ATOM     12  C   UNL     1      -2.904   2.215   0.000  0.00  0.00    +0.090 C 
ATOM     13  N   UNL     1      -2.091   2.358   0.000  0.00  0.00    -0.271 NA
ATOM     14  C   UNL     1      -1.561   1.726   0.000  0.00  0.00    +0.075 C 
ATOM     15  C   UNL     1      -0.749   1.869   0.000  0.00  0.00    +0.050 C 
ATOM     16  C   UNL     1      -0.466   2.645   0.000  0.00  0.00    +0.149 C 
ATOM     17  O   UNL     1       0.064   3.277   0.000  0.00  0.00    -0.224 OA
ATOM     18  C   UNL     1      -0.997   3.277   0.000  0.00  0.00    +0.050 C 
ATOM     19  C   UNL     1      -1.809   3.134   0.000  0.00  0.00    +0.075 C 
ENDBRANCH  11  16
ENDBRANCH   1  11
TORSDOF 2
