REMARK  Name = 
REMARK  5 active torsions:
REMARK  status: ('A' for Active; 'I' for Inactive)
REMARK    1  A    between atoms: C_7  and  C_8
REMARK    2  A    between atoms: C_8  and  N_9
REMARK    3  A    between atoms: N_9  and  C_10
REMARK    4  A    between atoms: C_10  and  C_11
REMARK    5  A    between atoms: C_11  and  N_12
REMARK                            x       y       z     vdW  Elec       q    Type
REMARK                         _______ _______ _______ _____ _____    ______ ____
ROOT
ATOM      1  C   UNL     1       2.143  -0.412   0.000  0.00  0.00    +0.089 C 
ENDROOT
BRANCH   1   4
ATOM      2  C   UNL     1       0.715  -1.238   0.000  0.00  0.00    +0.000 C 
ATOM      3  C   UNL     1       0.715  -0.412   0.000  0.00  0.00    +0.001 C 
ATOM      4  C   UNL     1       1.429   0.000   0.000  0.00  0.00    +0.017 C 
ATOM      5  C   UNL     1       1.429   0.825   0.000  0.00  0.00    +0.001 C 
ATOM      6  C   UNL     1       0.715   1.238   0.000  0.00  0.00    +0.000 C 
ATOM      7  C   UNL     1       0.000   0.825   0.000  0.00  0.00    +0.000 C 
ATOM      8  C   UNL     1       0.000   0.000   0.000  0.00  0.00    +0.000 C 
ENDBRANCH   1   4
BRANCH   1   9
ATOM      9  N   UNL     1       2.858   0.000   0.000  0.00  0.00    -0.216 NA
BRANCH   9  10
ATOM     10  C   UNL     1       3.572  -0.412   0.000  0.00  0.00    +0.113 C 
BRANCH  10  11
ATOM     11  C   UNL     1       4.287   0.000   0.000  0.00  0.00    +0.126 C 
BRANCH  11  12
ATOM     12  N   UNL     1       5.001  -0.412   0.000  0.00  0.00    -0.306 N 
ATOM     13  C   UNL     1       5.088  -1.233   0.000  0.00  0.00    +0.179 A 
ATOM     14  N   UNL     1       5.894  -1.405   0.000  0.00  0.00    -0.222 NA
ATOM     15  C   UNL     1       6.307  -0.690   0.000  0.00  0.00    +0.119 A 
ATOM     16  C   UNL     1       5.755  -0.077   0.000  0.00  0.00    +0.098 A 
ENDBRANCH  11  12
ENDBRANCH  10  11
ENDBRANCH   9  10
ENDBRANCH   1   9
TORSDOF 5
