REMARK  Name = 
REMARK  4 active torsions:
REMARK  status: ('A' for Active; 'I' for Inactive)
REMARK    1  A    between atoms: C_2  and  O_3
REMARK    2  A    between atoms: O_3  and  C_4
REMARK    3  A    between atoms: C_4  and  C_5
REMARK    4  A    between atoms: C_5  and  N_6
REMARK                            x       y       z     vdW  Elec       q    Type
REMARK                         _______ _______ _______ _____ _____    ______ ____
ROOT
ATOM      1  N   UNL     1       6.351  -0.410   0.000  0.00  0.00    -0.292 N 
ATOM      2  C   UNL     1       7.105  -0.745   0.000  0.00  0.00    +0.155 A 
ATOM      3  C   UNL     1       7.657  -0.132   0.000  0.00  0.00    +0.171 A 
ATOM      4  N   UNL     1       8.464  -0.304   0.000  0.00  0.00    -0.261 N 
ATOM      5  C   UNL     1       8.719  -1.088   0.000  0.00  0.00    +0.354 A 
ATOM      6  N   UNL     1       8.167  -1.701   0.000  0.00  0.00    -0.152 NA
ATOM      7  O   UNL     1       9.526  -1.260   0.000  0.00  0.00    -0.244 OA
ATOM      8  C   UNL     1       9.016   0.309   0.000  0.00  0.00    +0.137 C 
ATOM      9  N   UNL     1       7.245   0.582   0.000  0.00  0.00    -0.196 NA
ATOM     10  C   UNL     1       7.360  -1.530   0.000  0.00  0.00    +0.302 A 
ATOM     11  O   UNL     1       6.808  -2.143   0.000  0.00  0.00    -0.263 OA
ATOM     12  C   UNL     1       6.438   0.411   0.000  0.00  0.00    +0.203 A 
ATOM     13  N   UNL     1       5.825   0.963   0.000  0.00  0.00    -0.279 N 
ATOM     14  C   UNL     1       5.996   1.770   0.000  0.00  0.00    +0.093 C 
ATOM     15  C   UNL     1       5.383   2.322   0.000  0.00  0.00    +0.020 C 
ATOM     16  C   UNL     1       5.554   3.129   0.000  0.00  0.00    +0.002 C 
ATOM     17  C   UNL     1       4.598   2.067   0.000  0.00  0.00    +0.003 C 
ATOM     18  C   UNL     1       4.427   1.260   0.000  0.00  0.00    +0.020 C 
ATOM     19  C   UNL     1       3.642   1.005   0.000  0.00  0.00    +0.002 C 
ATOM     20  C   UNL     1       5.040   0.708   0.000  0.00  0.00    +0.093 C 
ENDROOT
BRANCH   1  21
ATOM     21  C   UNL     1       5.637  -0.822   0.000  0.00  0.00    +0.141 C 
BRANCH  21  22
ATOM     22  C   UNL     1       4.923  -0.410   0.000  0.00  0.00    +0.167 C 
BRANCH  22  23
ATOM     23  O   UNL     1       4.208  -0.822   0.000  0.00  0.00    -0.352 OA
BRANCH  23  25
ATOM     24  C   UNL     1       2.779  -0.822   0.000  0.00  0.00    +0.035 C 
ATOM     25  C   UNL     1       3.494  -0.410   0.000  0.00  0.00    +0.142 C 
ENDBRANCH  23  25
ENDBRANCH  22  23
ENDBRANCH  21  22
ENDBRANCH   1  21
TORSDOF 4
