REMARK  Name = 
REMARK  4 active torsions:
REMARK  status: ('A' for Active; 'I' for Inactive)
REMARK    1  A    between atoms: C_2  and  C_12
REMARK    2  A    between atoms: N_3  and  C_4
REMARK    3  A    between atoms: C_4  and  C_5
REMARK    4  A    between atoms: C_5  and  C_6
REMARK                            x       y       z     vdW  Elec       q    Type
REMARK                         _______ _______ _______ _____ _____    ______ ____
ROOT
ATOM      1  C   UNL     1      -1.429  -1.650   0.000  0.00  0.00    +0.098 C 
ATOM      2  C   UNL     1      -2.143  -1.238   0.000  0.00  0.00    +0.104 C 
ATOM      3  N   UNL     1      -2.858  -1.650   0.000  0.00  0.00    -0.264 N 
ATOM      4  C   UNL     1      -3.572  -1.238   0.000  0.00  0.00    +0.307 C 
ATOM      5  N   UNL     1      -4.287  -1.650   0.000  0.00  0.00    -0.264 N 
ATOM      6  C   UNL     1      -5.040  -1.314   0.000  0.00  0.00    +0.095 C 
ATOM      7  C   UNL     1      -5.593  -1.927   0.000  0.00  0.00    +0.023 C 
ATOM      8  C   UNL     1      -5.180  -2.642   0.000  0.00  0.00    +0.023 C 
ATOM      9  C   UNL     1      -4.373  -2.470   0.000  0.00  0.00    +0.095 C 
ATOM     10  O   UNL     1      -3.572  -0.412   0.000  0.00  0.00    -0.252 OA
ATOM     11  C   UNL     1      -2.858  -2.475   0.000  0.00  0.00    +0.095 C 
ATOM     12  C   UNL     1      -2.143  -2.888   0.000  0.00  0.00    +0.022 C 
ATOM     13  C   UNL     1      -1.429  -2.475   0.000  0.00  0.00    +0.013 C 
ENDROOT
BRANCH   1  15
ATOM     14  O   UNL     1      -0.715  -0.412   0.000  0.00  0.00    -0.273 OA
ATOM     15  C   UNL     1      -0.715  -1.238   0.000  0.00  0.00    +0.243 C 
ATOM     16  N   UNL     1       0.000  -1.650   0.000  0.00  0.00    -0.205 NA
BRANCH  16  17
ATOM     17  C   UNL     1       0.715  -1.238   0.000  0.00  0.00    +0.121 C 
BRANCH  17  18
ATOM     18  C   UNL     1       1.429  -1.650   0.000  0.00  0.00    +0.069 C 
BRANCH  18  19
ATOM     19  C   UNL     1       2.143  -1.238   0.000  0.00  0.00    +0.061 A 
ATOM     20  N   UNL     1       2.858  -1.650   0.000  0.00  0.00    -0.248 NA
ATOM     21  C   UNL     1       3.572  -1.238   0.000  0.00  0.00    +0.098 A 
ATOM     22  C   UNL     1       3.572  -0.412   0.000  0.00  0.00    +0.021 A 
ATOM     23  C   UNL     1       2.858   0.000   0.000  0.00  0.00    +0.003 A 
ATOM     24  C   UNL     1       2.143  -0.412   0.000  0.00  0.00    +0.015 A 
ENDBRANCH  18  19
ENDBRANCH  17  18
ENDBRANCH  16  17
ENDBRANCH   1  15
TORSDOF 4
