REMARK  Name = 
REMARK  2 active torsions:
REMARK  status: ('A' for Active; 'I' for Inactive)
REMARK    1  A    between atoms: N_1  and  C_4
REMARK    2  A    between atoms: C_12  and  C_15
REMARK                            x       y       z     vdW  Elec       q    Type
REMARK                         _______ _______ _______ _____ _____    ______ ____
ROOT
ATOM      1  N   UNL     1       0.714   4.295   0.000  0.00  0.00    -0.256 N 
ATOM      2  C   UNL     1       1.428   4.708   0.000  0.00  0.00    +0.085 A 
ATOM      3  C   UNL     1       1.428   5.535   0.000  0.00  0.00    +0.057 A 
ATOM      4  C   UNL     1       0.714   5.948   0.000  0.00  0.00    +0.176 A 
ATOM      5  N   UNL     1       0.714   6.775   0.000  0.00  0.00    -0.107 NA
ATOM      6  N   UNL     1       0.000   5.535   0.000  0.00  0.00    -0.174 NA
ATOM      7  C   UNL     1       0.000   4.708   0.000  0.00  0.00    +0.353 A 
ATOM      8  O   UNL     1      -0.718   4.295   0.000  0.00  0.00    -0.244 OA
ENDROOT
BRANCH   1   9
ATOM      9  C   UNL     1       0.714   3.473   0.000  0.00  0.00    +0.208 C 
ATOM     10  C   UNL     1       1.382   2.989   0.000  0.00  0.00    +0.057 C 
ATOM     11  C   UNL     1       1.127   2.204   0.000  0.00  0.00    +0.037 C 
ATOM     12  C   UNL     1       0.300   2.204   0.000  0.00  0.00    +0.150 C 
ATOM     13  O   UNL     1       0.046   2.989   0.000  0.00  0.00    -0.335 OA
BRANCH  12  14
ATOM     14  C   UNL     1      -0.184   1.532   0.000  0.00  0.00    +0.211 C 
ATOM     15  O   UNL     1       0.150   0.781   0.000  0.00  0.00    -0.218 OA
ENDBRANCH  12  14
ENDBRANCH   1   9
TORSDOF 2
