REMARK  Name = 
REMARK  1 active torsions:
REMARK  status: ('A' for Active; 'I' for Inactive)
REMARK    1  A    between atoms: N_8  and  C_10
REMARK                            x       y       z     vdW  Elec       q    Type
REMARK                         _______ _______ _______ _____ _____    ______ ____
ROOT
ATOM      1  N   UNL     1       1.429   0.825   0.000  0.00  0.00    -0.068 NA
ATOM      2  C   UNL     1       1.429   0.000   0.000  0.00  0.00    +0.366 C 
ATOM      3  N   UNL     1       0.715  -0.412   0.000  0.00  0.00    -0.122 NA
ATOM      4  C   UNL     1       0.715  -1.238   0.000  0.00  0.00    +0.263 A 
ATOM      5  N   UNL     1       0.047  -1.722   0.000  0.00  0.00    -0.130 NA
ATOM      6  N   UNL     1       0.302  -2.507   0.000  0.00  0.00    -0.231 N 
ATOM      7  C   UNL     1       1.127  -2.507   0.000  0.00  0.00    +0.198 A 
ATOM      8  N   UNL     1       1.382  -1.722   0.000  0.00  0.00    -0.189 NA
ATOM      9  O   UNL     1       2.143  -0.412   0.000  0.00  0.00    -0.247 OA
ENDROOT
BRANCH   6  10
ATOM     10  C   UNL     1      -0.183  -3.175   0.000  0.00  0.00    +0.107 C 
ATOM     11  C   UNL     1      -1.003  -3.088   0.000  0.00  0.00    +0.024 C 
ATOM     12  C   UNL     1      -1.488  -3.756   0.000  0.00  0.00    +0.002 C 
ATOM     13  C   UNL     1      -1.153  -4.509   0.000  0.00  0.00    +0.000 C 
ATOM     14  C   UNL     1      -0.332  -4.596   0.000  0.00  0.00    +0.002 C 
ATOM     15  C   UNL     1       0.153  -3.928   0.000  0.00  0.00    +0.024 C 
ENDBRANCH   6  10
TORSDOF 1
