REMARK  Name = 
REMARK  5 active torsions:
REMARK  status: ('A' for Active; 'I' for Inactive)
REMARK    1  A    between atoms: C_2  and  N_3
REMARK    2  A    between atoms: C_2  and  C_10
REMARK    3  A    between atoms: N_3  and  C_4
REMARK    4  A    between atoms: C_4  and  C_5
REMARK    5  A    between atoms: C_10  and  N_12
REMARK                            x       y       z     vdW  Elec       q    Type
REMARK                         _______ _______ _______ _____ _____    ______ ____
ROOT
ATOM      1  C   UNL     1       2.816  -3.233   0.000  0.00  0.00    +0.021 C 
ATOM      2  C   UNL     1       2.816  -2.408   0.000  0.00  0.00    +0.095 C 
ENDROOT
BRANCH   2   3
ATOM      3  C   UNL     1       3.530  -1.996   0.000  0.00  0.00    +0.121 C 
ATOM      4  C   UNL     1       3.530  -1.171   0.000  0.00  0.00    +0.028 C 
BRANCH   3   5
ATOM      5  N   UNL     1       4.245  -2.408   0.000  0.00  0.00    -0.250 N 
ATOM      6  N   UNL     1       4.331  -3.229   0.000  0.00  0.00    -0.168 NA
ATOM      7  C   UNL     1       5.138  -3.400   0.000  0.00  0.00    +0.122 A 
ATOM      8  C   UNL     1       5.551  -2.686   0.000  0.00  0.00    +0.043 A 
ATOM      9  C   UNL     1       4.999  -2.073   0.000  0.00  0.00    +0.097 A 
ENDBRANCH   3   5
ENDBRANCH   2   3
BRANCH   2  10
ATOM     10  N   UNL     1       2.102  -1.996   0.000  0.00  0.00    -0.217 NA
BRANCH  10  11
ATOM     11  C   UNL     1       1.387  -2.408   0.000  0.00  0.00    +0.089 C 
BRANCH  11  12
ATOM     12  C   UNL     1       0.672  -1.996   0.000  0.00  0.00    +0.017 C 
ATOM     13  C   UNL     1       0.586  -1.175   0.000  0.00  0.00    +0.001 C 
ATOM     14  C   UNL     1      -0.221  -1.004   0.000  0.00  0.00    +0.000 C 
ATOM     15  C   UNL     1      -0.633  -1.718   0.000  0.00  0.00    +0.000 C 
ATOM     16  C   UNL     1      -0.081  -2.331   0.000  0.00  0.00    +0.001 C 
ENDBRANCH  11  12
ENDBRANCH  10  11
ENDBRANCH   2  10
TORSDOF 5
