REMARK  Name = 
REMARK  4 active torsions:
REMARK  status: ('A' for Active; 'I' for Inactive)
REMARK    1  A    between atoms: C_2  and  C_3
REMARK    2  A    between atoms: N_11  and  C_12
REMARK    3  A    between atoms: C_12  and  C_13
REMARK    4  A    between atoms: C_13  and  C_15
REMARK                            x       y       z     vdW  Elec       q    Type
REMARK                         _______ _______ _______ _____ _____    ______ ____
ROOT
ATOM      1  C   UNL     1       0.654  -0.698   0.000  0.00  0.00    +0.154 A 
ATOM      2  N   UNL     1       1.139  -1.365   0.000  0.00  0.00    -0.310 N 
ATOM      3  C   UNL     1       1.923  -1.110   0.000  0.00  0.00    +0.079 A 
ATOM      4  C   UNL     1       1.923  -0.285   0.000  0.00  0.00    +0.098 A 
ATOM      5  C   UNL     1       2.638   0.127   0.000  0.00  0.00    +0.021 A 
ATOM      6  C   UNL     1       3.352  -0.285   0.000  0.00  0.00    +0.002 A 
ATOM      7  C   UNL     1       3.352  -1.110   0.000  0.00  0.00    +0.002 A 
ATOM      8  C   UNL     1       2.638  -1.523   0.000  0.00  0.00    +0.019 A 
ATOM      9  N   UNL     1       1.139  -0.030   0.000  0.00  0.00    -0.228 NA
ENDROOT
BRANCH   1  11
ATOM     10  O   UNL     1      -0.584  -1.412   0.000  0.00  0.00    -0.212 OA
ATOM     11  C   UNL     1      -0.171  -0.698   0.000  0.00  0.00    +0.245 C 
ENDBRANCH   1  11
BRANCH   2  12
ATOM     12  C   UNL     1       0.884  -2.150   0.000  0.00  0.00    +0.145 C 
BRANCH  12  13
ATOM     13  C   UNL     1       1.436  -2.763   0.000  0.00  0.00    +0.198 C 
ATOM     14  O   UNL     1       2.243  -2.592   0.000  0.00  0.00    -0.216 OA
BRANCH  13  15
ATOM     15  C   UNL     1       1.181  -3.548   0.000  0.00  0.00    +0.021 A 
ATOM     16  C   UNL     1       0.374  -3.719   0.000  0.00  0.00    +0.056 A 
ATOM     17 CL   UNL     1      -0.178  -3.106   0.000  0.00  0.00    -0.082 Cl
ATOM     18  C   UNL     1       0.119  -4.504   0.000  0.00  0.00    +0.012 A 
ATOM     19  C   UNL     1       0.671  -5.117   0.000  0.00  0.00    +0.012 A 
ATOM     20  C   UNL     1       1.478  -4.945   0.000  0.00  0.00    +0.057 A 
ATOM     21 CL   UNL     1       2.030  -5.559   0.000  0.00  0.00    -0.082 Cl
ATOM     22  C   UNL     1       1.733  -4.161   0.000  0.00  0.00    +0.010 A 
ENDBRANCH  13  15
ENDBRANCH  12  13
ENDBRANCH   2  12
TORSDOF 4
