REMARK  Name = 
REMARK  6 active torsions:
REMARK  status: ('A' for Active; 'I' for Inactive)
REMARK    1  A    between atoms: C_2  and  C_4
REMARK    2  A    between atoms: C_4  and  N_5
REMARK    3  A    between atoms: C_9  and  C_10
REMARK    4  A    between atoms: C_10  and  N_11
REMARK    5  A    between atoms: N_11  and  C_12
REMARK    6  A    between atoms: C_17  and  C_18
REMARK                            x       y       z     vdW  Elec       q    Type
REMARK                         _______ _______ _______ _____ _____    ______ ____
ROOT
ATOM      1  N   UNL     1       1.429  -2.475   0.000  0.00  0.00    -0.268 NA
ATOM      2  C   UNL     1       0.715  -2.888   0.000  0.00  0.00    +0.104 C 
ATOM      3  C   UNL     1       0.715  -3.712   0.000  0.00  0.00    +0.153 C 
ATOM      4  O   UNL     1       1.429  -4.125   0.000  0.00  0.00    -0.352 OA
ATOM      5  C   UNL     1       2.143  -3.712   0.000  0.00  0.00    +0.159 C 
ATOM      6  C   UNL     1       2.143  -2.888   0.000  0.00  0.00    +0.105 C 
ENDROOT
BRANCH   1   7
ATOM      7  C   UNL     1       1.429  -1.650   0.000  0.00  0.00    +0.072 C 
BRANCH   7   9
ATOM      8  C   UNL     1       2.143  -0.412   0.000  0.00  0.00    +0.001 C 
ATOM      9  C   UNL     1       2.143  -1.238   0.000  0.00  0.00    +0.016 C 
ATOM     10  C   UNL     1       2.858  -1.650   0.000  0.00  0.00    +0.001 C 
ENDBRANCH   7   9
ENDBRANCH   1   7
BRANCH   3  11
ATOM     11  C   UNL     1       0.000  -4.125   0.000  0.00  0.00    +0.145 C 
BRANCH  11  12
ATOM     12  N   UNL     1       0.000  -4.950   0.000  0.00  0.00    -0.217 NA
BRANCH  12  13
ATOM     13  C   UNL     1      -0.715  -5.362   0.000  0.00  0.00    +0.157 A 
ATOM     14  C   UNL     1      -1.429  -4.950   0.000  0.00  0.00    +0.101 A 
ATOM     15  C   UNL     1      -2.143  -5.362   0.000  0.00  0.00    +0.015 A 
ATOM     16  C   UNL     1      -2.143  -6.188   0.000  0.00  0.00    +0.021 A 
ATOM     17  C   UNL     1      -1.429  -6.600   0.000  0.00  0.00    +0.100 A 
ATOM     18  N   UNL     1      -0.715  -6.188   0.000  0.00  0.00    -0.227 NA
BRANCH  14  19
ATOM     19  C   UNL     1      -1.429  -4.125   0.000  0.00  0.00    +0.103 C 
ATOM     20  N   UNL     1      -1.429  -3.300   0.000  0.00  0.00    -0.191 NA
ENDBRANCH  14  19
ENDBRANCH  12  13
ENDBRANCH  11  12
ENDBRANCH   3  11
TORSDOF 6
