REMARK  Name = 
REMARK  7 active torsions:
REMARK  status: ('A' for Active; 'I' for Inactive)
REMARK    1  A    between atoms: O_2  and  C_3
REMARK    2  A    between atoms: C_3  and  C_4
REMARK    3  A    between atoms: C_4  and  N_5
REMARK    4  A    between atoms: C_7  and  C_12
REMARK    5  A    between atoms: N_14  and  C_15
REMARK    6  A    between atoms: C_15  and  C_16
REMARK    7  A    between atoms: C_16  and  N_17
REMARK                            x       y       z     vdW  Elec       q    Type
REMARK                         _______ _______ _______ _____ _____    ______ ____
ROOT
ATOM      1  C   UNL     1       0.715  -2.888   0.000  0.00  0.00    +0.284 C 
ATOM      2  N   UNL     1       1.429  -2.475   0.000  0.00  0.00    -0.199 NA
ATOM      3  O   UNL     1       0.715  -3.712   0.000  0.00  0.00    -0.267 OA
ENDROOT
BRANCH   1   9
ATOM      4  N   UNL     1      -0.715  -1.238   0.000  0.00  0.00    -0.214 N 
ATOM      5  C   UNL     1      -1.429  -1.650   0.000  0.00  0.00    +0.277 A 
ATOM      6  O   UNL     1      -2.143  -1.238   0.000  0.00  0.00    -0.266 OA
ATOM      7  C   UNL     1      -1.429  -2.475   0.000  0.00  0.00    +0.064 A 
ATOM      8  C   UNL     1      -0.715  -2.888   0.000  0.00  0.00    +0.030 A 
ATOM      9  C   UNL     1       0.000  -2.475   0.000  0.00  0.00    +0.156 A 
ATOM     10  N   UNL     1       0.000  -1.650   0.000  0.00  0.00    -0.162 NA
BRANCH   4  11
ATOM     11  C   UNL     1      -0.715  -0.412   0.000  0.00  0.00    +0.163 C 
BRANCH  11  12
ATOM     12  C   UNL     1      -1.429   0.000   0.000  0.00  0.00    +0.169 C 
BRANCH  12  14
ATOM     13  C   UNL     1      -2.143   1.238   0.000  0.00  0.00    +0.174 C 
ATOM     14  O   UNL     1      -1.429   0.825   0.000  0.00  0.00    -0.349 OA
ENDBRANCH  12  14
ENDBRANCH  11  12
ENDBRANCH   4  11
ENDBRANCH   1   9
BRANCH   2  15
ATOM     15  C   UNL     1       2.143  -2.888   0.000  0.00  0.00    +0.133 C 
BRANCH  15  16
ATOM     16  C   UNL     1       2.858  -2.475   0.000  0.00  0.00    +0.096 C 
BRANCH  16  17
ATOM     17  N   UNL     1       3.572  -2.888   0.000  0.00  0.00    -0.272 NA
ATOM     18  C   UNL     1       3.572  -3.712   0.000  0.00  0.00    +0.058 C 
ATOM     19  C   UNL     1       2.858  -4.125   0.000  0.00  0.00    +0.017 C 
ATOM     20  C   UNL     1       4.287  -4.125   0.000  0.00  0.00    +0.016 C 
ATOM     21  C   UNL     1       5.001  -3.712   0.000  0.00  0.00    +0.003 C 
ATOM     22  C   UNL     1       5.001  -2.888   0.000  0.00  0.00    +0.017 C 
ATOM     23  C   UNL     1       4.287  -2.475   0.000  0.00  0.00    +0.072 C 
ENDBRANCH  16  17
ENDBRANCH  15  16
ENDBRANCH   2  15
TORSDOF 7
