REMARK  Name = 
REMARK  4 active torsions:
REMARK  status: ('A' for Active; 'I' for Inactive)
REMARK    1  A    between atoms: C_2  and  C_3
REMARK    2  A    between atoms: N_7  and  C_8
REMARK    3  A    between atoms: C_8  and  C_9
REMARK    4  A    between atoms: N_11  and  C_12
REMARK                            x       y       z     vdW  Elec       q    Type
REMARK                         _______ _______ _______ _____ _____    ______ ____
ROOT
ATOM      1  C   UNL     1      -3.660  -0.722   0.000  0.00  0.00    +0.266 C 
ATOM      2  N   UNL     1      -4.445  -0.467   0.000  0.00  0.00    -0.205 NA
ATOM      3  O   UNL     1      -3.047  -0.170   0.000  0.00  0.00    -0.271 OA
ENDROOT
BRANCH   2   4
ATOM      4  C   UNL     1      -5.058  -1.019   0.000  0.00  0.00    +0.099 C 
ATOM      5  C   UNL     1      -5.843  -0.764   0.000  0.00  0.00    +0.043 C 
ATOM      6  C   UNL     1      -6.456  -1.316   0.000  0.00  0.00    +0.095 C 
ATOM      7  N   UNL     1      -6.284  -2.123   0.000  0.00  0.00    -0.279 N 
ATOM      8  C   UNL     1      -6.897  -2.675   0.000  0.00  0.00    +0.226 C 
ATOM      9  C   UNL     1      -7.682  -2.420   0.000  0.00  0.00    +0.095 C 
ATOM     10  O   UNL     1      -6.726  -3.482   0.000  0.00  0.00    -0.275 OA
ATOM     11  C   UNL     1      -5.500  -2.378   0.000  0.00  0.00    +0.095 C 
ATOM     12  C   UNL     1      -4.886  -1.826   0.000  0.00  0.00    +0.043 C 
ENDBRANCH   2   4
BRANCH   1  13
ATOM     13  C   UNL     1      -3.489  -1.529   0.000  0.00  0.00    +0.217 C 
BRANCH  13  15
ATOM     14  C   UNL     1      -2.037  -1.299   0.000  0.00  0.00    +0.161 A 
ATOM     15  N   UNL     1      -2.704  -1.784   0.000  0.00  0.00    -0.208 N 
ATOM     16  N   UNL     1      -2.449  -2.569   0.000  0.00  0.00    -0.043 NA
ATOM     17  N   UNL     1      -1.624  -2.569   0.000  0.00  0.00    -0.023 NA
ATOM     18  N   UNL     1      -1.369  -1.784   0.000  0.00  0.00    -0.113 NA
BRANCH  14  20
ATOM     19  C   UNL     1      -1.322  -0.062   0.000  0.00  0.00    +0.008 C 
ATOM     20  C   UNL     1      -2.037  -0.474   0.000  0.00  0.00    +0.067 C 
ENDBRANCH  14  20
ENDBRANCH  13  15
ENDBRANCH   1  13
TORSDOF 4
