REMARK  Name = 
REMARK  3 active torsions:
REMARK  status: ('A' for Active; 'I' for Inactive)
REMARK    1  A    between atoms: C_2  and  C_3
REMARK    2  A    between atoms: C_8  and  N_10
REMARK    3  A    between atoms: C_16  and  C_17
REMARK                            x       y       z     vdW  Elec       q    Type
REMARK                         _______ _______ _______ _____ _____    ______ ____
ROOT
ATOM      1  N   UNL     1       2.697  -3.548   0.000  0.00  0.00    -0.187 NA
ATOM      2  C   UNL     1       1.877  -3.462   0.000  0.00  0.00    +0.345 C 
ATOM      3  N   UNL     1       1.392  -4.130   0.000  0.00  0.00    -0.136 NA
ATOM      4  C   UNL     1       0.572  -4.043   0.000  0.00  0.00    +0.187 A 
ATOM      5  S   UNL     1       0.159  -3.329   0.000  0.00  0.00    -0.049 S 
ATOM      6  C   UNL     1      -0.648  -3.500   0.000  0.00  0.00    +0.053 A 
ATOM      7  C   UNL     1      -0.734  -4.321   0.000  0.00  0.00    +0.067 A 
ATOM      8  N   UNL     1       0.020  -4.656   0.000  0.00  0.00    -0.227 NA
ATOM      9  O   UNL     1       1.541  -2.708   0.000  0.00  0.00    -0.249 OA
ENDROOT
BRANCH   1  13
ATOM     10  C   UNL     1       3.595  -0.786   0.000  0.00  0.00    +0.226 C 
ATOM     11  N   UNL     1       3.595  -1.611   0.000  0.00  0.00    -0.278 N 
ATOM     12  C   UNL     1       2.928  -2.096   0.000  0.00  0.00    +0.115 C 
ATOM     13  C   UNL     1       3.182  -2.881   0.000  0.00  0.00    +0.118 C 
ATOM     14  C   UNL     1       4.007  -2.881   0.000  0.00  0.00    +0.045 C 
ATOM     15  C   UNL     1       4.262  -2.096   0.000  0.00  0.00    +0.095 C 
ATOM     16  O   UNL     1       2.880  -0.374   0.000  0.00  0.00    -0.275 OA
BRANCH  10  18
ATOM     17  C   UNL     1       4.309   0.451   0.000  0.00  0.00    +0.010 C 
ATOM     18  C   UNL     1       4.309  -0.374   0.000  0.00  0.00    +0.085 C 
ENDBRANCH  10  18
ENDBRANCH   1  13
BRANCH   7  19
ATOM     19  C   UNL     1      -1.449  -4.733   0.000  0.00  0.00    +0.046 C 
ATOM     20  C   UNL     1      -1.449  -5.558   0.000  0.00  0.00    +0.007 C 
ENDBRANCH   7  19
TORSDOF 3
