REMARK  Name = 
REMARK  7 active torsions:
REMARK  status: ('A' for Active; 'I' for Inactive)
REMARK    1  A    between atoms: C_7  and  O_8
REMARK    2  A    between atoms: O_8  and  C_9
REMARK    3  A    between atoms: C_9  and  C_10
REMARK    4  A    between atoms: C_10  and  N_11
REMARK    5  A    between atoms: N_11  and  C_12
REMARK    6  A    between atoms: C_12  and  C_13
REMARK    7  A    between atoms: C_13  and  N_14
REMARK                            x       y       z     vdW  Elec       q    Type
REMARK                         _______ _______ _______ _____ _____    ______ ____
ROOT
ATOM      1  C   UNL     1       2.858   0.000   0.000  0.00  0.00    +0.161 C 
ENDROOT
BRANCH   1   2
ATOM      2  C   UNL     1       3.572  -0.412   0.000  0.00  0.00    +0.121 C 
BRANCH   2   3
ATOM      3  N   UNL     1       4.287   0.000   0.000  0.00  0.00    -0.213 NA
BRANCH   3   4
ATOM      4  C   UNL     1       5.001  -0.412   0.000  0.00  0.00    +0.115 C 
BRANCH   4   5
ATOM      5  C   UNL     1       5.716   0.000   0.000  0.00  0.00    +0.146 C 
BRANCH   5   6
ATOM      6  N   UNL     1       6.430  -0.412   0.000  0.00  0.00    -0.248 N 
ATOM      7  N   UNL     1       6.516  -1.233   0.000  0.00  0.00    -0.168 NA
ATOM      8  C   UNL     1       7.323  -1.405   0.000  0.00  0.00    +0.122 A 
ATOM      9  C   UNL     1       7.736  -0.690   0.000  0.00  0.00    +0.043 A 
ATOM     10  C   UNL     1       7.184  -0.077   0.000  0.00  0.00    +0.097 A 
ENDBRANCH   5   6
ENDBRANCH   4   5
ENDBRANCH   3   4
ENDBRANCH   2   3
ENDBRANCH   1   2
BRANCH   1  11
ATOM     11  O   UNL     1       2.143  -0.412   0.000  0.00  0.00    -0.355 OA
BRANCH  11  14
ATOM     12  C   UNL     1       0.715  -1.238   0.000  0.00  0.00    +0.002 C 
ATOM     13  C   UNL     1       0.715  -0.412   0.000  0.00  0.00    +0.027 C 
ATOM     14  C   UNL     1       1.429   0.000   0.000  0.00  0.00    +0.115 C 
ATOM     15  C   UNL     1       1.429   0.825   0.000  0.00  0.00    +0.030 C 
ATOM     16  C   UNL     1       0.715   1.238   0.000  0.00  0.00    +0.002 C 
ATOM     17  C   UNL     1       0.000   0.825   0.000  0.00  0.00    +0.000 C 
ATOM     18  C   UNL     1       0.000   0.000   0.000  0.00  0.00    +0.002 C 
ENDBRANCH  11  14
ENDBRANCH   1  11
TORSDOF 7
