REMARK  Name = 
REMARK  5 active torsions:
REMARK  status: ('A' for Active; 'I' for Inactive)
REMARK    1  A    between atoms: C_2  and  C_4
REMARK    2  A    between atoms: C_4  and  N_5
REMARK    3  A    between atoms: C_6  and  C_8
REMARK    4  A    between atoms: C_8  and  N_9
REMARK    5  A    between atoms: C_13  and  C_16
REMARK                            x       y       z     vdW  Elec       q    Type
REMARK                         _______ _______ _______ _____ _____    ______ ____
ROOT
ATOM      1  N   UNL     1       2.858  -3.300   0.000  0.00  0.00    -0.285 N 
ATOM      2  C   UNL     1       3.572  -3.712   0.000  0.00  0.00    +0.265 A 
ATOM      3  O   UNL     1       3.572  -4.537   0.000  0.00  0.00    -0.267 OA
ATOM      4  C   UNL     1       4.287  -3.300   0.000  0.00  0.00    +0.127 A 
ATOM      5  C   UNL     1       4.287  -2.475   0.000  0.00  0.00    +0.010 A 
ATOM      6  C   UNL     1       3.572  -2.062   0.000  0.00  0.00    +0.019 A 
ATOM      7  C   UNL     1       2.858  -2.475   0.000  0.00  0.00    +0.079 A 
ENDROOT
BRANCH   4   8
ATOM      8  C   UNL     1       5.001  -3.712   0.000  0.00  0.00    +0.423 C 
ATOM      9  F   UNL     1       5.414  -2.998   0.000  0.00  0.00    -0.166 F 
ATOM     10  F   UNL     1       4.589  -4.427   0.000  0.00  0.00    -0.166 F 
ATOM     11  F   UNL     1       5.716  -4.125   0.000  0.00  0.00    -0.166 F 
ENDBRANCH   4   8
BRANCH   1  12
ATOM     12  C   UNL     1       2.143  -3.712   0.000  0.00  0.00    +0.196 C 
BRANCH  12  14
ATOM     13  N   UNL     1       0.715  -3.712   0.000  0.00  0.00    -0.194 NA
ATOM     14  C   UNL     1       1.429  -3.300   0.000  0.00  0.00    +0.265 C 
ATOM     15  O   UNL     1       1.429  -2.475   0.000  0.00  0.00    -0.271 OA
BRANCH  13  16
ATOM     16  C   UNL     1       0.000  -3.300   0.000  0.00  0.00    +0.203 C 
BRANCH  16  18
ATOM     17  N   UNL     1      -1.429  -3.300   0.000  0.00  0.00    -0.086 NA
ATOM     18  C   UNL     1      -0.715  -3.712   0.000  0.00  0.00    +0.283 C 
ATOM     19  O   UNL     1      -0.715  -4.537   0.000  0.00  0.00    -0.270 OA
ENDBRANCH  16  18
ENDBRANCH  13  16
ENDBRANCH  12  14
ENDBRANCH   1  12
TORSDOF 5
