REMARK  Name = 
REMARK  4 active torsions:
REMARK  status: ('A' for Active; 'I' for Inactive)
REMARK    1  A    between atoms: N_2  and  C_4
REMARK    2  A    between atoms: N_9  and  C_10
REMARK    3  A    between atoms: C_10  and  C_11
REMARK    4  A    between atoms: N_13  and  C_14
REMARK                            x       y       z     vdW  Elec       q    Type
REMARK                         _______ _______ _______ _____ _____    ______ ____
ROOT
ATOM      1  C   UNL     1       0.663  -4.631   0.000  0.00  0.00    +0.196 C 
ENDROOT
BRANCH   1   4
ATOM      2  C   UNL     1       2.092  -2.981   0.000  0.00  0.00    +0.307 A 
ATOM      3  C   UNL     1       1.378  -3.394   0.000  0.00  0.00    +0.155 A 
ATOM      4  N   UNL     1       1.378  -4.219   0.000  0.00  0.00    -0.280 N 
ATOM      5  C   UNL     1       2.092  -4.631   0.000  0.00  0.00    +0.262 A 
ATOM      6  O   UNL     1       2.092  -5.456   0.000  0.00  0.00    -0.267 OA
ATOM      7  C   UNL     1       2.807  -4.219   0.000  0.00  0.00    +0.067 A 
ATOM      8  C   UNL     1       2.807  -3.394   0.000  0.00  0.00    +0.082 A 
BRANCH   2  10
ATOM      9  O   UNL     1       2.807  -1.744   0.000  0.00  0.00    -0.576 OA
ATOM     10  N   UNL     1       2.092  -2.156   0.000  0.00  0.00    +0.082 N 
ATOM     11  O   UNL     1       1.378  -1.744   0.000  0.00  0.00    +0.042 OA
ENDBRANCH   2  10
ENDBRANCH   1   4
BRANCH   1  12
ATOM     12  C   UNL     1      -0.051  -4.219   0.000  0.00  0.00    +0.264 C 
ATOM     13  N   UNL     1      -0.766  -4.631   0.000  0.00  0.00    -0.206 NA
ATOM     14  O   UNL     1      -0.051  -3.394   0.000  0.00  0.00    -0.271 OA
BRANCH  13  15
ATOM     15  C   UNL     1      -1.480  -4.219   0.000  0.00  0.00    +0.095 C 
ATOM     16  C   UNL     1      -1.419  -3.396   0.000  0.00  0.00    +0.022 C 
ATOM     17  C   UNL     1      -2.023  -2.835   0.000  0.00  0.00    +0.002 C 
ATOM     18  C   UNL     1      -2.839  -2.958   0.000  0.00  0.00    +0.000 C 
ATOM     19  C   UNL     1      -3.252  -3.672   0.000  0.00  0.00    +0.000 C 
ATOM     20  C   UNL     1      -2.950  -4.441   0.000  0.00  0.00    +0.002 C 
ATOM     21  C   UNL     1      -2.162  -4.684   0.000  0.00  0.00    +0.022 C 
ENDBRANCH  13  15
ENDBRANCH   1  12
TORSDOF 4
