REMARK  Name = 
REMARK  5 active torsions:
REMARK  status: ('A' for Active; 'I' for Inactive)
REMARK    1  A    between atoms: C_2  and  C_4
REMARK    2  A    between atoms: C_4  and  C_5
REMARK    3  A    between atoms: C_4  and  N_17
REMARK    4  A    between atoms: C_5  and  N_6
REMARK    5  A    between atoms: N_9  and  C_10
REMARK                            x       y       z     vdW  Elec       q    Type
REMARK                         _______ _______ _______ _____ _____    ______ ____
ROOT
ATOM      1  C   UNL     1       1.429  -0.825   0.000  0.00  0.00    +0.133 C 
ENDROOT
BRANCH   1   2
ATOM      2  N   UNL     1       2.143  -1.238   0.000  0.00  0.00    -0.185 NA
ATOM      3  C   UNL     1       2.858  -0.825   0.000  0.00  0.00    +0.344 C 
ATOM      4  N   UNL     1       3.572  -1.238   0.000  0.00  0.00    -0.159 NA
ATOM      5  O   UNL     1       2.858   0.000   0.000  0.00  0.00    -0.249 OA
BRANCH   4   6
ATOM      6  C   UNL     1       4.287  -0.825   0.000  0.00  0.00    +0.105 A 
ATOM      7  C   UNL     1       5.001  -1.238   0.000  0.00  0.00    +0.174 A 
ATOM      8  F   UNL     1       5.001  -2.062   0.000  0.00  0.00    -0.201 F 
ATOM      9  C   UNL     1       5.716  -0.825   0.000  0.00  0.00    +0.130 A 
ATOM     10  N   UNL     1       5.716   0.000   0.000  0.00  0.00    -0.240 NA
ATOM     11  C   UNL     1       5.001   0.412   0.000  0.00  0.00    +0.100 A 
ATOM     12  C   UNL     1       4.287   0.000   0.000  0.00  0.00    +0.040 A 
ENDBRANCH   4   6
ENDBRANCH   1   2
BRANCH   1  13
ATOM     13  C   UNL     1       0.715  -1.238   0.000  0.00  0.00    +0.079 C 
BRANCH  13  14
ATOM     14  N   UNL     1       0.000  -0.825   0.000  0.00  0.00    -0.270 NA
ATOM     15  C   UNL     1       0.000   0.000   0.000  0.00  0.00    +0.090 C 
ATOM     16  C   UNL     1      -0.715   0.412   0.000  0.00  0.00    +0.090 C 
ATOM     17  N   UNL     1      -1.429   0.000   0.000  0.00  0.00    -0.269 NA
ATOM     18  C   UNL     1      -2.143   0.412   0.000  0.00  0.00    +0.090 C 
ATOM     19  C   UNL     1      -1.429  -0.825   0.000  0.00  0.00    +0.090 C 
ATOM     20  C   UNL     1      -0.715  -1.238   0.000  0.00  0.00    +0.090 C 
ENDBRANCH  13  14
BRANCH  13  22
ATOM     21  C   UNL     1       1.429  -2.475   0.000  0.00  0.00    +0.001 C 
ATOM     22  C   UNL     1       0.715  -2.062   0.000  0.00  0.00    +0.016 C 
ATOM     23  C   UNL     1       0.000  -2.475   0.000  0.00  0.00    +0.001 C 
ENDBRANCH  13  22
ENDBRANCH   1  13
TORSDOF 5
