REMARK  Name = 
REMARK  4 active torsions:
REMARK  status: ('A' for Active; 'I' for Inactive)
REMARK    1  A    between atoms: N_4  and  C_5
REMARK    2  A    between atoms: C_5  and  C_6
REMARK    3  A    between atoms: C_6  and  N_7
REMARK    4  A    between atoms: N_10  and  C_11
REMARK                            x       y       z     vdW  Elec       q    Type
REMARK                         _______ _______ _______ _____ _____    ______ ____
ROOT
ATOM      1  N   UNL     1       0.715   1.238   0.000  0.00  0.00    -0.185 NA
ATOM      2  C   UNL     1       1.429   0.825   0.000  0.00  0.00    +0.345 C 
ATOM      3  N   UNL     1       2.143   1.238   0.000  0.00  0.00    -0.142 NA
ATOM      4  O   UNL     1       1.429   0.000   0.000  0.00  0.00    -0.249 OA
ENDROOT
BRANCH   3   5
ATOM      5  C   UNL     1       2.858   0.825   0.000  0.00  0.00    +0.154 A 
ATOM      6  N   UNL     1       2.944   0.004   0.000  0.00  0.00    -0.234 N 
ATOM      7  C   UNL     1       2.331  -0.547   0.000  0.00  0.00    +0.155 C 
ATOM      8  N   UNL     1       3.751  -0.167   0.000  0.00  0.00    -0.172 NA
ATOM      9  C   UNL     1       4.164   0.547   0.000  0.00  0.00    +0.082 A 
ATOM     10  C   UNL     1       4.984   0.634   0.000  0.00  0.00    +0.054 C 
ATOM     11  C   UNL     1       3.612   1.161   0.000  0.00  0.00    +0.052 A 
ENDBRANCH   3   5
BRANCH   1  12
ATOM     12  C   UNL     1       0.000   0.825   0.000  0.00  0.00    +0.134 C 
BRANCH  12  13
ATOM     13  C   UNL     1      -0.715   1.238   0.000  0.00  0.00    +0.096 C 
BRANCH  13  20
ATOM     14  C   UNL     1      -3.572   1.238   0.000  0.00  0.00    +0.034 C 
ATOM     15  C   UNL     1      -2.858   0.825   0.000  0.00  0.00    +0.131 C 
ATOM     16  O   UNL     1      -2.858   0.000   0.000  0.00  0.00    -0.356 OA
ATOM     17  C   UNL     1      -2.143  -0.412   0.000  0.00  0.00    +0.131 C 
ATOM     18  C   UNL     1      -2.143  -1.238   0.000  0.00  0.00    +0.034 C 
ATOM     19  C   UNL     1      -1.429   0.000   0.000  0.00  0.00    +0.102 C 
ATOM     20  N   UNL     1      -1.429   0.825   0.000  0.00  0.00    -0.267 NA
ATOM     21  C   UNL     1      -2.143   1.238   0.000  0.00  0.00    +0.102 C 
ENDBRANCH  13  20
ENDBRANCH  12  13
ENDBRANCH   1  12
TORSDOF 4
