REMARK  Name = 
REMARK  3 active torsions:
REMARK  status: ('A' for Active; 'I' for Inactive)
REMARK    1  A    between atoms: C_3  and  C_5
REMARK    2  A    between atoms: C_9  and  O_10
REMARK    3  A    between atoms: O_10  and  C_11
REMARK                            x       y       z     vdW  Elec       q    Type
REMARK                         _______ _______ _______ _____ _____    ______ ____
ROOT
ATOM      1  C   UNL     1       1.322   2.413   0.000  0.00  0.00    +0.061 A 
ATOM      2  C   UNL     1       2.037   2.001   0.000  0.00  0.00    +0.062 A 
ATOM      3  C   UNL     1       2.751   2.413   0.000  0.00  0.00    +0.225 A 
ATOM      4  N   UNL     1       2.751   3.238   0.000  0.00  0.00    -0.210 NA
ATOM      5  C   UNL     1       2.037   3.651   0.000  0.00  0.00    +0.102 A 
ATOM      6  C   UNL     1       1.322   3.238   0.000  0.00  0.00    +0.025 A 
ENDROOT
BRANCH   1   9
ATOM      7  C   UNL     1      -0.821   2.001   0.000  0.00  0.00    +0.139 C 
ATOM      8  N   UNL     1      -0.107   2.413   0.000  0.00  0.00    -0.200 NA
ATOM      9  C   UNL     1       0.608   2.001   0.000  0.00  0.00    +0.265 C 
ATOM     10  O   UNL     1       0.608   1.176   0.000  0.00  0.00    -0.268 OA
ENDBRANCH   1   9
BRANCH   3  11
ATOM     11  O   UNL     1       3.466   2.001   0.000  0.00  0.00    -0.461 OA
BRANCH  11  12
ATOM     12  C   UNL     1       3.466   1.176   0.000  0.00  0.00    +0.199 C 
ATOM     13  C   UNL     1       2.798   0.691   0.000  0.00  0.00    +0.186 C 
ATOM     14  O   UNL     1       3.053  -0.094   0.000  0.00  0.00    -0.350 OA
ATOM     15  C   UNL     1       3.878  -0.094   0.000  0.00  0.00    +0.146 C 
ATOM     16  C   UNL     1       4.133   0.691   0.000  0.00  0.00    +0.078 C 
ENDBRANCH  11  12
ENDBRANCH   3  11
TORSDOF 3
