REMARK  Name = 
REMARK  4 active torsions:
REMARK  status: ('A' for Active; 'I' for Inactive)
REMARK    1  A    between atoms: N_4  and  C_5
REMARK    2  A    between atoms: C_5  and  C_6
REMARK    3  A    between atoms: C_10  and  C_17
REMARK    4  A    between atoms: C_12  and  C_13
REMARK                            x       y       z     vdW  Elec       q    Type
REMARK                         _______ _______ _______ _____ _____    ______ ____
ROOT
ATOM      1  C   UNL     1       0.884  -2.150   0.000  0.00  0.00    +0.054 C 
ATOM      2  C   UNL     1       1.139  -1.365   0.000  0.00  0.00    +0.082 A 
ATOM      3  C   UNL     1       1.923  -1.110   0.000  0.00  0.00    +0.057 A 
ATOM      4  C   UNL     1       1.923  -0.285   0.000  0.00  0.00    +0.161 A 
ATOM      5  N   UNL     1       2.638   0.127   0.000  0.00  0.00    -0.224 NA
ATOM      6  C   UNL     1       3.352  -0.285   0.000  0.00  0.00    +0.118 A 
ATOM      7  C   UNL     1       3.352  -1.110   0.000  0.00  0.00    +0.029 A 
ATOM      8  N   UNL     1       1.139  -0.030   0.000  0.00  0.00    -0.232 N 
ATOM      9  C   UNL     1       2.638  -1.523   0.000  0.00  0.00    +0.085 A 
ATOM     10  N   UNL     1       0.654  -0.698   0.000  0.00  0.00    -0.172 NA
ENDROOT
BRANCH   6  11
ATOM     11  C   UNL     1       4.067   0.127   0.000  0.00  0.00    +0.163 A 
ATOM     12  O   UNL     1       4.820  -0.208   0.000  0.00  0.00    -0.449 OA
ATOM     13  C   UNL     1       5.372   0.405   0.000  0.00  0.00    +0.180 A 
ATOM     14  C   UNL     1       4.960   1.119   0.000  0.00  0.00    +0.044 A 
ATOM     15  C   UNL     1       4.153   0.948   0.000  0.00  0.00    +0.042 A 
ENDBRANCH   6  11
BRANCH   9  16
ATOM     16  C   UNL     1       2.638  -2.348   0.000  0.00  0.00    +0.388 C 
ATOM     17  O   UNL     1       3.352  -2.760   0.000  0.00  0.00    -0.241 OA
ATOM     18  O   UNL     1       1.923  -2.760   0.000  0.00  0.00    -0.241 OA
ENDBRANCH   9  16
BRANCH   8  19
ATOM     19  C   UNL     1       0.884   0.754   0.000  0.00  0.00    +0.165 C 
BRANCH  19  20
ATOM     20  C   UNL     1       0.077   0.926   0.000  0.00  0.00    +0.208 C 
ATOM     21  O   UNL     1      -0.178   1.710   0.000  0.00  0.00    -0.218 OA
ENDBRANCH  19  20
ENDBRANCH   8  19
TORSDOF 4
