REMARK  Name = 
REMARK  5 active torsions:
REMARK  status: ('A' for Active; 'I' for Inactive)
REMARK    1  A    between atoms: C_2  and  N_3
REMARK    2  A    between atoms: C_2  and  C_10
REMARK    3  A    between atoms: N_12  and  C_13
REMARK    4  A    between atoms: C_13  and  C_14
REMARK    5  A    between atoms: C_14  and  C_15
REMARK                            x       y       z     vdW  Elec       q    Type
REMARK                         _______ _______ _______ _____ _____    ______ ____
ROOT
ATOM      1  C   UNL     1       1.176  -1.731   0.000  0.00  0.00    +0.256 C 
ATOM      2  N   UNL     1       1.890  -1.319   0.000  0.00  0.00    -0.204 NA
ATOM      3  O   UNL     1       1.176  -2.556   0.000  0.00  0.00    -0.272 OA
ENDROOT
BRANCH   1   5
ATOM      4  C   UNL     1       0.461  -0.494   0.000  0.00  0.00    +0.027 C 
ATOM      5  C   UNL     1       0.461  -1.319   0.000  0.00  0.00    +0.137 C 
BRANCH   5   6
ATOM      6  N   UNL     1      -0.253  -1.731   0.000  0.00  0.00    -0.267 NA
ATOM      7  C   UNL     1      -0.935  -1.266   0.000  0.00  0.00    +0.072 C 
ATOM      8  C   UNL     1      -1.723  -1.510   0.000  0.00  0.00    +0.017 C 
ATOM      9  C   UNL     1      -2.024  -2.278   0.000  0.00  0.00    +0.001 C 
ATOM     10  C   UNL     1      -1.612  -2.992   0.000  0.00  0.00    +0.001 C 
ATOM     11  C   UNL     1      -0.796  -3.115   0.000  0.00  0.00    +0.017 C 
ATOM     12  C   UNL     1      -0.191  -2.554   0.000  0.00  0.00    +0.072 C 
ENDBRANCH   5   6
ENDBRANCH   1   5
BRANCH   2  13
ATOM     13  C   UNL     1       2.605  -1.731   0.000  0.00  0.00    +0.123 C 
BRANCH  13  14
ATOM     14  C   UNL     1       3.319  -1.319   0.000  0.00  0.00    +0.087 C 
BRANCH  14  15
ATOM     15  C   UNL     1       4.034  -1.731   0.000  0.00  0.00    +0.122 A 
ATOM     16  N   UNL     1       4.120  -2.552   0.000  0.00  0.00    -0.312 N 
ATOM     17  C   UNL     1       3.507  -3.104   0.000  0.00  0.00    +0.132 C 
ATOM     18  C   UNL     1       4.927  -2.723   0.000  0.00  0.00    +0.098 A 
ATOM     19  C   UNL     1       5.340  -2.009   0.000  0.00  0.00    +0.119 A 
ATOM     20  N   UNL     1       4.787  -1.396   0.000  0.00  0.00    -0.229 NA
ENDBRANCH  14  15
ENDBRANCH  13  14
ENDBRANCH   2  13
TORSDOF 5
