REMARK  Name = 
REMARK  4 active torsions:
REMARK  status: ('A' for Active; 'I' for Inactive)
REMARK    1  A    between atoms: C_2  and  C_3
REMARK    2  A    between atoms: C_2  and  N_12
REMARK    3  A    between atoms: C_3  and  C_4
REMARK    4  A    between atoms: N_12  and  C_13
REMARK                            x       y       z     vdW  Elec       q    Type
REMARK                         _______ _______ _______ _____ _____    ______ ____
ROOT
ATOM      1  C   UNL     1       4.180  -1.712   0.000  0.00  0.00    +0.019 C 
ATOM      2  C   UNL     1       3.466  -1.299   0.000  0.00  0.00    +0.077 C 
ENDROOT
BRANCH   2   3
ATOM      3  N   UNL     1       3.466  -0.474   0.000  0.00  0.00    -0.220 NA
BRANCH   3   4
ATOM      4  C   UNL     1       4.180  -0.062   0.000  0.00  0.00    +0.074 C 
ATOM      5  C   UNL     1       4.895  -0.474   0.000  0.00  0.00    +0.029 C 
ATOM      6  C   UNL     1       5.609  -0.062   0.000  0.00  0.00    +0.059 C 
ATOM      7  S   UNL     1       5.609   0.763   0.000  0.00  0.00    -0.140 S 
ATOM      8  C   UNL     1       4.895   1.176   0.000  0.00  0.00    +0.059 C 
ATOM      9  C   UNL     1       4.180   0.763   0.000  0.00  0.00    +0.029 C 
ENDBRANCH   3   4
ENDBRANCH   2   3
BRANCH   2  10
ATOM     10  C   UNL     1       2.751  -1.712   0.000  0.00  0.00    +0.046 C 
BRANCH  10  11
ATOM     11  C   UNL     1       2.751  -2.537   0.000  0.00  0.00    +0.008 A 
ATOM     12  C   UNL     1       2.084  -3.022   0.000  0.00  0.00    +0.053 A 
ATOM     13  C   UNL     1       1.299  -2.767   0.000  0.00  0.00    +0.051 C 
ATOM     14  N   UNL     1       2.339  -3.806   0.000  0.00  0.00    -0.253 N 
ATOM     15  C   UNL     1       1.854  -4.474   0.000  0.00  0.00    +0.153 C 
ATOM     16  N   UNL     1       3.164  -3.806   0.000  0.00  0.00    -0.174 NA
ATOM     17  C   UNL     1       3.419  -3.022   0.000  0.00  0.00    +0.076 A 
ATOM     18  C   UNL     1       4.203  -2.767   0.000  0.00  0.00    +0.054 C 
ENDBRANCH  10  11
ENDBRANCH   2  10
TORSDOF 4
