REMARK  Name = 
REMARK  4 active torsions:
REMARK  status: ('A' for Active; 'I' for Inactive)
REMARK    1  A    between atoms: C_5  and  N_8
REMARK    2  A    between atoms: C_9  and  C_11
REMARK    3  A    between atoms: C_11  and  C_12
REMARK    4  A    between atoms: C_15  and  C_17
REMARK                            x       y       z     vdW  Elec       q    Type
REMARK                         _______ _______ _______ _____ _____    ______ ____
ROOT
ATOM      1  N   UNL     1      -0.608   6.828   0.000  0.00  0.00    -0.207 NA
ATOM      2  C   UNL     1      -0.608   6.003   0.000  0.00  0.00    +0.247 C 
ATOM      3  O   UNL     1       0.107   5.590   0.000  0.00  0.00    -0.273 OA
ENDROOT
BRANCH   1   8
ATOM      4  C   UNL     1       2.250   8.478   0.000  0.00  0.00    +0.090 C 
ATOM      5  N   UNL     1       1.536   8.065   0.000  0.00  0.00    -0.271 NA
ATOM      6  C   UNL     1       0.821   8.478   0.000  0.00  0.00    +0.074 C 
ATOM      7  C   UNL     1       0.107   8.065   0.000  0.00  0.00    +0.039 C 
ATOM      8  C   UNL     1       0.107   7.240   0.000  0.00  0.00    +0.098 C 
ATOM      9  C   UNL     1       0.821   6.828   0.000  0.00  0.00    +0.039 C 
ATOM     10  C   UNL     1       1.536   7.240   0.000  0.00  0.00    +0.074 C 
ENDBRANCH   1   8
BRANCH   2  11
ATOM     11  C   UNL     1      -1.322   5.590   0.000  0.00  0.00    +0.133 C 
BRANCH  11  12
ATOM     12  C   UNL     1      -1.322   4.765   0.000  0.00  0.00    +0.075 A 
ATOM     13  N   UNL     1      -1.990   4.280   0.000  0.00  0.00    -0.247 NA
ATOM     14  C   UNL     1      -1.735   3.496   0.000  0.00  0.00    +0.087 A 
ATOM     15  S   UNL     1      -0.910   3.496   0.000  0.00  0.00    -0.071 S 
ATOM     16  C   UNL     1      -0.655   4.280   0.000  0.00  0.00    +0.052 A 
BRANCH  14  17
ATOM     17  C   UNL     1      -2.220   2.828   0.000  0.00  0.00    +0.041 C 
ATOM     18  C   UNL     1      -1.552   2.343   0.000  0.00  0.00    +0.006 C 
ATOM     19  C   UNL     1      -2.887   3.313   0.000  0.00  0.00    +0.006 C 
ATOM     20  C   UNL     1      -2.705   2.161   0.000  0.00  0.00    +0.006 C 
ENDBRANCH  14  17
ENDBRANCH  11  12
ENDBRANCH   2  11
TORSDOF 4
