REMARK  Name = 
REMARK  4 active torsions:
REMARK  status: ('A' for Active; 'I' for Inactive)
REMARK    1  A    between atoms: C_7  and  N_8
REMARK    2  A    between atoms: C_9  and  C_11
REMARK    3  A    between atoms: C_11  and  N_12
REMARK    4  A    between atoms: C_15  and  C_16
REMARK                            x       y       z     vdW  Elec       q    Type
REMARK                         _______ _______ _______ _____ _____    ______ ____
ROOT
ATOM      1  N   UNL     1       5.609   3.115   0.000  0.00  0.00    -0.206 NA
ATOM      2  C   UNL     1       5.609   2.290   0.000  0.00  0.00    +0.266 C 
ATOM      3  O   UNL     1       6.324   1.878   0.000  0.00  0.00    -0.271 OA
ENDROOT
BRANCH   1   6
ATOM      4  C   UNL     1       5.609   4.765   0.000  0.00  0.00    +0.002 C 
ATOM      5  C   UNL     1       6.324   4.353   0.000  0.00  0.00    +0.020 C 
ATOM      6  C   UNL     1       6.324   3.528   0.000  0.00  0.00    +0.095 C 
ATOM      7  C   UNL     1       7.038   3.115   0.000  0.00  0.00    +0.022 C 
ATOM      8  C   UNL     1       7.753   3.528   0.000  0.00  0.00    +0.002 C 
ATOM      9  C   UNL     1       7.753   4.353   0.000  0.00  0.00    +0.000 C 
ATOM     10  C   UNL     1       7.038   4.765   0.000  0.00  0.00    +0.002 C 
ENDBRANCH   1   6
BRANCH   2  11
ATOM     11  C   UNL     1       4.895   1.878   0.000  0.00  0.00    +0.215 C 
BRANCH  11  12
ATOM     12  N   UNL     1       4.895   1.053   0.000  0.00  0.00    -0.220 N 
ATOM     13  N   UNL     1       4.227   0.568   0.000  0.00  0.00    -0.137 NA
ATOM     14  C   UNL     1       4.482  -0.217   0.000  0.00  0.00    +0.252 A 
ATOM     15  N   UNL     1       5.307  -0.217   0.000  0.00  0.00    -0.195 NA
ATOM     16  C   UNL     1       5.562   0.568   0.000  0.00  0.00    +0.198 A 
BRANCH  14  17
ATOM     17  C   UNL     1       3.997  -0.884   0.000  0.00  0.00    +0.142 C 
ATOM     18  N   UNL     1       3.512  -1.552   0.000  0.00  0.00    -0.188 NA
ENDBRANCH  14  17
ENDBRANCH  11  12
ENDBRANCH   2  11
TORSDOF 4
