REMARK  Name = 
REMARK  2 active torsions:
REMARK  status: ('A' for Active; 'I' for Inactive)
REMARK    1  A    between atoms: C_2  and  C_4
REMARK    2  A    between atoms: C_4  and  N_5
REMARK                            x       y       z     vdW  Elec       q    Type
REMARK                         _______ _______ _______ _____ _____    ______ ____
ROOT
ATOM      1  N   UNL     1       0.715   1.238   0.000  0.00  0.00    -0.267 N 
ATOM      2  C   UNL     1       0.000   0.825   0.000  0.00  0.00    +0.353 A 
ATOM      3  O   UNL     1      -0.715   1.238   0.000  0.00  0.00    -0.244 OA
ATOM      4  N   UNL     1       0.000   0.000   0.000  0.00  0.00    -0.153 NA
ATOM      5  C   UNL     1       0.715  -0.412   0.000  0.00  0.00    +0.285 A 
ATOM      6  O   UNL     1       0.715  -1.238   0.000  0.00  0.00    -0.265 OA
ATOM      7  C   UNL     1       1.429   0.000   0.000  0.00  0.00    +0.081 A 
ATOM      8  C   UNL     1       1.429   0.825   0.000  0.00  0.00    +0.085 A 
ENDROOT
BRANCH   1   9
ATOM      9  C   UNL     1       0.715   2.062   0.000  0.00  0.00    +0.225 C 
BRANCH   9  11
ATOM     10  O   UNL     1       0.000   3.300   0.000  0.00  0.00    -0.243 OA
ATOM     11  C   UNL     1       0.000   2.475   0.000  0.00  0.00    +0.388 C 
ATOM     12  O   UNL     1      -0.715   2.062   0.000  0.00  0.00    -0.243 OA
ENDBRANCH   9  11
ENDBRANCH   1   9
TORSDOF 2
