REMARK  Name = 
REMARK  3 active torsions:
REMARK  status: ('A' for Active; 'I' for Inactive)
REMARK    1  A    between atoms: C_7  and  N_10
REMARK    2  A    between atoms: C_11  and  C_13
REMARK    3  A    between atoms: C_13  and  N_14
REMARK                            x       y       z     vdW  Elec       q    Type
REMARK                         _______ _______ _______ _____ _____    ______ ____
ROOT
ATOM      1  N   UNL     1       2.037   6.828   0.000  0.00  0.00    -0.205 NA
ATOM      2  C   UNL     1       2.037   6.003   0.000  0.00  0.00    +0.266 C 
ATOM      3  O   UNL     1       1.322   5.590   0.000  0.00  0.00    -0.271 OA
ENDROOT
BRANCH   1   9
ATOM      4  C   UNL     1      -1.536   8.065   0.000  0.00  0.00    +0.095 C 
ATOM      5  C   UNL     1      -0.821   8.478   0.000  0.00  0.00    +0.226 C 
ATOM      6  N   UNL     1      -0.107   8.065   0.000  0.00  0.00    -0.279 N 
ATOM      7  C   UNL     1      -0.107   7.240   0.000  0.00  0.00    +0.095 C 
ATOM      8  C   UNL     1       0.608   6.828   0.000  0.00  0.00    +0.043 C 
ATOM      9  C   UNL     1       1.322   7.240   0.000  0.00  0.00    +0.099 C 
ATOM     10  C   UNL     1       1.322   8.065   0.000  0.00  0.00    +0.043 C 
ATOM     11  C   UNL     1       0.608   8.478   0.000  0.00  0.00    +0.095 C 
ATOM     12  O   UNL     1      -0.821   9.303   0.000  0.00  0.00    -0.275 OA
ENDBRANCH   1   9
BRANCH   2  13
ATOM     13  C   UNL     1       2.751   5.590   0.000  0.00  0.00    +0.213 C 
BRANCH  13  14
ATOM     14  N   UNL     1       2.751   4.765   0.000  0.00  0.00    -0.246 N 
ATOM     15  C   UNL     1       2.084   4.280   0.000  0.00  0.00    +0.058 A 
ATOM     16  C   UNL     1       1.299   4.535   0.000  0.00  0.00    +0.052 C 
ATOM     17  C   UNL     1       2.339   3.496   0.000  0.00  0.00    +0.031 A 
ATOM     18  C   UNL     1       3.164   3.496   0.000  0.00  0.00    +0.080 A 
ATOM     19  C   UNL     1       3.649   2.828   0.000  0.00  0.00    +0.054 C 
ATOM     20  N   UNL     1       3.419   4.280   0.000  0.00  0.00    -0.174 NA
ENDBRANCH  13  14
ENDBRANCH   2  13
TORSDOF 3
