REMARK  Name = 
REMARK  5 active torsions:
REMARK  status: ('A' for Active; 'I' for Inactive)
REMARK    1  A    between atoms: N_3  and  C_12
REMARK    2  A    between atoms: C_8  and  C_9
REMARK    3  A    between atoms: C_12  and  C_13
REMARK    4  A    between atoms: C_13  and  C_17
REMARK    5  A    between atoms: C_13  and  C_22
REMARK                            x       y       z     vdW  Elec       q    Type
REMARK                         _______ _______ _______ _____ _____    ______ ____
ROOT
ATOM      1  C   UNL     1       1.921  -0.283   0.000  0.00  0.00    +0.149 A 
ATOM      2  N   UNL     1       1.137  -0.029   0.000  0.00  0.00    -0.219 NA
ATOM      3  C   UNL     1       0.650  -0.696   0.000  0.00  0.00    +0.180 A 
ATOM      4  N   UNL     1       1.137  -1.363   0.000  0.00  0.00    -0.294 N 
ATOM      5  C   UNL     1       1.921  -1.108   0.000  0.00  0.00    +0.167 A 
ATOM      6  N   UNL     1       2.638  -1.521   0.000  0.00  0.00    -0.205 NA
ATOM      7  C   UNL     1       3.350  -1.108   0.000  0.00  0.00    +0.201 A 
ATOM      8  N   UNL     1       3.350  -0.283   0.000  0.00  0.00    -0.207 NA
ATOM      9  C   UNL     1       2.638   0.129   0.000  0.00  0.00    +0.154 A 
ATOM     10  N   UNL     1       2.638   0.954   0.000  0.00  0.00    -0.293 N 
ATOM     11  C   UNL     1       1.921   1.367   0.000  0.00  0.00    +0.092 C 
ATOM     12  C   UNL     1       1.921   2.192   0.000  0.00  0.00    +0.022 C 
ATOM     13  C   UNL     1       2.638   2.604   0.000  0.00  0.00    +0.003 C 
ATOM     14  C   UNL     1       3.350   2.192   0.000  0.00  0.00    +0.020 C 
ATOM     15  C   UNL     1       3.350   1.367   0.000  0.00  0.00    +0.077 C 
ENDROOT
BRANCH  15  16
ATOM     16  C   UNL     1       4.067   0.954   0.000  0.00  0.00    +0.049 C 
ATOM     17  C   UNL     1       4.150   0.133   0.000  0.00  0.00    +0.004 C 
ATOM     18  C   UNL     1       4.958  -0.037   0.000  0.00  0.00    +0.003 C 
ATOM     19  C   UNL     1       5.371   0.675   0.000  0.00  0.00    +0.033 C 
ATOM     20  C   UNL     1       4.817   1.292   0.000  0.00  0.00    +0.154 C 
ATOM     21  O   UNL     1       4.992   2.096   0.000  0.00  0.00    -0.223 OA
ENDBRANCH  15  16
BRANCH   4  22
ATOM     22  C   UNL     1       0.883  -2.150   0.000  0.00  0.00    +0.112 C 
BRANCH  22  23
ATOM     23  C   UNL     1       1.433  -2.763   0.000  0.00  0.00    +0.058 C 
BRANCH  23  24
ATOM     24  C   UNL     1       1.179  -3.546   0.000  0.00  0.00    +0.037 C 
ATOM     25  C   UNL     1       0.396  -3.800   0.000  0.00  0.00    +0.035 C 
ATOM     26  C   UNL     1       0.396  -4.625   0.000  0.00  0.00    +0.142 C 
ATOM     27  O   UNL     1       1.179  -4.879   0.000  0.00  0.00    -0.354 OA
ATOM     28  C   UNL     1       1.663  -4.213   0.000  0.00  0.00    +0.142 C 
ENDBRANCH  23  24
BRANCH  23  29
ATOM     29  C   UNL     1       2.242  -2.587   0.000  0.00  0.00    +0.184 C 
ATOM     30  O   UNL     1       2.792  -3.204   0.000  0.00  0.00    -0.220 OA
ENDBRANCH  23  29
ENDBRANCH  22  23
ENDBRANCH   4  22
TORSDOF 5
