REMARK  Name = 
REMARK  6 active torsions:
REMARK  status: ('A' for Active; 'I' for Inactive)
REMARK    1  A    between atoms: C_2  and  N_3
REMARK    2  A    between atoms: C_5  and  C_6
REMARK    3  A    between atoms: N_10  and  C_11
REMARK    4  A    between atoms: C_11  and  C_12
REMARK    5  A    between atoms: N_14  and  C_15
REMARK    6  A    between atoms: C_15  and  C_16
REMARK                            x       y       z     vdW  Elec       q    Type
REMARK                         _______ _______ _______ _____ _____    ______ ____
ROOT
ATOM      1  N   UNL     1      -1.429  -2.475   0.000  0.00  0.00    -0.279 N 
ATOM      2  C   UNL     1      -0.715  -2.888   0.000  0.00  0.00    +0.334 A 
ATOM      3  O   UNL     1      -0.715  -3.712   0.000  0.00  0.00    -0.246 OA
ATOM      4  N   UNL     1       0.000  -2.475   0.000  0.00  0.00    -0.239 N 
ATOM      5  C   UNL     1       0.000  -1.650   0.000  0.00  0.00    +0.276 A 
ATOM      6  O   UNL     1       0.715  -1.238   0.000  0.00  0.00    -0.266 OA
ATOM      7  C   UNL     1      -0.715  -1.238   0.000  0.00  0.00    +0.142 A 
ATOM      8  C   UNL     1      -1.429  -1.650   0.000  0.00  0.00    +0.095 A 
ENDROOT
BRANCH   1  10
ATOM      9  C   UNL     1      -2.858  -2.475   0.000  0.00  0.00    +0.027 C 
ATOM     10  C   UNL     1      -2.143  -2.888   0.000  0.00  0.00    +0.111 C 
ENDBRANCH   1  10
BRANCH   7  11
ATOM     11  C   UNL     1      -0.715  -0.412   0.000  0.00  0.00    +0.107 C 
ATOM     12  N   UNL     1      -0.715   0.412   0.000  0.00  0.00    -0.191 NA
ENDBRANCH   7  11
BRANCH   4  13
ATOM     13  C   UNL     1       0.715  -2.888   0.000  0.00  0.00    +0.200 C 
BRANCH  13  14
ATOM     14  C   UNL     1       1.429  -2.475   0.000  0.00  0.00    +0.265 C 
ATOM     15  N   UNL     1       2.143  -2.888   0.000  0.00  0.00    -0.204 NA
ATOM     16  O   UNL     1       1.429  -1.650   0.000  0.00  0.00    -0.271 OA
BRANCH  15  17
ATOM     17  C   UNL     1       2.858  -2.475   0.000  0.00  0.00    +0.115 C 
BRANCH  17  18
ATOM     18  C   UNL     1       3.572  -2.888   0.000  0.00  0.00    +0.022 C 
ATOM     19  C   UNL     1       3.572  -3.712   0.000  0.00  0.00    +0.002 C 
ATOM     20  C   UNL     1       4.287  -4.125   0.000  0.00  0.00    +0.000 C 
ATOM     21  C   UNL     1       5.001  -3.712   0.000  0.00  0.00    +0.000 C 
ATOM     22  C   UNL     1       5.001  -2.888   0.000  0.00  0.00    +0.000 C 
ATOM     23  C   UNL     1       4.287  -2.475   0.000  0.00  0.00    +0.002 C 
ENDBRANCH  17  18
ENDBRANCH  15  17
ENDBRANCH  13  14
ENDBRANCH   4  13
TORSDOF 6
