REMARK  Name = 
REMARK  4 active torsions:
REMARK  status: ('A' for Active; 'I' for Inactive)
REMARK    1  A    between atoms: C_2  and  C_3
REMARK    2  A    between atoms: C_3  and  N_4
REMARK    3  A    between atoms: N_11  and  C_12
REMARK    4  A    between atoms: C_12  and  C_13
REMARK                            x       y       z     vdW  Elec       q    Type
REMARK                         _______ _______ _______ _____ _____    ______ ____
ROOT
ATOM      1  O   UNL     1       1.429  -0.825   0.000  0.00  0.00    -0.271 OA
ATOM      2  C   UNL     1       1.429  -1.650   0.000  0.00  0.00    +0.265 C 
ATOM      3  N   UNL     1       2.143  -2.062   0.000  0.00  0.00    -0.201 NA
ENDROOT
BRANCH   3   4
ATOM      4  C   UNL     1       2.858  -1.650   0.000  0.00  0.00    +0.145 C 
BRANCH   4   5
ATOM      5  C   UNL     1       3.572  -2.062   0.000  0.00  0.00    +0.137 C 
ATOM      6  O   UNL     1       3.659  -2.883   0.000  0.00  0.00    -0.354 OA
ATOM      7  C   UNL     1       4.466  -3.054   0.000  0.00  0.00    +0.142 C 
ATOM      8  C   UNL     1       4.878  -2.340   0.000  0.00  0.00    +0.035 C 
ATOM      9  C   UNL     1       4.326  -1.727   0.000  0.00  0.00    +0.034 C 
ENDBRANCH   4   5
ENDBRANCH   3   4
BRANCH   2  10
ATOM     10  C   UNL     1       0.715  -2.062   0.000  0.00  0.00    +0.196 C 
BRANCH  10  11
ATOM     11  N   UNL     1       0.000  -1.650   0.000  0.00  0.00    -0.285 N 
ATOM     12  C   UNL     1       0.000  -0.825   0.000  0.00  0.00    +0.261 A 
ATOM     13  O   UNL     1       0.715  -0.412   0.000  0.00  0.00    -0.267 OA
ATOM     14  C   UNL     1      -0.715  -0.412   0.000  0.00  0.00    +0.061 A 
ATOM     15  C   UNL     1      -1.429  -0.825   0.000  0.00  0.00    +0.006 A 
ATOM     16  C   UNL     1      -1.429  -1.650   0.000  0.00  0.00    +0.019 A 
ATOM     17  C   UNL     1      -0.715  -2.062   0.000  0.00  0.00    +0.079 A 
ENDBRANCH  10  11
ENDBRANCH   2  10
TORSDOF 4
