REMARK  Name = 
REMARK  6 active torsions:
REMARK  status: ('A' for Active; 'I' for Inactive)
REMARK    1  A    between atoms: O_2  and  C_3
REMARK    2  A    between atoms: C_3  and  C_4
REMARK    3  A    between atoms: C_4  and  N_5
REMARK    4  A    between atoms: C_7  and  C_12
REMARK    5  A    between atoms: N_14  and  C_15
REMARK    6  A    between atoms: C_15  and  C_21
REMARK                            x       y       z     vdW  Elec       q    Type
REMARK                         _______ _______ _______ _____ _____    ______ ____
ROOT
ATOM      1  C   UNL     1       4.051  -0.176   0.000  0.00  0.00    +0.284 C 
ATOM      2  N   UNL     1       4.051  -1.001   0.000  0.00  0.00    -0.195 NA
ATOM      3  O   UNL     1       4.765   0.237   0.000  0.00  0.00    -0.267 OA
ENDROOT
BRANCH   1   9
ATOM      4  N   UNL     1       2.622   1.474   0.000  0.00  0.00    -0.214 N 
ATOM      5  C   UNL     1       1.907   1.062   0.000  0.00  0.00    +0.277 A 
ATOM      6  O   UNL     1       1.193   1.474   0.000  0.00  0.00    -0.266 OA
ATOM      7  C   UNL     1       1.907   0.237   0.000  0.00  0.00    +0.064 A 
ATOM      8  C   UNL     1       2.622  -0.176   0.000  0.00  0.00    +0.030 A 
ATOM      9  C   UNL     1       3.336   0.237   0.000  0.00  0.00    +0.156 A 
ATOM     10  N   UNL     1       3.336   1.062   0.000  0.00  0.00    -0.162 NA
BRANCH   4  11
ATOM     11  C   UNL     1       2.622   2.299   0.000  0.00  0.00    +0.163 C 
BRANCH  11  12
ATOM     12  C   UNL     1       1.907   2.712   0.000  0.00  0.00    +0.169 C 
BRANCH  12  14
ATOM     13  C   UNL     1       1.193   3.949   0.000  0.00  0.00    +0.174 C 
ATOM     14  O   UNL     1       1.907   3.537   0.000  0.00  0.00    -0.349 OA
ENDBRANCH  12  14
ENDBRANCH  11  12
ENDBRANCH   4  11
ENDBRANCH   1   9
BRANCH   2  15
ATOM     15  C   UNL     1       3.336  -1.413   0.000  0.00  0.00    +0.166 C 
ATOM     16  C   UNL     1       3.054  -0.638   0.000  0.00  0.00    +0.028 C 
ATOM     17  C   UNL     1       2.241  -0.495   0.000  0.00  0.00    +0.002 C 
ATOM     18  C   UNL     1       1.711  -1.127   0.000  0.00  0.00    +0.000 C 
ATOM     19  C   UNL     1       1.993  -1.902   0.000  0.00  0.00    +0.002 C 
ATOM     20  C   UNL     1       2.806  -2.045   0.000  0.00  0.00    +0.028 C 
BRANCH  15  21
ATOM     21  C   UNL     1       3.866  -2.045   0.000  0.00  0.00    +0.414 C 
ATOM     22  F   UNL     1       4.498  -1.515   0.000  0.00  0.00    -0.168 F 
ATOM     23  F   UNL     1       3.234  -2.575   0.000  0.00  0.00    -0.168 F 
ATOM     24  F   UNL     1       4.397  -2.677   0.000  0.00  0.00    -0.168 F 
ENDBRANCH  15  21
ENDBRANCH   2  15
TORSDOF 6
