REMARK  Name = 
REMARK  7 active torsions:
REMARK  status: ('A' for Active; 'I' for Inactive)
REMARK    1  A    between atoms: O_2  and  C_3
REMARK    2  A    between atoms: C_3  and  C_4
REMARK    3  A    between atoms: C_4  and  N_5
REMARK    4  A    between atoms: C_7  and  N_8
REMARK    5  A    between atoms: C_9  and  C_11
REMARK    6  A    between atoms: C_11  and  C_12
REMARK    7  A    between atoms: C_12  and  C_13
REMARK                            x       y       z     vdW  Elec       q    Type
REMARK                         _______ _______ _______ _____ _____    ______ ____
ROOT
ATOM      1  N   UNL     1      -0.715  -1.238   0.000  0.00  0.00    -0.290 N 
ATOM      2  C   UNL     1      -1.429  -1.650   0.000  0.00  0.00    +0.261 A 
ATOM      3  O   UNL     1      -2.143  -1.238   0.000  0.00  0.00    -0.267 OA
ATOM      4  C   UNL     1      -1.429  -2.475   0.000  0.00  0.00    +0.062 A 
ATOM      5  C   UNL     1      -0.715  -2.888   0.000  0.00  0.00    +0.023 A 
ATOM      6  C   UNL     1       0.000  -2.475   0.000  0.00  0.00    +0.091 A 
ATOM      7  C   UNL     1       0.000  -1.650   0.000  0.00  0.00    +0.095 A 
ENDROOT
BRANCH   6   8
ATOM      8  N   UNL     1       0.715  -2.888   0.000  0.00  0.00    -0.178 NA
ATOM      9  C   UNL     1       1.429  -2.475   0.000  0.00  0.00    +0.246 C 
ATOM     10  O   UNL     1       1.429  -1.650   0.000  0.00  0.00    -0.273 OA
BRANCH   9  11
ATOM     11  C   UNL     1       2.143  -2.888   0.000  0.00  0.00    +0.090 C 
BRANCH  11  12
ATOM     12  C   UNL     1       2.858  -2.475   0.000  0.00  0.00    +0.039 C 
BRANCH  12  13
ATOM     13  C   UNL     1       3.572  -2.888   0.000  0.00  0.00    +0.116 C 
ATOM     14  O   UNL     1       3.572  -3.712   0.000  0.00  0.00    -0.356 OA
ATOM     15  C   UNL     1       4.287  -4.125   0.000  0.00  0.00    +0.142 C 
ATOM     16  C   UNL     1       5.001  -3.712   0.000  0.00  0.00    +0.032 C 
ATOM     17  C   UNL     1       5.001  -2.888   0.000  0.00  0.00    +0.005 C 
ATOM     18  C   UNL     1       4.287  -2.475   0.000  0.00  0.00    +0.030 C 
ENDBRANCH  12  13
ENDBRANCH  11  12
ENDBRANCH   9  11
ENDBRANCH   6   8
BRANCH   1  19
ATOM     19  C   UNL     1      -0.715  -0.412   0.000  0.00  0.00    +0.141 C 
BRANCH  19  20
ATOM     20  C   UNL     1      -1.429   0.000   0.000  0.00  0.00    +0.167 C 
BRANCH  20  22
ATOM     21  C   UNL     1      -2.143   1.238   0.000  0.00  0.00    +0.174 C 
ATOM     22  O   UNL     1      -1.429   0.825   0.000  0.00  0.00    -0.349 OA
ENDBRANCH  20  22
ENDBRANCH  19  20
ENDBRANCH   1  19
TORSDOF 7
