REMARK  Name = 
REMARK  5 active torsions:
REMARK  status: ('A' for Active; 'I' for Inactive)
REMARK    1  A    between atoms: C_2  and  O_4
REMARK    2  A    between atoms: O_4  and  C_5
REMARK    3  A    between atoms: C_5  and  C_6
REMARK    4  A    between atoms: C_6  and  C_8
REMARK    5  A    between atoms: C_8  and  N_9
REMARK                            x       y       z     vdW  Elec       q    Type
REMARK                         _______ _______ _______ _____ _____    ______ ____
ROOT
ATOM      1  N   UNL     1       9.139  -0.851   0.000  0.00  0.00    -0.277 N 
ATOM      2  C   UNL     1       9.893  -1.187   0.000  0.00  0.00    +0.080 A 
ATOM      3  C   UNL     1      10.445  -0.574   0.000  0.00  0.00    +0.080 A 
ATOM      4  C   UNL     1      11.252  -0.745   0.000  0.00  0.00    +0.019 A 
ATOM      5  C   UNL     1      11.507  -1.530   0.000  0.00  0.00    +0.002 A 
ATOM      6  C   UNL     1      10.955  -2.143   0.000  0.00  0.00    +0.002 A 
ATOM      7  N   UNL     1      10.033   0.141   0.000  0.00  0.00    -0.278 N 
ATOM      8  C   UNL     1      10.368   0.894   0.000  0.00  0.00    +0.135 C 
ATOM      9  C   UNL     1      10.148  -1.971   0.000  0.00  0.00    +0.019 A 
ATOM     10  C   UNL     1       9.226  -0.031   0.000  0.00  0.00    +0.332 A 
ATOM     11  O   UNL     1       8.613   0.521   0.000  0.00  0.00    -0.246 OA
ENDROOT
BRANCH   1  12
ATOM     12  C   UNL     1       8.425  -1.264   0.000  0.00  0.00    +0.146 C 
BRANCH  12  13
ATOM     13  C   UNL     1       7.710  -0.851   0.000  0.00  0.00    +0.204 C 
ATOM     14  O   UNL     1       7.710  -0.026   0.000  0.00  0.00    -0.218 OA
BRANCH  13  15
ATOM     15  C   UNL     1       6.996  -1.264   0.000  0.00  0.00    +0.177 C 
BRANCH  15  16
ATOM     16  O   UNL     1       6.282  -0.851   0.000  0.00  0.00    -0.353 OA
BRANCH  16  18
ATOM     17  C   UNL     1       4.853  -0.851   0.000  0.00  0.00    +0.032 C 
ATOM     18  C   UNL     1       5.567  -1.264   0.000  0.00  0.00    +0.116 C 
ATOM     19  C   UNL     1       5.567  -2.089   0.000  0.00  0.00    +0.032 C 
ENDBRANCH  16  18
ENDBRANCH  15  16
ENDBRANCH  13  15
ENDBRANCH  12  13
ENDBRANCH   1  12
TORSDOF 5
