REMARK  Name = 
REMARK  5 active torsions:
REMARK  status: ('A' for Active; 'I' for Inactive)
REMARK    1  A    between atoms: C_2  and  C_3
REMARK    2  A    between atoms: C_3  and  C_4
REMARK    3  A    between atoms: C_4  and  N_5
REMARK    4  A    between atoms: N_8  and  C_9
REMARK    5  A    between atoms: C_14  and  N_15
REMARK                            x       y       z     vdW  Elec       q    Type
REMARK                         _______ _______ _______ _____ _____    ______ ____
ROOT
ATOM      1  N   UNL     1      -0.715  -1.238   0.000  0.00  0.00    -0.187 NA
ATOM      2  C   UNL     1       0.000  -1.650   0.000  0.00  0.00    +0.344 C 
ATOM      3  N   UNL     1       0.715  -1.238   0.000  0.00  0.00    -0.157 NA
ATOM      4  O   UNL     1       0.000  -2.475   0.000  0.00  0.00    -0.249 OA
ENDROOT
BRANCH   3   5
ATOM      5  C   UNL     1       0.715  -0.412   0.000  0.00  0.00    +0.126 A 
ATOM      6  C   UNL     1       1.429   0.000   0.000  0.00  0.00    +0.151 A 
ATOM      7  N   UNL     1       1.429   0.825   0.000  0.00  0.00    -0.208 NA
ATOM      8  C   UNL     1       0.715   1.238   0.000  0.00  0.00    +0.200 A 
ATOM      9  N   UNL     1       0.000   0.825   0.000  0.00  0.00    -0.221 NA
ATOM     10  C   UNL     1       0.000   0.000   0.000  0.00  0.00    +0.120 A 
BRANCH   6  11
ATOM     11  N   UNL     1       2.143  -0.412   0.000  0.00  0.00    -0.289 N 
ATOM     12  C   UNL     1       2.858   0.000   0.000  0.00  0.00    +0.114 C 
ATOM     13  C   UNL     1       2.143  -1.238   0.000  0.00  0.00    +0.114 C 
ENDBRANCH   6  11
ENDBRANCH   3   5
BRANCH   1  14
ATOM     14  C   UNL     1      -1.429  -1.650   0.000  0.00  0.00    +0.117 C 
BRANCH  14  15
ATOM     15  C   UNL     1      -2.143  -1.238   0.000  0.00  0.00    +0.020 C 
ATOM     16  C   UNL     1      -1.861  -0.462   0.000  0.00  0.00    +0.002 C 
ATOM     17  C   UNL     1      -2.674  -0.606   0.000  0.00  0.00    +0.002 C 
BRANCH  15  19
ATOM     18  C   UNL     1      -3.486  -1.726   0.000  0.00  0.00    +0.000 C 
ATOM     19  C   UNL     1      -2.674  -1.869   0.000  0.00  0.00    +0.002 C 
ENDBRANCH  15  19
ENDBRANCH  14  15
ENDBRANCH   1  14
TORSDOF 5
