REMARK  Name = 
REMARK  4 active torsions:
REMARK  status: ('A' for Active; 'I' for Inactive)
REMARK    1  A    between atoms: C_2  and  N_3
REMARK    2  A    between atoms: C_2  and  C_17
REMARK    3  A    between atoms: N_6  and  C_7
REMARK    4  A    between atoms: C_10  and  C_13
REMARK                            x       y       z     vdW  Elec       q    Type
REMARK                         _______ _______ _______ _____ _____    ______ ____
ROOT
ATOM      1  N   UNL     1       1.429  -1.650   0.000  0.00  0.00    -0.189 NA
ATOM      2  C   UNL     1       2.143  -2.062   0.000  0.00  0.00    +0.344 C 
ATOM      3  N   UNL     1       2.858  -1.650   0.000  0.00  0.00    -0.158 NA
ATOM      4  O   UNL     1       2.143  -2.888   0.000  0.00  0.00    -0.249 OA
ENDROOT
BRANCH   3   5
ATOM      5  C   UNL     1       3.572  -2.062   0.000  0.00  0.00    +0.113 A 
ATOM      6  C   UNL     1       3.572  -2.888   0.000  0.00  0.00    +0.118 A 
ATOM      7  N   UNL     1       4.287  -3.300   0.000  0.00  0.00    -0.228 NA
ATOM      8  C   UNL     1       5.001  -2.888   0.000  0.00  0.00    +0.138 A 
ATOM      9  N   UNL     1       5.001  -2.062   0.000  0.00  0.00    -0.228 NA
ATOM     10  C   UNL     1       4.287  -1.650   0.000  0.00  0.00    +0.118 A 
BRANCH   8  11
ATOM     11  C   UNL     1       5.716  -3.300   0.000  0.00  0.00    +0.052 C 
ATOM     12  C   UNL     1       5.303  -4.014   0.000  0.00  0.00    +0.008 C 
ATOM     13  C   UNL     1       6.128  -2.586   0.000  0.00  0.00    +0.008 C 
ATOM     14  C   UNL     1       6.430  -3.712   0.000  0.00  0.00    +0.008 C 
ENDBRANCH   8  11
ENDBRANCH   3   5
BRANCH   1  16
ATOM     15  C   UNL     1       0.715  -2.888   0.000  0.00  0.00    +0.023 C 
ATOM     16  C   UNL     1       0.715  -2.062   0.000  0.00  0.00    +0.097 C 
BRANCH  16  17
ATOM     17  C   UNL     1       0.000  -1.650   0.000  0.00  0.00    +0.025 C 
ATOM     18  C   UNL     1       0.000  -0.825   0.000  0.00  0.00    +0.034 C 
ATOM     19  C   UNL     1      -0.715  -0.412   0.000  0.00  0.00    +0.142 C 
ATOM     20  O   UNL     1      -1.429  -0.825   0.000  0.00  0.00    -0.354 OA
ATOM     21  C   UNL     1      -1.429  -1.650   0.000  0.00  0.00    +0.142 C 
ATOM     22  C   UNL     1      -0.715  -2.062   0.000  0.00  0.00    +0.034 C 
ENDBRANCH  16  17
ENDBRANCH   1  16
TORSDOF 4
