REMARK  Name = 
REMARK  5 active torsions:
REMARK  status: ('A' for Active; 'I' for Inactive)
REMARK    1  A    between atoms: C_2  and  C_4
REMARK    2  A    between atoms: C_2  and  N_20
REMARK    3  A    between atoms: C_4  and  N_5
REMARK    4  A    between atoms: N_8  and  C_9
REMARK    5  A    between atoms: C_14  and  N_15
REMARK                            x       y       z     vdW  Elec       q    Type
REMARK                         _______ _______ _______ _____ _____    ______ ____
ROOT
ATOM      1  N   UNL     1       7.038  -2.660   0.000  0.00  0.00    -0.186 NA
ATOM      2  C   UNL     1       6.324  -2.247   0.000  0.00  0.00    +0.344 C 
ATOM      3  N   UNL     1       5.609  -2.660   0.000  0.00  0.00    -0.158 NA
ATOM      4  O   UNL     1       6.324  -1.422   0.000  0.00  0.00    -0.249 OA
ENDROOT
BRANCH   3   5
ATOM      5  C   UNL     1       4.895  -2.247   0.000  0.00  0.00    +0.106 A 
ATOM      6  C   UNL     1       4.180  -2.660   0.000  0.00  0.00    +0.147 A 
ATOM      7  N   UNL     1       3.466  -2.247   0.000  0.00  0.00    -0.228 NA
ATOM      8  C   UNL     1       3.466  -1.422   0.000  0.00  0.00    +0.100 A 
ATOM      9  C   UNL     1       4.180  -1.010   0.000  0.00  0.00    +0.022 A 
ATOM     10  C   UNL     1       4.895  -1.422   0.000  0.00  0.00    +0.021 A 
BRANCH   6  11
ATOM     11  N   UNL     1       4.180  -3.485   0.000  0.00  0.00    -0.292 N 
ATOM     12  C   UNL     1       3.513  -3.970   0.000  0.00  0.00    +0.092 C 
ATOM     13  C   UNL     1       3.768  -4.754   0.000  0.00  0.00    +0.023 C 
ATOM     14  C   UNL     1       4.593  -4.754   0.000  0.00  0.00    +0.023 C 
ATOM     15  C   UNL     1       4.848  -3.970   0.000  0.00  0.00    +0.092 C 
ENDBRANCH   6  11
ENDBRANCH   3   5
BRANCH   1  16
ATOM     16  C   UNL     1       7.753  -2.247   0.000  0.00  0.00    +0.131 C 
BRANCH  16  18
ATOM     17  C   UNL     1       8.054  -3.374   0.000  0.00  0.00    +0.018 C 
ATOM     18  C   UNL     1       8.467  -2.660   0.000  0.00  0.00    +0.066 C 
ATOM     19  C   UNL     1       8.879  -1.945   0.000  0.00  0.00    +0.018 C 
BRANCH  18  20
ATOM     20  N   UNL     1       9.181  -3.072   0.000  0.00  0.00    -0.269 NA
ATOM     21  C   UNL     1       9.181  -3.897   0.000  0.00  0.00    +0.105 C 
ATOM     22  C   UNL     1       9.896  -4.310   0.000  0.00  0.00    +0.159 C 
ATOM     23  O   UNL     1      10.610  -3.897   0.000  0.00  0.00    -0.351 OA
ATOM     24  C   UNL     1      10.610  -3.072   0.000  0.00  0.00    +0.159 C 
ATOM     25  C   UNL     1       9.896  -2.660   0.000  0.00  0.00    +0.105 C 
ENDBRANCH  18  20
ENDBRANCH  16  18
ENDBRANCH   1  16
TORSDOF 5
