REMARK  Name = 
REMARK  6 active torsions:
REMARK  status: ('A' for Active; 'I' for Inactive)
REMARK    1  A    between atoms: C_2  and  C_3
REMARK    2  A    between atoms: C_3  and  C_5
REMARK    3  A    between atoms: C_3  and  N_18
REMARK    4  A    between atoms: C_5  and  N_6
REMARK    5  A    between atoms: C_7  and  C_9
REMARK    6  A    between atoms: C_9  and  N_10
REMARK                            x       y       z     vdW  Elec       q    Type
REMARK                         _______ _______ _______ _____ _____    ______ ____
ROOT
ATOM      1  N   UNL     1       1.429  -2.475   0.000  0.00  0.00    -0.202 NA
ATOM      2  C   UNL     1       1.429  -3.300   0.000  0.00  0.00    +0.266 C 
ATOM      3  O   UNL     1       0.715  -3.712   0.000  0.00  0.00    -0.271 OA
ENDROOT
BRANCH   2   4
ATOM      4  C   UNL     1       2.143  -3.712   0.000  0.00  0.00    +0.217 C 
BRANCH   4   5
ATOM      5  N   UNL     1       2.143  -4.537   0.000  0.00  0.00    -0.204 N 
ATOM      6  C   UNL     1       1.429  -4.950   0.000  0.00  0.00    +0.277 A 
ATOM      7  O   UNL     1       0.715  -4.537   0.000  0.00  0.00    -0.265 OA
ATOM      8  C   UNL     1       1.429  -5.775   0.000  0.00  0.00    +0.067 A 
ATOM      9  C   UNL     1       2.143  -6.188   0.000  0.00  0.00    +0.069 A 
ATOM     10  C   UNL     1       2.858  -5.775   0.000  0.00  0.00    +0.295 A 
ATOM     11  O   UNL     1       3.572  -6.188   0.000  0.00  0.00    -0.264 OA
ATOM     12  N   UNL     1       2.858  -4.950   0.000  0.00  0.00    -0.124 NA
ENDBRANCH   4   5
ENDBRANCH   2   4
BRANCH   1  13
ATOM     13  C   UNL     1       0.715  -2.062   0.000  0.00  0.00    +0.130 C 
BRANCH  13  14
ATOM     14  C   UNL     1       0.715  -1.238   0.000  0.00  0.00    +0.066 C 
ATOM     15  C   UNL     1       1.540  -1.238   0.000  0.00  0.00    +0.018 C 
BRANCH  14  16
ATOM     16  N   UNL     1       0.715  -0.412   0.000  0.00  0.00    -0.269 NA
ATOM     17  C   UNL     1       1.429   0.000   0.000  0.00  0.00    +0.105 C 
ATOM     18  C   UNL     1       1.429   0.825   0.000  0.00  0.00    +0.159 C 
ATOM     19  O   UNL     1       0.715   1.238   0.000  0.00  0.00    -0.351 OA
ATOM     20  C   UNL     1       0.000   0.825   0.000  0.00  0.00    +0.159 C 
ATOM     21  C   UNL     1       0.000   0.000   0.000  0.00  0.00    +0.105 C 
ENDBRANCH  14  16
BRANCH  14  23
ATOM     22  C   UNL     1      -0.523  -0.523   0.000  0.00  0.00    +0.001 C 
ATOM     23  C   UNL     1      -0.111  -1.238   0.000  0.00  0.00    +0.016 C 
ENDBRANCH  14  23
ENDBRANCH  13  14
ENDBRANCH   1  13
TORSDOF 6
