REMARK  Name = 
REMARK  4 active torsions:
REMARK  status: ('A' for Active; 'I' for Inactive)
REMARK    1  A    between atoms: C_12  and  C_15
REMARK    2  A    between atoms: C_13  and  O_14
REMARK    3  A    between atoms: C_13  and  C_18
REMARK    4  A    between atoms: O_14  and  C_15
REMARK                            x       y       z     vdW  Elec       q    Type
REMARK                         _______ _______ _______ _____ _____    ______ ____
ROOT
ATOM      1  N   UNL     1       1.517   0.600   0.000  0.00  0.00    -0.256 N 
ATOM      2  C   UNL     1       0.950   1.204   0.000  0.00  0.00    +0.082 A 
ATOM      3  C   UNL     1       0.150   1.017   0.000  0.00  0.00    +0.053 A 
ATOM      4  C   UNL     1      -0.092   0.229   0.000  0.00  0.00    +0.280 A 
ATOM      5  O   UNL     1      -0.896   0.042   0.000  0.00  0.00    -0.265 OA
ATOM      6  N   UNL     1       0.475  -0.375   0.000  0.00  0.00    -0.157 NA
ATOM      7  C   UNL     1      -0.417   1.621   0.000  0.00  0.00    +0.038 C 
ATOM      8  C   UNL     1       2.342   0.617   0.000  0.00  0.00    +0.252 C 
ATOM      9  O   UNL     1       3.000   1.117   0.000  0.00  0.00    -0.329 OA
ATOM     10  C   UNL     1       3.675   0.646   0.000  0.00  0.00    +0.195 C 
ATOM     11  C   UNL     1       3.438  -0.146   0.000  0.00  0.00    +0.227 C 
ATOM     12  O   UNL     1       3.934  -0.804   0.000  0.00  0.00    -0.216 OA
ATOM     13  C   UNL     1       2.613  -0.163   0.000  0.00  0.00    +0.251 C 
ATOM     14  O   UNL     1       1.954  -0.658   0.000  0.00  0.00    -0.444 OA
ATOM     15  C   UNL     1       1.275  -0.188   0.000  0.00  0.00    +0.305 A 
ENDROOT
BRANCH  10  16
ATOM     16  C   UNL     1       4.455   0.917   0.000  0.00  0.00    +0.241 C 
BRANCH  16  17
ATOM     17  O   UNL     1       5.080   0.375   0.000  0.00  0.00    -0.443 OA
BRANCH  17  18
ATOM     18  C   UNL     1       5.859   0.646   0.000  0.00  0.00    +0.341 C 
ATOM     19  O   UNL     1       6.013   1.454   0.000  0.00  0.00    -0.245 OA
BRANCH  18  20
ATOM     20  C   UNL     1       6.484   0.104   0.000  0.00  0.00    +0.076 A 
ATOM     21  C   UNL     1       6.325  -0.704   0.000  0.00  0.00    +0.006 A 
ATOM     22  C   UNL     1       6.951  -1.246   0.000  0.00  0.00    +0.000 A 
ATOM     23  C   UNL     1       7.730  -0.975   0.000  0.00  0.00    +0.000 A 
ATOM     24  C   UNL     1       7.884  -0.163   0.000  0.00  0.00    +0.000 A 
ATOM     25  C   UNL     1       7.263   0.375   0.000  0.00  0.00    +0.006 A 
ENDBRANCH  18  20
ENDBRANCH  17  18
ENDBRANCH  16  17
ENDBRANCH  10  16
TORSDOF 4
