REMARK  Name = 
REMARK  4 active torsions:
REMARK  status: ('A' for Active; 'I' for Inactive)
REMARK    1  A    between atoms: C_7  and  N_8
REMARK    2  A    between atoms: N_11  and  C_12
REMARK    3  A    between atoms: N_15  and  C_16
REMARK    4  A    between atoms: C_16  and  C_17
REMARK                            x       y       z     vdW  Elec       q    Type
REMARK                         _______ _______ _______ _____ _____    ______ ____
ROOT
ATOM      1  N   UNL     1       1.299  -2.767   0.000  0.00  0.00    -0.158 NA
ATOM      2  C   UNL     1       1.128  -1.960   0.000  0.00  0.00    +0.344 C 
ATOM      3  N   UNL     1       0.343  -1.705   0.000  0.00  0.00    -0.189 NA
ATOM      4  O   UNL     1       1.741  -1.408   0.000  0.00  0.00    -0.249 OA
ENDROOT
BRANCH   1   7
ATOM      5  C   UNL     1       2.751  -1.712   0.000  0.00  0.00    +0.055 C 
ATOM      6  C   UNL     1       2.751  -2.537   0.000  0.00  0.00    +0.097 A 
ATOM      7  C   UNL     1       2.084  -3.022   0.000  0.00  0.00    +0.105 A 
ATOM      8  C   UNL     1       2.339  -3.806   0.000  0.00  0.00    +0.097 A 
ATOM      9  C   UNL     1       1.854  -4.474   0.000  0.00  0.00    +0.055 C 
ATOM     10  N   UNL     1       3.164  -3.806   0.000  0.00  0.00    -0.151 NA
ATOM     11  N   UNL     1       3.419  -3.022   0.000  0.00  0.00    -0.151 NA
ENDBRANCH   1   7
BRANCH   3  12
ATOM     12  C   UNL     1       0.171  -0.898   0.000  0.00  0.00    +0.100 C 
ATOM     13  C   UNL     1       0.784  -0.346   0.000  0.00  0.00    +0.039 C 
ATOM     14  C   UNL     1       0.613   0.461   0.000  0.00  0.00    +0.074 C 
ATOM     15  N   UNL     1      -0.172   0.716   0.000  0.00  0.00    -0.265 NA
ATOM     16  C   UNL     1      -0.785   0.164   0.000  0.00  0.00    +0.074 C 
ATOM     17  C   UNL     1      -0.613  -0.643   0.000  0.00  0.00    +0.039 C 
BRANCH  15  18
ATOM     18  C   UNL     1      -0.343   1.523   0.000  0.00  0.00    +0.162 C 
BRANCH  18  19
ATOM     19  C   UNL     1       0.270   2.075   0.000  0.00  0.00    +0.277 C 
ATOM     20  N   UNL     1       1.055   1.820   0.000  0.00  0.00    -0.087 NA
ATOM     21  O   UNL     1       0.098   2.882   0.000  0.00  0.00    -0.270 OA
ENDBRANCH  18  19
ENDBRANCH  15  18
ENDBRANCH   3  12
TORSDOF 4
