REMARK  Name = 
REMARK  2 active torsions:
REMARK  status: ('A' for Active; 'I' for Inactive)
REMARK    1  A    between atoms: C_6  and  C_7
REMARK    2  A    between atoms: N_9  and  C_10
REMARK                            x       y       z     vdW  Elec       q    Type
REMARK                         _______ _______ _______ _____ _____    ______ ____
ROOT
ATOM      1  C   UNL     1      -0.023  -2.705   0.000  0.00  0.00    +0.273 C 
ATOM      2  N   UNL     1      -0.636  -3.257   0.000  0.00  0.00    -0.176 NA
ATOM      3  O   UNL     1      -0.195  -1.898   0.000  0.00  0.00    -0.270 OA
ENDROOT
BRANCH   2   4
ATOM      4  C   UNL     1      -1.421  -3.002   0.000  0.00  0.00    +0.087 A 
ATOM      5  C   UNL     1      -1.592  -2.195   0.000  0.00  0.00    +0.086 A 
ATOM      6 CL   UNL     1      -0.979  -1.643   0.000  0.00  0.00    -0.080 Cl
ATOM      7  C   UNL     1      -2.377  -1.940   0.000  0.00  0.00    +0.071 A 
ATOM      8  C   UNL     1      -2.549  -1.133   0.000  0.00  0.00    +0.053 C 
ATOM      9  N   UNL     1      -2.990  -2.492   0.000  0.00  0.00    -0.247 NA
ATOM     10  C   UNL     1      -2.819  -3.299   0.000  0.00  0.00    +0.100 A 
ATOM     11  C   UNL     1      -2.034  -3.554   0.000  0.00  0.00    +0.038 A 
ENDBRANCH   2   4
BRANCH   1  14
ATOM     12  C   UNL     1       1.429  -1.650   0.000  0.00  0.00    +0.003 C 
ATOM     13  C   UNL     1       1.429  -2.475   0.000  0.00  0.00    +0.039 C 
ATOM     14  C   UNL     1       0.761  -2.960   0.000  0.00  0.00    +0.193 C 
ATOM     15  O   UNL     1       1.016  -3.744   0.000  0.00  0.00    -0.347 OA
ATOM     16  C   UNL     1       1.841  -3.744   0.000  0.00  0.00    +0.143 C 
ATOM     17  C   UNL     1       2.096  -2.960   0.000  0.00  0.00    +0.035 C 
ENDBRANCH   1  14
TORSDOF 2
