REMARK  Name = 
REMARK  8 active torsions:
REMARK  status: ('A' for Active; 'I' for Inactive)
REMARK    1  A    between atoms: N_1  and  C_7
REMARK    2  A    between atoms: N_2  and  C_9
REMARK    3  A    between atoms: C_7  and  C_8
REMARK    4  A    between atoms: N_10  and  C_14
REMARK    5  A    between atoms: N_10  and  C_17
REMARK    6  A    between atoms: C_14  and  C_19
REMARK    7  A    between atoms: C_17  and  C_18
REMARK    8  A    between atoms: C_18  and  C_20
REMARK                            x       y       z     vdW  Elec       q    Type
REMARK                         _______ _______ _______ _____ _____    ______ ____
ROOT
ATOM      1  C   UNL     1       1.425  -3.300   0.000  0.00  0.00    +0.249 C 
ATOM      2  O   UNL     1       1.425  -4.125   0.000  0.00  0.00    -0.273 OA
ATOM      3  N   UNL     1       2.142  -2.888   0.000  0.00  0.00    -0.274 N 
ENDROOT
BRANCH   3   4
ATOM      4  C   UNL     1       2.854  -3.300   0.000  0.00  0.00    +0.098 C 
BRANCH   4   5
ATOM      5  C   UNL     1       3.571  -2.888   0.000  0.00  0.00    +0.048 C 
BRANCH   5   6
ATOM      6  C   UNL     1       4.283  -3.300   0.000  0.00  0.00    -0.020 A 
ATOM      7  C   UNL     1       4.283  -4.125   0.000  0.00  0.00    -0.004 A 
ATOM      8  C   UNL     1       5.000  -4.537   0.000  0.00  0.00    -0.000 A 
ATOM      9  C   UNL     1       5.713  -4.125   0.000  0.00  0.00    -0.000 A 
ATOM     10  C   UNL     1       5.713  -3.300   0.000  0.00  0.00    -0.000 A 
ATOM     11  C   UNL     1       5.000  -2.888   0.000  0.00  0.00    -0.004 A 
ENDBRANCH   5   6
ENDBRANCH   4   5
ENDBRANCH   3   4
BRANCH   3  12
ATOM     12  C   UNL     1       2.142  -2.062   0.000  0.00  0.00    +0.120 C 
BRANCH  12  13
ATOM     13  C   UNL     1       2.854  -1.650   0.000  0.00  0.00    -0.002 A 
ATOM     14  C   UNL     1       3.571  -2.062   0.000  0.00  0.00    -0.003 A 
ATOM     15  C   UNL     1       4.283  -1.650   0.000  0.00  0.00    -0.000 A 
ATOM     16  C   UNL     1       4.283  -0.825   0.000  0.00  0.00    -0.000 A 
ATOM     17  C   UNL     1       3.571  -0.412   0.000  0.00  0.00    -0.000 A 
ATOM     18  C   UNL     1       2.854  -0.825   0.000  0.00  0.00    -0.003 A 
ENDBRANCH  12  13
ENDBRANCH   3  12
BRANCH   1  19
ATOM     19  C   UNL     1       0.713  -2.888   0.000  0.00  0.00    +0.199 C 
BRANCH  19  20
ATOM     20  N   UNL     1       0.000  -3.300   0.000  0.00  0.00    -0.238 N 
ATOM     21  C   UNL     1       0.000  -4.125   0.000  0.00  0.00    +0.294 A 
ATOM     22  O   UNL     1       0.713  -4.537   0.000  0.00  0.00    -0.264 OA
ATOM     23  C   UNL     1      -0.717  -4.537   0.000  0.00  0.00    +0.213 A 
ATOM     24  F   UNL     1      -0.717  -5.362   0.000  0.00  0.00    -0.198 F 
ATOM     25  C   UNL     1      -1.429  -4.125   0.000  0.00  0.00    +0.116 A 
ATOM     26  N   UNL     1      -1.429  -3.300   0.000  0.00  0.00    -0.255 N 
ATOM     27  C   UNL     1      -0.717  -2.888   0.000  0.00  0.00    +0.336 A 
ATOM     28  O   UNL     1      -0.717  -2.062   0.000  0.00  0.00    -0.246 OA
BRANCH  26  29
ATOM     29  C   UNL     1      -2.146  -2.888   0.000  0.00  0.00    +0.208 C 
ATOM     30  C   UNL     1      -2.900  -3.221   0.000  0.00  0.00    +0.057 C 
ATOM     31  C   UNL     1      -3.450  -2.608   0.000  0.00  0.00    +0.037 C 
ATOM     32  C   UNL     1      -3.038  -1.892   0.000  0.00  0.00    +0.144 C 
ATOM     33  O   UNL     1      -2.233  -2.067   0.000  0.00  0.00    -0.335 OA
ENDBRANCH  26  29
ENDBRANCH  19  20
ENDBRANCH   1  19
TORSDOF 8
