REMARK  Name = 
REMARK  4 active torsions:
REMARK  status: ('A' for Active; 'I' for Inactive)
REMARK    1  A    between atoms: C_4  and  C_7
REMARK    2  A    between atoms: C_7  and  C_10
REMARK    3  A    between atoms: C_10  and  N_11
REMARK    4  A    between atoms: N_11  and  C_12
REMARK                            x       y       z     vdW  Elec       q    Type
REMARK                         _______ _______ _______ _____ _____    ______ ____
ROOT
ATOM      1  C   UNL     1       2.326  -5.237   0.000  0.00  0.00    +0.164 C 
ATOM      2  O   UNL     1       2.994  -4.752   0.000  0.00  0.00    -0.220 OA
ATOM      3  C   UNL     1       1.659  -5.722   0.000  0.00  0.00    +0.039 C 
ENDROOT
BRANCH   1   8
ATOM      4  C   UNL     1       1.429  -2.475   0.000  0.00  0.00    +0.154 C 
ATOM      5  N   UNL     1       1.429  -3.300   0.000  0.00  0.00    -0.248 N 
ATOM      6  N   UNL     1       0.761  -3.785   0.000  0.00  0.00    -0.168 NA
ATOM      7  C   UNL     1       1.016  -4.569   0.000  0.00  0.00    +0.120 A 
ATOM      8  C   UNL     1       1.841  -4.569   0.000  0.00  0.00    +0.046 A 
ATOM      9  C   UNL     1       2.096  -3.785   0.000  0.00  0.00    +0.095 A 
ENDBRANCH   1   8
BRANCH   1  10
ATOM     10  C   UNL     1       2.811  -5.904   0.000  0.00  0.00    +0.123 C 
BRANCH  10  11
ATOM     11  N   UNL     1       3.632  -5.818   0.000  0.00  0.00    -0.216 NA
BRANCH  11  12
ATOM     12  C   UNL     1       4.117  -6.486   0.000  0.00  0.00    +0.084 C 
ATOM     13  C   UNL     1       3.781  -7.239   0.000  0.00  0.00    +0.075 C 
ATOM     14  S   UNL     1       4.266  -7.907   0.000  0.00  0.00    -0.139 S 
ATOM     15  C   UNL     1       5.087  -7.821   0.000  0.00  0.00    +0.058 C 
ATOM     16  C   UNL     1       5.422  -7.067   0.000  0.00  0.00    +0.013 C 
ATOM     17  C   UNL     1       4.937  -6.399   0.000  0.00  0.00    +0.019 C 
ENDBRANCH  11  12
ENDBRANCH  10  11
ENDBRANCH   1  10
TORSDOF 4
