REMARK  Name = 
REMARK  1 active torsions:
REMARK  status: ('A' for Active; 'I' for Inactive)
REMARK    1  A    between atoms: C_8  and  N_11
REMARK                            x       y       z     vdW  Elec       q    Type
REMARK                         _______ _______ _______ _____ _____    ______ ____
ROOT
ATOM      1  C   UNL     1       0.000   0.825   0.000  0.00  0.00    +0.097 C 
ATOM      2  C   UNL     1       0.000   0.000   0.000  0.00  0.00    +0.247 C 
ATOM      3  N   UNL     1       0.715  -0.412   0.000  0.00  0.00    -0.160 NA
ATOM      4  C   UNL     1       0.715  -1.238   0.000  0.00  0.00    +0.155 A 
ATOM      5  N   UNL     1       0.000  -1.650   0.000  0.00  0.00    -0.226 NA
ATOM      6  C   UNL     1       0.000  -2.475   0.000  0.00  0.00    +0.115 A 
ATOM      7  C   UNL     1       0.715  -2.888   0.000  0.00  0.00    +0.068 A 
ATOM      8  C   UNL     1       1.429  -2.475   0.000  0.00  0.00    +0.019 A 
ATOM      9  C   UNL     1       1.429  -1.650   0.000  0.00  0.00    +0.037 A 
ATOM     10  O   UNL     1      -0.715  -0.412   0.000  0.00  0.00    -0.273 OA
ENDROOT
BRANCH   7  11
ATOM     11  N   UNL     1       0.715  -3.712   0.000  0.00  0.00    -0.302 N 
ATOM     12  C   UNL     1       0.000  -4.125   0.000  0.00  0.00    +0.123 C 
ATOM     13  C   UNL     1       0.000  -4.950   0.000  0.00  0.00    +0.164 C 
ATOM     14  O   UNL     1       0.715  -5.362   0.000  0.00  0.00    -0.350 OA
ATOM     15  C   UNL     1       1.429  -4.950   0.000  0.00  0.00    +0.164 C 
ATOM     16  C   UNL     1       1.429  -4.125   0.000  0.00  0.00    +0.123 C 
ENDBRANCH   7  11
TORSDOF 1
