REMARK  Name = 
REMARK  3 active torsions:
REMARK  status: ('A' for Active; 'I' for Inactive)
REMARK    1  A    between atoms: C_6  and  C_14
REMARK    2  A    between atoms: N_10  and  C_11
REMARK    3  A    between atoms: C_11  and  C_12
REMARK                            x       y       z     vdW  Elec       q    Type
REMARK                         _______ _______ _______ _____ _____    ______ ____
ROOT
ATOM      1  C   UNL     1      -0.171  -0.698   0.000  0.00  0.00    +0.072 C 
ATOM      2  C   UNL     1       0.654  -0.698   0.000  0.00  0.00    +0.121 A 
ATOM      3  N   UNL     1       1.139  -1.365   0.000  0.00  0.00    -0.312 N 
ATOM      4  C   UNL     1       1.923  -1.110   0.000  0.00  0.00    +0.079 A 
ATOM      5  C   UNL     1       1.923  -0.285   0.000  0.00  0.00    +0.099 A 
ATOM      6  C   UNL     1       2.638   0.127   0.000  0.00  0.00    +0.027 A 
ATOM      7  C   UNL     1       3.352  -0.285   0.000  0.00  0.00    +0.081 A 
ATOM      8  C   UNL     1       3.352  -1.110   0.000  0.00  0.00    +0.008 A 
ATOM      9  C   UNL     1       2.638  -1.523   0.000  0.00  0.00    +0.019 A 
ATOM     10  N   UNL     1       1.139  -0.030   0.000  0.00  0.00    -0.231 NA
ENDROOT
BRANCH   7  11
ATOM     11  C   UNL     1       4.067   0.127   0.000  0.00  0.00    +0.388 C 
ATOM     12  O   UNL     1       4.781  -0.285   0.000  0.00  0.00    -0.241 OA
ATOM     13  O   UNL     1       4.067   0.952   0.000  0.00  0.00    -0.241 OA
ENDBRANCH   7  11
BRANCH   3  14
ATOM     14  C   UNL     1       0.884  -2.150   0.000  0.00  0.00    +0.143 C 
BRANCH  14  15
ATOM     15  C   UNL     1       0.077  -2.321   0.000  0.00  0.00    +0.206 C 
ATOM     16  O   UNL     1      -0.178  -3.106   0.000  0.00  0.00    -0.218 OA
ENDBRANCH  14  15
ENDBRANCH   3  14
TORSDOF 3
