REMARK  Name = 
REMARK  3 active torsions:
REMARK  status: ('A' for Active; 'I' for Inactive)
REMARK    1  A    between atoms: C_2  and  N_3
REMARK    2  A    between atoms: C_2  and  C_11
REMARK    3  A    between atoms: N_3  and  C_4
REMARK                            x       y       z     vdW  Elec       q    Type
REMARK                         _______ _______ _______ _____ _____    ______ ____
ROOT
ATOM      1  N   UNL     1       0.715  -1.238   0.000  0.00  0.00    -0.235 NA
ENDROOT
BRANCH   1   2
ATOM      2  C   UNL     1       0.715  -0.412   0.000  0.00  0.00    +0.085 A 
ATOM      3  C   UNL     1       1.429   0.000   0.000  0.00  0.00    +0.123 A 
ATOM      4  N   UNL     1       2.143  -0.412   0.000  0.00  0.00    -0.125 NA
ATOM      5  C   UNL     1       1.429   0.825   0.000  0.00  0.00    +0.118 A 
ATOM      6  N   UNL     1       0.715   1.238   0.000  0.00  0.00    -0.241 NA
ATOM      7  C   UNL     1       0.000   0.825   0.000  0.00  0.00    +0.100 A 
ATOM      8  C   UNL     1       0.000   0.000   0.000  0.00  0.00    +0.038 A 
ENDBRANCH   1   2
BRANCH   1  10
ATOM      9  C   UNL     1       2.143  -1.238   0.000  0.00  0.00    +0.026 C 
ATOM     10  C   UNL     1       1.429  -1.650   0.000  0.00  0.00    +0.120 C 
BRANCH  10  11
ATOM     11  C   UNL     1       1.429  -2.475   0.000  0.00  0.00    +0.135 C 
ATOM     12  O   UNL     1       0.761  -2.960   0.000  0.00  0.00    -0.354 OA
ATOM     13  C   UNL     1       1.016  -3.744   0.000  0.00  0.00    +0.142 C 
ATOM     14  C   UNL     1       1.841  -3.744   0.000  0.00  0.00    +0.035 C 
ATOM     15  C   UNL     1       2.096  -2.960   0.000  0.00  0.00    +0.034 C 
ENDBRANCH  10  11
ENDBRANCH   1  10
TORSDOF 3
