REMARK  Name = 
REMARK  2 active torsions:
REMARK  status: ('A' for Active; 'I' for Inactive)
REMARK    1  A    between atoms: C_2  and  C_4
REMARK    2  A    between atoms: C_4  and  C_5
REMARK                            x       y       z     vdW  Elec       q    Type
REMARK                         _______ _______ _______ _____ _____    ______ ____
ROOT
ATOM      1  C   UNL     1       0.715  -1.238   0.000  0.00  0.00    +0.079 A 
ATOM      2  N   UNL     1       0.047  -1.722   0.000  0.00  0.00    -0.227 NA
ATOM      3  C   UNL     1       0.302  -2.507   0.000  0.00  0.00    +0.170 A 
ATOM      4  N   UNL     1      -0.183  -3.175   0.000  0.00  0.00    -0.222 N 
ATOM      5  C   UNL     1      -1.003  -3.088   0.000  0.00  0.00    +0.328 C 
ATOM      6  O   UNL     1      -1.339  -2.335   0.000  0.00  0.00    -0.250 OA
ATOM      7  N   UNL     1      -1.488  -3.756   0.000  0.00  0.00    -0.188 NA
ATOM      8  C   UNL     1      -1.153  -4.509   0.000  0.00  0.00    +0.119 C 
ATOM      9  C   UNL     1      -0.332  -4.596   0.000  0.00  0.00    +0.045 C 
ATOM     10  C   UNL     1       0.153  -3.928   0.000  0.00  0.00    +0.104 C 
ATOM     11  S   UNL     1       1.127  -2.507   0.000  0.00  0.00    -0.051 S 
ATOM     12  C   UNL     1       1.382  -1.722   0.000  0.00  0.00    +0.053 A 
ENDROOT
BRANCH   1  13
ATOM     13  C   UNL     1       0.715  -0.412   0.000  0.00  0.00    +0.160 C 
BRANCH  13  15
ATOM     14  O   UNL     1       1.429   0.825   0.000  0.00  0.00    -0.245 OA
ATOM     15  C   UNL     1       1.429   0.000   0.000  0.00  0.00    +0.371 C 
ATOM     16  O   UNL     1       2.143  -0.412   0.000  0.00  0.00    -0.245 OA
ENDBRANCH  13  15
ENDBRANCH   1  13
TORSDOF 2
