REMARK  Name = 
REMARK  5 active torsions:
REMARK  status: ('A' for Active; 'I' for Inactive)
REMARK    1  A    between atoms: C_2  and  C_3
REMARK    2  A    between atoms: C_3  and  N_5
REMARK    3  A    between atoms: C_6  and  C_8
REMARK    4  A    between atoms: C_8  and  N_10
REMARK    5  A    between atoms: C_11  and  C_13
REMARK                            x       y       z     vdW  Elec       q    Type
REMARK                         _______ _______ _______ _____ _____    ______ ____
ROOT
ATOM      1  N   UNL     1       6.430  -7.838   0.000  0.00  0.00    -0.194 NA
ATOM      2  C   UNL     1       7.145  -7.425   0.000  0.00  0.00    +0.267 C 
ATOM      3  O   UNL     1       7.145  -6.600   0.000  0.00  0.00    -0.268 OA
ENDROOT
BRANCH   2   4
ATOM      4  C   UNL     1       7.859  -7.838   0.000  0.00  0.00    +0.074 A 
ATOM      5  C   UNL     1       7.859  -8.662   0.000  0.00  0.00    +0.105 A 
ATOM      6  N   UNL     1       8.574  -9.075   0.000  0.00  0.00    -0.229 NA
ATOM      7  C   UNL     1       9.288  -8.662   0.000  0.00  0.00    +0.132 A 
ATOM      8  N   UNL     1      10.003  -9.075   0.000  0.00  0.00    -0.288 N 
ATOM      9  C   UNL     1      10.003  -9.900   0.000  0.00  0.00    +0.124 C 
ATOM     10  C   UNL     1      10.717 -10.312   0.000  0.00  0.00    +0.164 C 
ATOM     11  O   UNL     1      11.431  -9.900   0.000  0.00  0.00    -0.350 OA
ATOM     12  C   UNL     1      11.431  -9.075   0.000  0.00  0.00    +0.164 C 
ATOM     13  C   UNL     1      10.717  -8.662   0.000  0.00  0.00    +0.124 C 
ATOM     14  C   UNL     1       9.288  -7.838   0.000  0.00  0.00    +0.034 A 
ATOM     15  C   UNL     1       8.574  -7.425   0.000  0.00  0.00    +0.009 A 
ENDBRANCH   2   4
BRANCH   1  16
ATOM     16  C   UNL     1       5.716  -7.425   0.000  0.00  0.00    +0.173 C 
ATOM     17  C   UNL     1       5.716  -6.600   0.000  0.00  0.00    +0.033 C 
BRANCH  16  19
ATOM     18  N   UNL     1       4.287  -7.425   0.000  0.00  0.00    -0.206 NA
ATOM     19  C   UNL     1       5.001  -7.838   0.000  0.00  0.00    +0.261 C 
ATOM     20  O   UNL     1       5.001  -8.662   0.000  0.00  0.00    -0.271 OA
BRANCH  18  21
ATOM     21  C   UNL     1       3.572  -7.838   0.000  0.00  0.00    +0.095 C 
ATOM     22  C   UNL     1       3.572  -8.662   0.000  0.00  0.00    +0.023 C 
BRANCH  21  24
ATOM     23  C   UNL     1       2.143  -7.838   0.000  0.00  0.00    +0.002 C 
ATOM     24  C   UNL     1       2.858  -7.425   0.000  0.00  0.00    +0.022 C 
ENDBRANCH  21  24
ENDBRANCH  18  21
ENDBRANCH  16  19
ENDBRANCH   1  16
TORSDOF 5
