REMARK  Name = 
REMARK  4 active torsions:
REMARK  status: ('A' for Active; 'I' for Inactive)
REMARK    1  A    between atoms: N_1  and  C_8
REMARK    2  A    between atoms: N_2  and  C_7
REMARK    3  A    between atoms: C_8  and  C_15
REMARK    4  A    between atoms: C_11  and  C_16
REMARK                            x       y       z     vdW  Elec       q    Type
REMARK                         _______ _______ _______ _____ _____    ______ ____
ROOT
ATOM      1  N   UNL     1      -3.467   1.879   0.000  0.00  0.00    -0.243 N 
ATOM      2  C   UNL     1      -2.754   2.292   0.000  0.00  0.00    +0.294 A 
ATOM      3  O   UNL     1      -2.754   3.117   0.000  0.00  0.00    -0.264 OA
ATOM      4  C   UNL     1      -2.038   1.879   0.000  0.00  0.00    +0.213 A 
ATOM      5  F   UNL     1      -1.325   2.292   0.000  0.00  0.00    -0.198 F 
ATOM      6  C   UNL     1      -2.038   1.054   0.000  0.00  0.00    +0.116 A 
ATOM      7  N   UNL     1      -2.754   0.642   0.000  0.00  0.00    -0.255 N 
ATOM      8  C   UNL     1      -3.467   1.054   0.000  0.00  0.00    +0.336 A 
ATOM      9  O   UNL     1      -4.183   0.642   0.000  0.00  0.00    -0.246 OA
ENDROOT
BRANCH   7  10
ATOM     10  C   UNL     1      -2.754  -0.183   0.000  0.00  0.00    +0.208 C 
ATOM     11  C   UNL     1      -2.087  -0.667   0.000  0.00  0.00    +0.057 C 
ATOM     12  C   UNL     1      -2.342  -1.454   0.000  0.00  0.00    +0.037 C 
ATOM     13  C   UNL     1      -3.167  -1.454   0.000  0.00  0.00    +0.144 C 
ATOM     14  O   UNL     1      -3.421  -0.667   0.000  0.00  0.00    -0.335 OA
ENDBRANCH   7  10
BRANCH   1  15
ATOM     15  C   UNL     1      -4.183   2.292   0.000  0.00  0.00    +0.140 C 
BRANCH  15  16
ATOM     16  C   UNL     1      -4.896   1.879   0.000  0.00  0.00    +0.001 A 
ATOM     17  C   UNL     1      -4.896   1.054   0.000  0.00  0.00    -0.002 A 
ATOM     18  C   UNL     1      -5.612   0.642   0.000  0.00  0.00    +0.000 A 
ATOM     19  C   UNL     1      -6.321   1.054   0.000  0.00  0.00    +0.010 A 
ATOM     20  C   UNL     1      -6.321   1.879   0.000  0.00  0.00    +0.068 A 
ATOM     21  C   UNL     1      -5.612   2.292   0.000  0.00  0.00    +0.008 A 
BRANCH  20  22
ATOM     22  C   UNL     1      -7.037   2.292   0.000  0.00  0.00    +0.100 C 
ATOM     23  N   UNL     1      -7.750   2.704   0.000  0.00  0.00    -0.191 NA
ENDBRANCH  20  22
ENDBRANCH  15  16
ENDBRANCH   1  15
TORSDOF 4
