REMARK  Name = 
REMARK  6 active torsions:
REMARK  status: ('A' for Active; 'I' for Inactive)
REMARK    1  A    between atoms: C_2  and  C_3
REMARK    2  A    between atoms: C_8  and  N_9
REMARK    3  A    between atoms: C_10  and  C_12
REMARK    4  A    between atoms: N_17  and  C_18
REMARK    5  A    between atoms: C_18  and  C_19
REMARK    6  A    between atoms: C_19  and  O_20
REMARK                            x       y       z     vdW  Elec       q    Type
REMARK                         _______ _______ _______ _____ _____    ______ ____
ROOT
ATOM      1  N   UNL     1      -1.429  -2.475   0.000  0.00  0.00    -0.202 NA
ATOM      2  C   UNL     1      -1.429  -1.650   0.000  0.00  0.00    +0.284 C 
ATOM      3  O   UNL     1      -0.715  -1.238   0.000  0.00  0.00    -0.267 OA
ENDROOT
BRANCH   2   4
ATOM      4  C   UNL     1      -2.143  -1.238   0.000  0.00  0.00    +0.156 A 
ATOM      5  N   UNL     1      -2.143  -0.412   0.000  0.00  0.00    -0.162 NA
ATOM      6  N   UNL     1      -2.858   0.000   0.000  0.00  0.00    -0.214 N 
ATOM      7  C   UNL     1      -3.572  -0.412   0.000  0.00  0.00    +0.277 A 
ATOM      8  O   UNL     1      -4.287   0.000   0.000  0.00  0.00    -0.266 OA
ATOM      9  C   UNL     1      -3.572  -1.238   0.000  0.00  0.00    +0.064 A 
ATOM     10  C   UNL     1      -2.858  -1.650   0.000  0.00  0.00    +0.030 A 
BRANCH   6  11
ATOM     11  C   UNL     1      -2.858   0.825   0.000  0.00  0.00    +0.163 C 
BRANCH  11  12
ATOM     12  C   UNL     1      -3.572   1.238   0.000  0.00  0.00    +0.169 C 
BRANCH  12  13
ATOM     13  O   UNL     1      -3.572   2.062   0.000  0.00  0.00    -0.349 OA
ATOM     14  C   UNL     1      -4.287   2.475   0.000  0.00  0.00    +0.174 C 
ENDBRANCH  12  13
ENDBRANCH  11  12
ENDBRANCH   6  11
ENDBRANCH   2   4
BRANCH   1  16
ATOM     15  C   UNL     1       0.000  -2.475   0.000  0.00  0.00    +0.020 C 
ATOM     16  C   UNL     1      -0.715  -2.888   0.000  0.00  0.00    +0.096 C 
ATOM     17  C   UNL     1      -0.715  -3.712   0.000  0.00  0.00    +0.022 C 
ATOM     18  C   UNL     1       0.000  -4.125   0.000  0.00  0.00    +0.002 C 
ATOM     19  C   UNL     1       0.715  -3.712   0.000  0.00  0.00    +0.000 C 
ATOM     20  C   UNL     1       0.715  -2.888   0.000  0.00  0.00    +0.002 C 
BRANCH  15  22
ATOM     21  C   UNL     1       0.715  -1.238   0.000  0.00  0.00    +0.000 C 
ATOM     22  C   UNL     1       0.000  -1.650   0.000  0.00  0.00    +0.002 C 
ENDBRANCH  15  22
ENDBRANCH   1  16
TORSDOF 6
