REMARK  Name = 
REMARK  5 active torsions:
REMARK  status: ('A' for Active; 'I' for Inactive)
REMARK    1  A    between atoms: C_8  and  C_9
REMARK    2  A    between atoms: C_9  and  C_10
REMARK    3  A    between atoms: C_10  and  C_11
REMARK    4  A    between atoms: N_13  and  C_14
REMARK    5  A    between atoms: C_14  and  C_15
REMARK                            x       y       z     vdW  Elec       q    Type
REMARK                         _______ _______ _______ _____ _____    ______ ____
ROOT
ATOM      1  C   UNL     1      -0.715  -5.362   0.000  0.00  0.00    +0.052 C 
ATOM      2  C   UNL     1      -1.429  -4.950   0.000  0.00  0.00    +0.063 A 
ATOM      3  C   UNL     1      -1.429  -4.125   0.000  0.00  0.00    +0.050 A 
ATOM      4  C   UNL     1      -2.143  -3.712   0.000  0.00  0.00    +0.279 A 
ATOM      5  O   UNL     1      -2.143  -2.888   0.000  0.00  0.00    -0.265 OA
ATOM      6  N   UNL     1      -2.858  -4.125   0.000  0.00  0.00    -0.175 NA
ATOM      7  C   UNL     1      -2.858  -4.950   0.000  0.00  0.00    +0.223 A 
ATOM      8  N   UNL     1      -3.572  -5.362   0.000  0.00  0.00    -0.273 N 
ATOM      9  C   UNL     1      -4.287  -4.950   0.000  0.00  0.00    +0.126 C 
ATOM     10  C   UNL     1      -5.001  -5.362   0.000  0.00  0.00    +0.164 C 
ATOM     11  O   UNL     1      -5.001  -6.188   0.000  0.00  0.00    -0.350 OA
ATOM     12  C   UNL     1      -4.287  -6.600   0.000  0.00  0.00    +0.164 C 
ATOM     13  C   UNL     1      -3.572  -6.188   0.000  0.00  0.00    +0.126 C 
ATOM     14  N   UNL     1      -2.143  -5.362   0.000  0.00  0.00    -0.218 NA
ENDROOT
BRANCH   3  15
ATOM     15  C   UNL     1      -0.715  -3.712   0.000  0.00  0.00    +0.042 C 
BRANCH  15  16
ATOM     16  C   UNL     1       0.000  -4.125   0.000  0.00  0.00    +0.092 C 
BRANCH  16  17
ATOM     17  C   UNL     1       0.715  -3.712   0.000  0.00  0.00    +0.242 C 
ATOM     18  N   UNL     1       1.429  -4.125   0.000  0.00  0.00    -0.201 NA
ATOM     19  O   UNL     1       0.715  -2.888   0.000  0.00  0.00    -0.273 OA
BRANCH  18  20
ATOM     20  C   UNL     1       2.143  -3.712   0.000  0.00  0.00    +0.141 C 
BRANCH  20  21
ATOM     21  C   UNL     1       2.858  -4.125   0.000  0.00  0.00    -0.003 C 
ATOM     22  C   UNL     1       3.572  -3.712   0.000  0.00  0.00    -0.003 C 
ENDBRANCH  20  21
ENDBRANCH  18  20
ENDBRANCH  16  17
ENDBRANCH  15  16
ENDBRANCH   3  15
TORSDOF 5
