REMARK  Name = 
REMARK  5 active torsions:
REMARK  status: ('A' for Active; 'I' for Inactive)
REMARK    1  A    between atoms: N_2  and  C_10
REMARK    2  A    between atoms: C_10  and  C_12
REMARK    3  A    between atoms: C_11  and  C_14
REMARK    4  A    between atoms: C_12  and  C_15
REMARK    5  A    between atoms: C_14  and  C_21
REMARK                            x       y       z     vdW  Elec       q    Type
REMARK                         _______ _______ _______ _____ _____    ______ ____
ROOT
ATOM      1  C   UNL     1       1.924  -0.284   0.000  0.00  0.00    +0.149 A 
ATOM      2  N   UNL     1       1.139  -0.029   0.000  0.00  0.00    -0.219 NA
ATOM      3  C   UNL     1       0.651  -0.697   0.000  0.00  0.00    +0.180 A 
ATOM      4  N   UNL     1       1.139  -1.365   0.000  0.00  0.00    -0.292 N 
ATOM      5  C   UNL     1       1.924  -1.110   0.000  0.00  0.00    +0.167 A 
ATOM      6  N   UNL     1       2.642  -1.523   0.000  0.00  0.00    -0.205 NA
ATOM      7  C   UNL     1       3.355  -1.110   0.000  0.00  0.00    +0.201 A 
ATOM      8  N   UNL     1       3.355  -0.284   0.000  0.00  0.00    -0.207 NA
ATOM      9  C   UNL     1       2.642   0.129   0.000  0.00  0.00    +0.154 A 
ATOM     10  N   UNL     1       2.642   0.956   0.000  0.00  0.00    -0.289 N 
ATOM     11  C   UNL     1       1.924   1.369   0.000  0.00  0.00    +0.124 C 
ATOM     12  C   UNL     1       1.924   2.195   0.000  0.00  0.00    +0.164 C 
ATOM     13  O   UNL     1       2.642   2.608   0.000  0.00  0.00    -0.350 OA
ATOM     14  C   UNL     1       3.355   2.195   0.000  0.00  0.00    +0.162 C 
ATOM     15  C   UNL     1       3.355   1.369   0.000  0.00  0.00    +0.104 C 
ENDROOT
BRANCH   4  16
ATOM     16  C   UNL     1       0.885  -2.153   0.000  0.00  0.00    +0.144 C 
BRANCH  16  17
ATOM     17  C   UNL     1       1.436  -2.767   0.000  0.00  0.00    +0.201 C 
ATOM     18  O   UNL     1       2.245  -2.592   0.000  0.00  0.00    -0.218 OA
BRANCH  17  19
ATOM     19  C   UNL     1       1.181  -3.551   0.000  0.00  0.00    +0.147 C 
ATOM     20  C   UNL     1       1.665  -4.219   0.000  0.00  0.00    +0.035 C 
ATOM     21  C   UNL     1       1.181  -4.887   0.000  0.00  0.00    +0.035 C 
ATOM     22  C   UNL     1       0.396  -4.632   0.000  0.00  0.00    +0.142 C 
ATOM     23  O   UNL     1       0.396  -3.806   0.000  0.00  0.00    -0.354 OA
ENDBRANCH  17  19
ENDBRANCH  16  17
ENDBRANCH   4  16
BRANCH  15  24
ATOM     24  C   UNL     1       4.073   0.956   0.000  0.00  0.00    +0.022 C 
BRANCH  24  25
ATOM     25  C   UNL     1       4.787   1.369   0.000  0.00  0.00    +0.002 C 
ATOM     26  C   UNL     1       5.584   1.156   0.000  0.00  0.00    +0.000 C 
ATOM     27  C   UNL     1       5.797   1.953   0.000  0.00  0.00    +0.000 C 
ATOM     28  C   UNL     1       5.000   2.166   0.000  0.00  0.00    +0.000 C 
ENDBRANCH  24  25
ENDBRANCH  15  24
TORSDOF 5
