REMARK  Name = 
REMARK  2 active torsions:
REMARK  status: ('A' for Active; 'I' for Inactive)
REMARK    1  A    between atoms: C_4  and  N_5
REMARK    2  A    between atoms: C_9  and  C_10
REMARK                            x       y       z     vdW  Elec       q    Type
REMARK                         _______ _______ _______ _____ _____    ______ ____
ROOT
ATOM      1 CL   UNL     1       0.000   0.000   0.000  0.00  0.00    +0.000 Cl
ENDROOT
TORSDOF 0
REMARK  Name = 
REMARK  2 active torsions:
REMARK  status: ('A' for Active; 'I' for Inactive)
REMARK    1  A    between atoms: C_4  and  N_5
REMARK    2  A    between atoms: C_9  and  C_10
REMARK                            x       y       z     vdW  Elec       q    Type
REMARK                         _______ _______ _______ _____ _____    ______ ____
ROOT
ATOM      1 CL   UNL     1       2.004   0.000   0.000  0.00  0.00    +0.000 Cl
ENDROOT
TORSDOF 0
REMARK  Name = 
REMARK  2 active torsions:
REMARK  status: ('A' for Active; 'I' for Inactive)
REMARK    1  A    between atoms: C_4  and  N_5
REMARK    2  A    between atoms: C_9  and  C_10
REMARK                            x       y       z     vdW  Elec       q    Type
REMARK                         _______ _______ _______ _____ _____    ______ ____
ROOT
ATOM      1  N   UNL     1       0.977  -2.888   0.000  0.00  0.00    -0.296 N 
ATOM      2  C   UNL     1       0.310  -3.372   0.000  0.00  0.00    +0.144 A 
ATOM      3  N   UNL     1       0.565  -4.157   0.000  0.00  0.00    -0.133 NA
ATOM      4  N   UNL     1       1.390  -4.157   0.000  0.00  0.00    -0.126 NA
ATOM      5  C   UNL     1       1.645  -3.372   0.000  0.00  0.00    +0.202 A 
ENDROOT
BRANCH   2   6
ATOM      6  C   UNL     1      -0.475  -3.118   0.000  0.00  0.00    +0.076 C 
ATOM      7  C   UNL     1      -0.646  -2.311   0.000  0.00  0.00    +0.096 C 
ATOM      8  N   UNL     1      -1.431  -2.056   0.000  0.00  0.00    -0.218 NA
ATOM      9  C   UNL     1      -2.044  -2.608   0.000  0.00  0.00    +0.089 C 
ATOM     10  C   UNL     1      -1.872  -3.415   0.000  0.00  0.00    +0.019 C 
ATOM     11  C   UNL     1      -1.088  -3.670   0.000  0.00  0.00    +0.010 C 
ENDBRANCH   2   6
BRANCH   1  13
ATOM     12  C   UNL     1       1.692  -1.650   0.000  0.00  0.00    +0.027 C 
ATOM     13  C   UNL     1       0.977  -2.062   0.000  0.00  0.00    +0.109 C 
ENDBRANCH   1  13
TORSDOF 2
