REMARK  Name = 
REMARK  7 active torsions:
REMARK  status: ('A' for Active; 'I' for Inactive)
REMARK    1  A    between atoms: C_2  and  C_4
REMARK    2  A    between atoms: C_4  and  C_5
REMARK    3  A    between atoms: C_5  and  C_6
REMARK    4  A    between atoms: C_6  and  C_9
REMARK    5  A    between atoms: C_9  and  N_10
REMARK    6  A    between atoms: C_11  and  C_13
REMARK    7  A    between atoms: C_13  and  N_15
REMARK                            x       y       z     vdW  Elec       q    Type
REMARK                         _______ _______ _______ _____ _____    ______ ____
ROOT
ATOM      1  N   UNL     1      -0.147   3.177   0.000  0.00  0.00    -0.201 NA
ATOM      2  C   UNL     1      -0.147   2.352   0.000  0.00  0.00    +0.264 C 
ATOM      3  O   UNL     1      -0.861   1.939   0.000  0.00  0.00    -0.271 OA
ENDROOT
BRANCH   2   4
ATOM      4  C   UNL     1       0.568   1.939   0.000  0.00  0.00    +0.183 C 
ATOM      5  C   UNL     1       1.282   2.352   0.000  0.00  0.00    +0.036 C 
BRANCH   4   6
ATOM      6  N   UNL     1       0.568   1.114   0.000  0.00  0.00    -0.242 N 
ATOM      7  N   UNL     1      -0.100   0.629   0.000  0.00  0.00    -0.167 NA
ATOM      8  C   UNL     1       0.155  -0.155   0.000  0.00  0.00    +0.122 A 
ATOM      9  C   UNL     1       0.980  -0.155   0.000  0.00  0.00    +0.043 A 
ATOM     10  C   UNL     1       1.235   0.629   0.000  0.00  0.00    +0.097 A 
ENDBRANCH   4   6
ENDBRANCH   2   4
BRANCH   1  11
ATOM     11  C   UNL     1      -0.861   3.589   0.000  0.00  0.00    +0.145 C 
BRANCH  11  12
ATOM     12  C   UNL     1      -0.861   4.414   0.000  0.00  0.00    +0.147 C 
ATOM     13  O   UNL     1      -0.036   4.414   0.000  0.00  0.00    -0.224 OA
ATOM     14  C   UNL     1      -1.686   4.414   0.000  0.00  0.00    +0.035 C 
BRANCH  12  15
ATOM     15  C   UNL     1      -0.861   5.239   0.000  0.00  0.00    +0.032 C 
BRANCH  15  16
ATOM     16  C   UNL     1      -1.576   5.652   0.000  0.00  0.00    +0.003 C 
BRANCH  16  18
ATOM     17  C   UNL     1      -2.290   6.889   0.000  0.00  0.00    +0.000 C 
ATOM     18  C   UNL     1      -1.576   6.477   0.000  0.00  0.00    +0.000 C 
ATOM     19  C   UNL     1      -0.861   6.889   0.000  0.00  0.00    +0.000 C 
ENDBRANCH  16  18
ENDBRANCH  15  16
ENDBRANCH  12  15
ENDBRANCH  11  12
ENDBRANCH   1  11
TORSDOF 7
