REMARK  Name = 
REMARK  3 active torsions:
REMARK  status: ('A' for Active; 'I' for Inactive)
REMARK    1  A    between atoms: C_2  and  C_4
REMARK    2  A    between atoms: N_6  and  C_7
REMARK    3  A    between atoms: C_7  and  C_8
REMARK                            x       y       z     vdW  Elec       q    Type
REMARK                         _______ _______ _______ _____ _____    ______ ____
ROOT
ATOM      1  C   UNL     1       0.568   1.114   0.000  0.00  0.00    +0.180 A 
ATOM      2  N   UNL     1      -0.100   0.629   0.000  0.00  0.00    -0.124 NA
ATOM      3  N   UNL     1       0.155  -0.155   0.000  0.00  0.00    -0.064 NA
ATOM      4  N   UNL     1       0.980  -0.155   0.000  0.00  0.00    -0.227 N 
ATOM      5  C   UNL     1       1.235   0.629   0.000  0.00  0.00    +0.122 A 
ENDROOT
BRANCH   1   7
ATOM      6  N   UNL     1      -0.147   2.352   0.000  0.00  0.00    -0.082 NA
ATOM      7  C   UNL     1       0.568   1.939   0.000  0.00  0.00    +0.305 C 
ATOM      8  O   UNL     1       1.282   2.352   0.000  0.00  0.00    -0.265 OA
ENDBRANCH   1   7
BRANCH   4   9
ATOM      9  C   UNL     1       1.465  -0.823   0.000  0.00  0.00    +0.165 C 
BRANCH   9  10
ATOM     10  C   UNL     1       1.130  -1.576   0.000  0.00  0.00    +0.208 C 
ATOM     11  O   UNL     1       1.615  -2.244   0.000  0.00  0.00    -0.218 OA
ENDBRANCH   9  10
ENDBRANCH   4   9
TORSDOF 3
