REMARK  Name = 
REMARK  4 active torsions:
REMARK  status: ('A' for Active; 'I' for Inactive)
REMARK    1  A    between atoms: C_3  and  C_4
REMARK    2  A    between atoms: C_4  and  C_5
REMARK    3  A    between atoms: C_5  and  N_6
REMARK    4  A    between atoms: N_6  and  C_7
REMARK                            x       y       z     vdW  Elec       q    Type
REMARK                         _______ _______ _______ _____ _____    ______ ____
ROOT
ATOM      1  C   UNL     1      -1.265   0.542   0.000  0.00  0.00    +0.093 C 
ENDROOT
BRANCH   1   2
ATOM      2  C   UNL     1      -1.980   0.954   0.000  0.00  0.00    +0.048 C 
BRANCH   2   9
ATOM      3  C   UNL     1      -3.620   1.684   0.000  0.00  0.00    +0.051 C 
ATOM      4  C   UNL     1      -3.448   0.877   0.000  0.00  0.00    +0.054 A 
ATOM      5  N   UNL     1      -4.000   0.264   0.000  0.00  0.00    -0.253 N 
ATOM      6  C   UNL     1      -4.821   0.350   0.000  0.00  0.00    +0.153 C 
ATOM      7  N   UNL     1      -3.588  -0.450   0.000  0.00  0.00    -0.168 NA
ATOM      8  C   UNL     1      -2.781  -0.279   0.000  0.00  0.00    +0.117 A 
ATOM      9  C   UNL     1      -2.694   0.542   0.000  0.00  0.00    +0.013 A 
ENDBRANCH   2   9
ENDBRANCH   1   2
BRANCH   1  10
ATOM     10  N   UNL     1      -0.551   0.954   0.000  0.00  0.00    -0.219 NA
BRANCH  10  11
ATOM     11  C   UNL     1       0.164   0.542   0.000  0.00  0.00    +0.073 C 
ATOM     12  C   UNL     1       0.878   0.954   0.000  0.00  0.00    +0.016 C 
ATOM     13  C   UNL     1       0.672   0.129   0.000  0.00  0.00    +0.001 C 
ATOM     14  C   UNL     1       0.878  -0.696   0.000  0.00  0.00    +0.001 C 
ATOM     15  C   UNL     1       1.593  -0.283   0.000  0.00  0.00    +0.000 C 
ATOM     16  C   UNL     1       1.593   0.542   0.000  0.00  0.00    +0.001 C 
ATOM     17  C   UNL     1       0.164  -0.283   0.000  0.00  0.00    +0.017 C 
ENDBRANCH  10  11
ENDBRANCH   1  10
TORSDOF 4
