REMARK  Name = 
REMARK  3 active torsions:
REMARK  status: ('A' for Active; 'I' for Inactive)
REMARK    1  A    between atoms: N_4  and  C_5
REMARK    2  A    between atoms: C_5  and  C_6
REMARK    3  A    between atoms: C_13  and  C_14
REMARK                            x       y       z     vdW  Elec       q    Type
REMARK                         _______ _______ _______ _____ _____    ______ ____
ROOT
ATOM      1  C   UNL     1       0.884  -2.150   0.000  0.00  0.00    +0.054 C 
ATOM      2  C   UNL     1       1.139  -1.365   0.000  0.00  0.00    +0.082 A 
ATOM      3  C   UNL     1       1.923  -1.110   0.000  0.00  0.00    +0.057 A 
ATOM      4  C   UNL     1       1.923  -0.285   0.000  0.00  0.00    +0.160 A 
ATOM      5  N   UNL     1       2.638   0.127   0.000  0.00  0.00    -0.231 NA
ATOM      6  C   UNL     1       3.352  -0.285   0.000  0.00  0.00    +0.061 A 
ATOM      7  C   UNL     1       3.352  -1.110   0.000  0.00  0.00    +0.021 A 
ATOM      8  C   UNL     1       4.067   0.127   0.000  0.00  0.00    +0.052 C 
ATOM      9  N   UNL     1       1.139  -0.030   0.000  0.00  0.00    -0.232 N 
ATOM     10  C   UNL     1       2.638  -1.523   0.000  0.00  0.00    +0.085 A 
ATOM     11  N   UNL     1       0.654  -0.698   0.000  0.00  0.00    -0.172 NA
ENDROOT
BRANCH  10  12
ATOM     12  C   UNL     1       2.638  -2.348   0.000  0.00  0.00    +0.388 C 
ATOM     13  O   UNL     1       1.923  -2.760   0.000  0.00  0.00    -0.241 OA
ATOM     14  O   UNL     1       3.352  -2.760   0.000  0.00  0.00    -0.241 OA
ENDBRANCH  10  12
BRANCH   9  15
ATOM     15  C   UNL     1       0.884   0.754   0.000  0.00  0.00    +0.165 C 
BRANCH  15  16
ATOM     16  C   UNL     1       0.077   0.926   0.000  0.00  0.00    +0.208 C 
ATOM     17  O   UNL     1      -0.178   1.710   0.000  0.00  0.00    -0.218 OA
ENDBRANCH  15  16
ENDBRANCH   9  15
TORSDOF 3
