REMARK  Name = 
REMARK  3 active torsions:
REMARK  status: ('A' for Active; 'I' for Inactive)
REMARK    1  A    between atoms: N_9  and  C_10
REMARK    2  A    between atoms: C_10  and  C_11
REMARK    3  A    between atoms: C_11  and  C_13
REMARK                            x       y       z     vdW  Elec       q    Type
REMARK                         _______ _______ _______ _____ _____    ______ ____
ROOT
ATOM      1  C   UNL     1       3.279   2.062   0.000  0.00  0.00    +0.137 C 
ATOM      2  N   UNL     1       3.279   1.238   0.000  0.00  0.00    -0.261 N 
ATOM      3  C   UNL     1       2.564   0.825   0.000  0.00  0.00    +0.170 A 
ATOM      4  C   UNL     1       2.564   0.000   0.000  0.00  0.00    +0.155 A 
ATOM      5  N   UNL     1       1.780  -0.255   0.000  0.00  0.00    -0.301 N 
ATOM      6  C   UNL     1       1.295   0.412   0.000  0.00  0.00    +0.180 A 
ATOM      7  C   UNL     1       3.279  -0.412   0.000  0.00  0.00    +0.302 A 
ATOM      8  O   UNL     1       3.279  -1.238   0.000  0.00  0.00    -0.263 OA
ATOM      9  N   UNL     1       3.993   0.000   0.000  0.00  0.00    -0.152 NA
ATOM     10  N   UNL     1       1.780   1.080   0.000  0.00  0.00    -0.206 NA
ATOM     11  C   UNL     1       3.993   0.825   0.000  0.00  0.00    +0.354 A 
ATOM     12  O   UNL     1       4.708   1.238   0.000  0.00  0.00    -0.244 OA
ENDROOT
BRANCH   5  13
ATOM     13  C   UNL     1       1.525  -1.040   0.000  0.00  0.00    +0.145 C 
BRANCH  13  14
ATOM     14  C   UNL     1       2.077  -1.653   0.000  0.00  0.00    +0.197 C 
ATOM     15  O   UNL     1       2.884  -1.481   0.000  0.00  0.00    -0.216 OA
BRANCH  14  16
ATOM     16  C   UNL     1       1.822  -2.437   0.000  0.00  0.00    +0.010 A 
ATOM     17  C   UNL     1       1.015  -2.609   0.000  0.00  0.00    -0.002 A 
ATOM     18  C   UNL     1       0.760  -3.393   0.000  0.00  0.00    -0.000 A 
ATOM     19  C   UNL     1       1.312  -4.006   0.000  0.00  0.00    -0.000 A 
ATOM     20  C   UNL     1       2.119  -3.835   0.000  0.00  0.00    -0.000 A 
ATOM     21  C   UNL     1       2.374  -3.050   0.000  0.00  0.00    -0.002 A 
ENDBRANCH  14  16
ENDBRANCH  13  14
ENDBRANCH   5  13
TORSDOF 3
