REMARK  Name = 
REMARK  4 active torsions:
REMARK  status: ('A' for Active; 'I' for Inactive)
REMARK    1  A    between atoms: O_2  and  C_3
REMARK    2  A    between atoms: C_3  and  C_6
REMARK    3  A    between atoms: N_8  and  C_9
REMARK    4  A    between atoms: C_12  and  N_13
REMARK                            x       y       z     vdW  Elec       q    Type
REMARK                         _______ _______ _______ _____ _____    ______ ____
ROOT
ATOM      1  C   UNL     1       0.715  -1.238   0.000  0.00  0.00    +0.092 A 
ATOM      2  C   UNL     1       0.000  -1.650   0.000  0.00  0.00    +0.017 A 
ATOM      3  C   UNL     1       0.000  -2.475   0.000  0.00  0.00    +0.011 A 
ATOM      4  C   UNL     1      -0.715  -2.888   0.000  0.00  0.00    +0.034 C 
ATOM      5  C   UNL     1       0.715  -2.888   0.000  0.00  0.00    +0.128 A 
ATOM      6  N   UNL     1       1.429  -2.475   0.000  0.00  0.00    -0.228 NA
ATOM      7  C   UNL     1       1.429  -1.650   0.000  0.00  0.00    +0.117 A 
ENDROOT
BRANCH   5   8
ATOM      8  N   UNL     1       0.715  -3.712   0.000  0.00  0.00    -0.293 N 
ATOM      9  C   UNL     1       0.000  -4.125   0.000  0.00  0.00    +0.092 C 
ATOM     10  C   UNL     1       0.000  -4.950   0.000  0.00  0.00    +0.022 C 
ATOM     11  C   UNL     1       0.715  -5.362   0.000  0.00  0.00    +0.004 C 
ATOM     12  C   UNL     1       1.429  -4.950   0.000  0.00  0.00    +0.022 C 
ATOM     13  C   UNL     1       1.429  -4.125   0.000  0.00  0.00    +0.092 C 
ENDBRANCH   5   8
BRANCH   1  15
ATOM     14  C   UNL     1       0.000   0.000   0.000  0.00  0.00    +0.270 C 
ATOM     15  N   UNL     1       0.715  -0.412   0.000  0.00  0.00    -0.176 NA
ATOM     16  O   UNL     1      -0.715  -0.412   0.000  0.00  0.00    -0.270 OA
BRANCH  14  17
ATOM     17  C   UNL     1       0.000   0.825   0.000  0.00  0.00    +0.163 C 
ATOM     18  C   UNL     1       0.825   0.825   0.000  0.00  0.00    +0.039 C 
ATOM     19  C   UNL     1      -0.825   0.825   0.000  0.00  0.00    +0.039 C 
BRANCH  17  21
ATOM     20  C   UNL     1      -0.715   2.062   0.000  0.00  0.00    +0.175 C 
ATOM     21  O   UNL     1       0.000   1.650   0.000  0.00  0.00    -0.347 OA
ENDBRANCH  17  21
ENDBRANCH  14  17
ENDBRANCH   1  15
TORSDOF 4
