REMARK  Name = 
REMARK  5 active torsions:
REMARK  status: ('A' for Active; 'I' for Inactive)
REMARK    1  A    between atoms: N_5  and  C_6
REMARK    2  A    between atoms: C_6  and  C_7
REMARK    3  A    between atoms: C_7  and  C_9
REMARK    4  A    between atoms: C_9  and  N_10
REMARK    5  A    between atoms: N_13  and  C_14
REMARK                            x       y       z     vdW  Elec       q    Type
REMARK                         _______ _______ _______ _____ _____    ______ ____
ROOT
ATOM      1  C   UNL     1       0.715   2.062   0.000  0.00  0.00    +0.151 C 
ENDROOT
BRANCH   1   2
ATOM      2  N   UNL     1       1.429   2.475   0.000  0.00  0.00    -0.184 NA
ATOM      3  C   UNL     1       2.143   2.062   0.000  0.00  0.00    +0.346 C 
ATOM      4  N   UNL     1       2.858   2.475   0.000  0.00  0.00    -0.124 NA
ATOM      5  O   UNL     1       2.143   1.238   0.000  0.00  0.00    -0.249 OA
BRANCH   4   6
ATOM      6  C   UNL     1       3.572   2.062   0.000  0.00  0.00    +0.253 A 
ATOM      7  O   UNL     1       3.659   1.242   0.000  0.00  0.00    -0.337 OA
ATOM      8  N   UNL     1       4.466   1.071   0.000  0.00  0.00    -0.080 NA
ATOM      9  C   UNL     1       4.878   1.785   0.000  0.00  0.00    +0.103 A 
ATOM     10  C   UNL     1       5.699   1.871   0.000  0.00  0.00    +0.056 C 
ATOM     11  C   UNL     1       4.326   2.398   0.000  0.00  0.00    +0.076 A 
ENDBRANCH   4   6
ENDBRANCH   1   2
BRANCH   1  12
ATOM     12  C   UNL     1       0.000   2.475   0.000  0.00  0.00    +0.189 C 
ATOM     13  O   UNL     1       0.000   3.300   0.000  0.00  0.00    -0.220 OA
BRANCH  12  14
ATOM     14  C   UNL     1      -0.715   2.062   0.000  0.00  0.00    +0.107 C 
BRANCH  14  19
ATOM     15  C   UNL     1      -3.572   3.712   0.000  0.00  0.00    +0.000 C 
ATOM     16  C   UNL     1      -2.858   3.300   0.000  0.00  0.00    +0.003 C 
ATOM     17  C   UNL     1      -2.858   2.475   0.000  0.00  0.00    +0.017 C 
ATOM     18  C   UNL     1      -2.143   2.062   0.000  0.00  0.00    +0.072 C 
ATOM     19  N   UNL     1      -1.429   2.475   0.000  0.00  0.00    -0.271 NA
ATOM     20  C   UNL     1      -1.429   3.300   0.000  0.00  0.00    +0.072 C 
ATOM     21  C   UNL     1      -2.143   3.712   0.000  0.00  0.00    +0.017 C 
ENDBRANCH  14  19
ENDBRANCH  12  14
ENDBRANCH   1  12
TORSDOF 5
