REMARK  Name = 
REMARK  4 active torsions:
REMARK  status: ('A' for Active; 'I' for Inactive)
REMARK    1  A    between atoms: C_3  and  C_5
REMARK    2  A    between atoms: C_5  and  C_6
REMARK    3  A    between atoms: C_9  and  C_10
REMARK    4  A    between atoms: C_10  and  C_11
REMARK                            x       y       z     vdW  Elec       q    Type
REMARK                         _______ _______ _______ _____ _____    ______ ____
ROOT
ATOM      1  C   UNL     1       2.533  -0.655   0.000  0.00  0.00    +0.190 A 
ATOM      2  N   UNL     1       1.865  -1.140   0.000  0.00  0.00    -0.194 NA
ATOM      3  C   UNL     1       2.120  -1.925   0.000  0.00  0.00    +0.237 A 
ATOM      4  O   UNL     1       2.946  -1.925   0.000  0.00  0.00    -0.337 OA
ATOM      5  N   UNL     1       3.200  -1.140   0.000  0.00  0.00    -0.060 NA
ENDROOT
BRANCH   1   6
ATOM      6  C   UNL     1       2.533   0.170   0.000  0.00  0.00    +0.156 C 
BRANCH   6   9
ATOM      7  C   UNL     1       3.962   1.820   0.000  0.00  0.00    +0.139 C 
ATOM      8  N   UNL     1       3.248   1.407   0.000  0.00  0.00    -0.203 NA
ATOM      9  C   UNL     1       3.248   0.582   0.000  0.00  0.00    +0.249 C 
ATOM     10  O   UNL     1       3.962   0.170   0.000  0.00  0.00    -0.273 OA
ENDBRANCH   6   9
ENDBRANCH   1   6
BRANCH   3  11
ATOM     11  C   UNL     1       1.636  -2.592   0.000  0.00  0.00    +0.092 C 
BRANCH  11  12
ATOM     12  C   UNL     1       0.815  -2.506   0.000  0.00  0.00    +0.031 C 
ATOM     13  C   UNL     1       0.403  -1.792   0.000  0.00  0.00    -0.031 C 
ATOM     14  C   UNL     1      -0.404  -1.963   0.000  0.00  0.00    -0.031 C 
ATOM     15  C   UNL     1      -0.491  -2.784   0.000  0.00  0.00    +0.026 C 
ATOM     16  C   UNL     1       0.263  -3.119   0.000  0.00  0.00    +0.009 C 
ENDBRANCH  11  12
ENDBRANCH   3  11
TORSDOF 4
