REMARK  Name = 
REMARK  5 active torsions:
REMARK  status: ('A' for Active; 'I' for Inactive)
REMARK    1  A    between atoms: N_2  and  C_13
REMARK    2  A    between atoms: C_4  and  N_7
REMARK    3  A    between atoms: N_7  and  C_11
REMARK    4  A    between atoms: N_8  and  C_18
REMARK    5  A    between atoms: C_13  and  C_16
REMARK                            x       y       z     vdW  Elec       q    Type
REMARK                         _______ _______ _______ _____ _____    ______ ____
ROOT
ATOM      1  C   UNL     1       2.562   0.825   0.000  0.00  0.00    +0.149 A 
ATOM      2  N   UNL     1       1.779   1.083   0.000  0.00  0.00    -0.219 NA
ATOM      3  C   UNL     1       1.292   0.412   0.000  0.00  0.00    +0.180 A 
ATOM      4  N   UNL     1       1.779  -0.254   0.000  0.00  0.00    -0.292 N 
ATOM      5  C   UNL     1       3.275   1.238   0.000  0.00  0.00    +0.154 A 
ATOM      6  N   UNL     1       3.992   0.825   0.000  0.00  0.00    -0.207 NA
ATOM      7  C   UNL     1       3.992   0.000   0.000  0.00  0.00    +0.201 A 
ATOM      8  N   UNL     1       3.275  -0.412   0.000  0.00  0.00    -0.205 NA
ATOM      9  C   UNL     1       2.562   0.000   0.000  0.00  0.00    +0.167 A 
ENDROOT
BRANCH   5  10
ATOM     10  N   UNL     1       3.275   2.062   0.000  0.00  0.00    -0.290 N 
ATOM     11  C   UNL     1       2.562   2.475   0.000  0.00  0.00    +0.114 C 
BRANCH  10  12
ATOM     12  C   UNL     1       3.992   2.475   0.000  0.00  0.00    +0.092 C 
ATOM     13  C   UNL     1       4.746   2.142   0.000  0.00  0.00    +0.039 C 
ATOM     14  C   UNL     1       5.296   2.754   0.000  0.00  0.00    +0.074 C 
ATOM     15  N   UNL     1       4.883   3.471   0.000  0.00  0.00    -0.273 NA
ATOM     16  C   UNL     1       4.079   3.296   0.000  0.00  0.00    +0.092 C 
BRANCH  15  17
ATOM     17  C   UNL     1       5.221   4.217   0.000  0.00  0.00    +0.058 C 
ATOM     18  C   UNL     1       4.733   4.888   0.000  0.00  0.00    +0.017 C 
ATOM     19  C   UNL     1       6.042   4.304   0.000  0.00  0.00    +0.017 C 
ENDBRANCH  15  17
ENDBRANCH  10  12
ENDBRANCH   5  10
BRANCH   4  20
ATOM     20  C   UNL     1       1.521  -1.038   0.000  0.00  0.00    +0.139 C 
BRANCH  20  21
ATOM     21  C   UNL     1       2.075  -1.650   0.000  0.00  0.00    +0.152 C 
ATOM     22  O   UNL     1       1.375  -2.087   0.000  0.00  0.00    -0.223 OA
ATOM     23  C   UNL     1       2.583  -1.000   0.000  0.00  0.00    +0.064 C 
ATOM     24  C   UNL     1       3.400  -1.117   0.000  0.00  0.00    +0.145 C 
ATOM     25  O   UNL     1       3.708  -1.879   0.000  0.00  0.00    -0.354 OA
ATOM     26  C   UNL     1       3.200  -2.529   0.000  0.00  0.00    +0.145 C 
ATOM     27  C   UNL     1       2.383  -2.417   0.000  0.00  0.00    +0.064 C 
ENDBRANCH  20  21
ENDBRANCH   4  20
TORSDOF 5
