REMARK  Name = 
REMARK  3 active torsions:
REMARK  status: ('A' for Active; 'I' for Inactive)
REMARK    1  A    between atoms: C_6  and  C_7
REMARK    2  A    between atoms: C_7  and  N_8
REMARK    3  A    between atoms: C_13  and  C_15
REMARK                            x       y       z     vdW  Elec       q    Type
REMARK                         _______ _______ _______ _____ _____    ______ ____
ROOT
ATOM      1  N   UNL     1      -2.143  -3.712   0.000  0.00  0.00    -0.201 NA
ATOM      2  C   UNL     1      -2.858  -4.125   0.000  0.00  0.00    +0.237 A 
ATOM      3  N   UNL     1      -3.572  -3.712   0.000  0.00  0.00    -0.208 NA
ATOM      4  C   UNL     1      -4.287  -4.125   0.000  0.00  0.00    +0.157 A 
ATOM      5  C   UNL     1      -4.287  -4.950   0.000  0.00  0.00    +0.044 A 
ATOM      6  C   UNL     1      -3.572  -5.362   0.000  0.00  0.00    +0.103 A 
ATOM      7  N   UNL     1      -2.858  -4.950   0.000  0.00  0.00    -0.211 NA
ENDROOT
BRANCH   4   8
ATOM      8  C   UNL     1      -5.001  -3.712   0.000  0.00  0.00    +0.435 C 
ATOM      9  F   UNL     1      -5.414  -4.427   0.000  0.00  0.00    -0.164 F 
ATOM     10  F   UNL     1      -4.589  -2.998   0.000  0.00  0.00    -0.164 F 
ATOM     11  F   UNL     1      -5.716  -3.300   0.000  0.00  0.00    -0.164 F 
ENDBRANCH   4   8
BRANCH   1  12
ATOM     12  C   UNL     1      -1.429  -4.125   0.000  0.00  0.00    +0.146 C 
BRANCH  12  16
ATOM     13  C   UNL     1       0.000  -1.650   0.000  0.00  0.00    +0.090 C 
ATOM     14  N   UNL     1       0.000  -2.475   0.000  0.00  0.00    -0.267 NA
ATOM     15  C   UNL     1      -0.715  -2.888   0.000  0.00  0.00    +0.104 C 
ATOM     16  C   UNL     1      -0.715  -3.712   0.000  0.00  0.00    +0.153 C 
ATOM     17  O   UNL     1       0.000  -4.125   0.000  0.00  0.00    -0.352 OA
ATOM     18  C   UNL     1       0.715  -3.712   0.000  0.00  0.00    +0.159 C 
ATOM     19  C   UNL     1       0.715  -2.888   0.000  0.00  0.00    +0.105 C 
ENDBRANCH  12  16
ENDBRANCH   1  12
TORSDOF 3
