REMARK  Name = 
REMARK  5 active torsions:
REMARK  status: ('A' for Active; 'I' for Inactive)
REMARK    1  A    between atoms: N_3  and  C_7
REMARK    2  A    between atoms: C_4  and  C_12
REMARK    3  A    between atoms: C_10  and  C_14
REMARK    4  A    between atoms: N_11  and  C_12
REMARK    5  A    between atoms: N_11  and  C_14
REMARK                            x       y       z     vdW  Elec       q    Type
REMARK                         _______ _______ _______ _____ _____    ______ ____
ROOT
ATOM      1  C   UNL     1       1.342   1.158   0.000  0.00  0.00    +0.353 A 
ATOM      2  O   UNL     1       2.142   0.946   0.000  0.00  0.00    -0.244 OA
ATOM      3  N   UNL     1       0.758   0.575   0.000  0.00  0.00    -0.282 N 
ATOM      4  C   UNL     1      -0.037   0.792   0.000  0.00  0.00    +0.081 A 
ATOM      5  C   UNL     1      -0.250   1.588   0.000  0.00  0.00    +0.070 A 
ATOM      6  C   UNL     1       0.333   2.171   0.000  0.00  0.00    +0.282 A 
ATOM      7  O   UNL     1       0.121   2.967   0.000  0.00  0.00    -0.265 OA
ATOM      8  N   UNL     1       1.129   1.958   0.000  0.00  0.00    -0.153 NA
ENDROOT
BRANCH   3   9
ATOM      9  C   UNL     1       0.975  -0.221   0.000  0.00  0.00    +0.073 C 
ATOM     10  C   UNL     1       1.771  -0.008   0.000  0.00  0.00    +0.023 C 
ATOM     11  C   UNL     1       1.188  -1.017   0.000  0.00  0.00    +0.023 C 
ATOM     12  C   UNL     1       0.175  -0.433   0.000  0.00  0.00    +0.023 C 
ENDBRANCH   3   9
BRANCH   5  13
ATOM     13  C   UNL     1      -1.046   1.800   0.000  0.00  0.00    +0.121 C 
BRANCH  13  14
ATOM     14  N   UNL     1      -1.629   1.217   0.000  0.00  0.00    -0.210 NA
BRANCH  14  15
ATOM     15  C   UNL     1      -2.429   1.429   0.000  0.00  0.00    +0.119 C 
BRANCH  15  16
ATOM     16  C   UNL     1      -3.013   0.846   0.000  0.00  0.00    +0.143 C 
ATOM     17  C   UNL     1      -2.429   0.263   0.000  0.00  0.00    +0.032 C 
ATOM     18  C   UNL     1      -3.013  -0.321   0.000  0.00  0.00    +0.005 C 
ATOM     19  C   UNL     1      -3.596   0.263   0.000  0.00  0.00    +0.032 C 
ATOM     20  O   UNL     1      -3.596   1.429   0.000  0.00  0.00    -0.224 OA
ENDBRANCH  15  16
ENDBRANCH  14  15
ENDBRANCH  13  14
ENDBRANCH   5  13
TORSDOF 5
