REMARK  Name = 
REMARK  6 active torsions:
REMARK  status: ('A' for Active; 'I' for Inactive)
REMARK    1  A    between atoms: C_2  and  C_3
REMARK    2  A    between atoms: C_3  and  C_5
REMARK    3  A    between atoms: C_3  and  N_17
REMARK    4  A    between atoms: C_5  and  N_6
REMARK    5  A    between atoms: C_7  and  C_9
REMARK    6  A    between atoms: C_9  and  N_10
REMARK                            x       y       z     vdW  Elec       q    Type
REMARK                         _______ _______ _______ _____ _____    ______ ____
ROOT
ATOM      1  C   UNL     1       0.715  -2.062   0.000  0.00  0.00    +0.130 C 
ENDROOT
BRANCH   1   2
ATOM      2  N   UNL     1       1.429  -2.475   0.000  0.00  0.00    -0.202 NA
ATOM      3  C   UNL     1       1.429  -3.300   0.000  0.00  0.00    +0.265 C 
ATOM      4  O   UNL     1       0.715  -3.712   0.000  0.00  0.00    -0.271 OA
BRANCH   3   5
ATOM      5  C   UNL     1       2.143  -3.712   0.000  0.00  0.00    +0.196 C 
BRANCH   5   6
ATOM      6  N   UNL     1       2.143  -4.537   0.000  0.00  0.00    -0.285 N 
ATOM      7  C   UNL     1       1.429  -4.950   0.000  0.00  0.00    +0.261 A 
ATOM      8  O   UNL     1       0.715  -4.537   0.000  0.00  0.00    -0.267 OA
ATOM      9  C   UNL     1       1.429  -5.775   0.000  0.00  0.00    +0.061 A 
ATOM     10  C   UNL     1       2.143  -6.188   0.000  0.00  0.00    +0.006 A 
ATOM     11  C   UNL     1       2.858  -5.775   0.000  0.00  0.00    +0.019 A 
ATOM     12  C   UNL     1       2.858  -4.950   0.000  0.00  0.00    +0.079 A 
ENDBRANCH   5   6
ENDBRANCH   3   5
ENDBRANCH   1   2
BRANCH   1  13
ATOM     13  C   UNL     1       0.715  -1.238   0.000  0.00  0.00    +0.066 C 
ATOM     14  C   UNL     1       1.540  -1.238   0.000  0.00  0.00    +0.018 C 
BRANCH  13  15
ATOM     15  N   UNL     1       0.715  -0.412   0.000  0.00  0.00    -0.269 NA
ATOM     16  C   UNL     1       1.429   0.000   0.000  0.00  0.00    +0.105 C 
ATOM     17  C   UNL     1       1.429   0.825   0.000  0.00  0.00    +0.159 C 
ATOM     18  O   UNL     1       0.715   1.238   0.000  0.00  0.00    -0.351 OA
ATOM     19  C   UNL     1       0.000   0.825   0.000  0.00  0.00    +0.159 C 
ATOM     20  C   UNL     1       0.000   0.000   0.000  0.00  0.00    +0.105 C 
ENDBRANCH  13  15
BRANCH  13  22
ATOM     21  C   UNL     1      -0.523  -0.523   0.000  0.00  0.00    +0.001 C 
ATOM     22  C   UNL     1      -0.111  -1.238   0.000  0.00  0.00    +0.016 C 
ENDBRANCH  13  22
ENDBRANCH   1  13
TORSDOF 6
