REMARK  Name = 
REMARK  3 active torsions:
REMARK  status: ('A' for Active; 'I' for Inactive)
REMARK    1  A    between atoms: C_2  and  C_3
REMARK    2  A    between atoms: C_8  and  N_9
REMARK    3  A    between atoms: N_12  and  C_13
REMARK                            x       y       z     vdW  Elec       q    Type
REMARK                         _______ _______ _______ _____ _____    ______ ____
ROOT
ATOM      1  N   UNL     1       1.299  -2.767   0.000  0.00  0.00    -0.189 NA
ATOM      2  C   UNL     1       1.128  -1.960   0.000  0.00  0.00    +0.343 C 
ATOM      3  N   UNL     1       0.343  -1.705   0.000  0.00  0.00    -0.159 NA
ATOM      4  O   UNL     1       1.741  -1.408   0.000  0.00  0.00    -0.249 OA
ENDROOT
BRANCH   1   7
ATOM      5  C   UNL     1       2.199  -1.923   0.000  0.00  0.00    +0.004 C 
ATOM      6  C   UNL     1       2.751  -2.537   0.000  0.00  0.00    +0.049 C 
ATOM      7  C   UNL     1       2.084  -3.022   0.000  0.00  0.00    +0.099 C 
ATOM      8  C   UNL     1       2.339  -3.806   0.000  0.00  0.00    +0.022 C 
ATOM      9  C   UNL     1       3.164  -3.806   0.000  0.00  0.00    +0.002 C 
ATOM     10  C   UNL     1       3.419  -3.022   0.000  0.00  0.00    +0.004 C 
BRANCH   6  11
ATOM     11  C   UNL     1       3.303  -1.923   0.000  0.00  0.00    +0.184 C 
ATOM     12  O   UNL     1       3.048  -1.139   0.000  0.00  0.00    -0.220 OA
ENDBRANCH   6  11
ENDBRANCH   1   7
BRANCH   3  13
ATOM     13  C   UNL     1       0.171  -0.898   0.000  0.00  0.00    +0.094 A 
ATOM     14  C   UNL     1       0.784  -0.346   0.000  0.00  0.00    +0.115 A 
ATOM     15  N   UNL     1       0.613   0.461   0.000  0.00  0.00    -0.241 NA
ATOM     16  C   UNL     1      -0.172   0.716   0.000  0.00  0.00    +0.099 A 
ATOM     17  C   UNL     1      -0.785   0.164   0.000  0.00  0.00    +0.022 A 
ATOM     18  C   UNL     1      -0.613  -0.643   0.000  0.00  0.00    +0.020 A 
ENDBRANCH   3  13
TORSDOF 3
