REMARK  Name = 
REMARK  2 active torsions:
REMARK  status: ('A' for Active; 'I' for Inactive)
REMARK    1  A    between atoms: N_1  and  C1*_2
REMARK    2  A    between atoms: C4*_12  and  C5*_22
REMARK                            x       y       z     vdW  Elec       q    Type
REMARK                         _______ _______ _______ _____ _____    ______ ____
ROOT
ATOM      1  N   UNL     1      -1.004  -3.104   0.000  0.00  0.00    -0.269 N 
ATOM      2  C   UNL     1      -1.258  -2.321   0.000  0.00  0.00    +0.182 A 
ATOM      3  N   UNL     1      -0.592  -1.833   0.000  0.00  0.00    -0.219 NA
ATOM      4  C   UNL     1       0.075  -2.321   0.000  0.00  0.00    +0.149 A 
ATOM      5  C   UNL     1       0.883  -2.150   0.000  0.00  0.00    +0.158 A 
ATOM      6  N   UNL     1       1.433  -2.763   0.000  0.00  0.00    -0.207 NA
ATOM      7  C   UNL     1       1.179  -3.546   0.000  0.00  0.00    +0.201 A 
ATOM      8  N   UNL     1       0.371  -3.717   0.000  0.00  0.00    -0.205 NA
ATOM      9  N   UNL     1       1.137  -1.363   0.000  0.00  0.00    -0.271 N 
ATOM     10  C   UNL     1       0.650  -0.696   0.000  0.00  0.00    +0.102 C 
ATOM     11  C   UNL     1       1.137  -0.029   0.000  0.00  0.00    +0.049 C 
ATOM     12  C   UNL     1       1.921  -0.283   0.000  0.00  0.00    -0.007 A 
ATOM     13  C   UNL     1       2.638   0.129   0.000  0.00  0.00    -0.003 A 
ATOM     14  C   UNL     1       3.350  -0.283   0.000  0.00  0.00    -0.000 A 
ATOM     15  C   UNL     1       3.350  -1.108   0.000  0.00  0.00    +0.001 A 
ATOM     16  C   UNL     1       2.638  -1.521   0.000  0.00  0.00    +0.015 A 
ATOM     17  C   UNL     1       1.921  -1.108   0.000  0.00  0.00    +0.049 A 
ATOM     18  C   UNL     1      -0.179  -3.104   0.000  0.00  0.00    +0.169 A 
ENDROOT
BRANCH   1  19
ATOM     19  C1* UNL     1      -1.492  -3.771   0.000  0.00  0.00    +0.241 C 
ATOM     20  O4* UNL     1      -2.317  -3.771   0.000  0.00  0.00    -0.331 OA
ATOM     21  C4* UNL     1      -2.571  -4.554   0.000  0.00  0.00    +0.183 C 
ATOM     22  C3* UNL     1      -1.904  -5.042   0.000  0.00  0.00    +0.216 C 
ATOM     23  O3* UNL     1      -1.904  -5.867   0.000  0.00  0.00    -0.218 OA
ATOM     24  C2* UNL     1      -1.233  -4.554   0.000  0.00  0.00    +0.234 C 
ATOM     25  O2* UNL     1      -0.450  -4.812   0.000  0.00  0.00    -0.216 OA
BRANCH  21  26
ATOM     26  C5* UNL     1      -3.354  -4.812   0.000  0.00  0.00    +0.214 C 
ATOM     27  O5* UNL     1      -3.525  -5.617   0.000  0.00  0.00    -0.218 OA
ENDBRANCH  21  26
ENDBRANCH   1  19
TORSDOF 2
