REMARK  Name = 
REMARK  7 active torsions:
REMARK  status: ('A' for Active; 'I' for Inactive)
REMARK    1  A    between atoms: O_2  and  C_3
REMARK    2  A    between atoms: C_3  and  C_4
REMARK    3  A    between atoms: C_4  and  O_5
REMARK    4  A    between atoms: O_5  and  C_6
REMARK    5  A    between atoms: C_9  and  N_10
REMARK    6  A    between atoms: C_11  and  C_13
REMARK    7  A    between atoms: N_17  and  S_18
REMARK                            x       y       z     vdW  Elec       q    Type
REMARK                         _______ _______ _______ _____ _____    ______ ____
ROOT
ATOM      1  N   UNL     1       5.716  -4.125   0.000  0.00  0.00    -0.176 NA
ATOM      2  C   UNL     1       6.430  -3.712   0.000  0.00  0.00    +0.262 C 
ATOM      3  O   UNL     1       7.145  -4.125   0.000  0.00  0.00    -0.271 OA
ENDROOT
BRANCH   1   7
ATOM      4  C   UNL     1       3.572  -2.888   0.000  0.00  0.00    +0.225 A 
ATOM      5  N   UNL     1       3.572  -3.712   0.000  0.00  0.00    -0.209 NA
ATOM      6  C   UNL     1       4.287  -4.125   0.000  0.00  0.00    +0.119 A 
ATOM      7  C   UNL     1       5.001  -3.712   0.000  0.00  0.00    +0.093 A 
ATOM      8  C   UNL     1       5.001  -2.888   0.000  0.00  0.00    +0.023 A 
ATOM      9  C   UNL     1       4.287  -2.475   0.000  0.00  0.00    +0.059 A 
BRANCH   4  10
ATOM     10  O   UNL     1       2.858  -2.475   0.000  0.00  0.00    -0.457 OA
BRANCH  10  11
ATOM     11  C   UNL     1       2.143  -2.888   0.000  0.00  0.00    +0.239 C 
BRANCH  11  12
ATOM     12  C   UNL     1       1.429  -2.475   0.000  0.00  0.00    +0.189 C 
BRANCH  12  14
ATOM     13  C   UNL     1       0.000  -2.475   0.000  0.00  0.00    +0.174 C 
ATOM     14  O   UNL     1       0.715  -2.888   0.000  0.00  0.00    -0.347 OA
ENDBRANCH  12  14
ENDBRANCH  11  12
ENDBRANCH  10  11
ENDBRANCH   4  10
ENDBRANCH   1   7
BRANCH   2  15
ATOM     15  C   UNL     1       6.430  -2.888   0.000  0.00  0.00    +0.157 C 
ATOM     16  N   UNL     1       7.098  -2.403   0.000  0.00  0.00    -0.152 NA
ATOM     17  C   UNL     1       6.843  -1.618   0.000  0.00  0.00    +0.096 C 
ATOM     18  C   UNL     1       6.018  -1.618   0.000  0.00  0.00    +0.021 C 
ATOM     19  C   UNL     1       5.763  -2.403   0.000  0.00  0.00    +0.029 C 
BRANCH  16  20
ATOM     20  S   UNL     1       7.882  -2.658   0.000  0.00  0.00    +0.046 S 
ATOM     21  C   UNL     1       8.137  -1.873   0.000  0.00  0.00    +0.196 C 
ATOM     22  O   UNL     1       7.627  -3.442   0.000  0.00  0.00    -0.157 OA
ATOM     23  O   UNL     1       8.667  -2.913   0.000  0.00  0.00    -0.157 OA
ENDBRANCH  16  20
ENDBRANCH   2  15
TORSDOF 7
