REMARK  Name = 
REMARK  4 active torsions:
REMARK  status: ('A' for Active; 'I' for Inactive)
REMARK    1  A    between atoms: N_7  and  C_8
REMARK    2  A    between atoms: C_8  and  C_9
REMARK    3  A    between atoms: N_11  and  C_12
REMARK    4  A    between atoms: C_12  and  C_18
REMARK                            x       y       z     vdW  Elec       q    Type
REMARK                         _______ _______ _______ _____ _____    ______ ____
ROOT
ATOM      1  C   UNL     1       0.000  -3.048   0.000  0.00  0.00    +0.265 C 
ATOM      2  N   UNL     1       0.172  -3.855   0.000  0.00  0.00    -0.196 NA
ATOM      3  O   UNL     1      -0.784  -2.793   0.000  0.00  0.00    -0.271 OA
ENDROOT
BRANCH   2   4
ATOM      4  C   UNL     1      -0.441  -4.407   0.000  0.00  0.00    +0.171 C 
ATOM      5  C   UNL     1      -0.879  -3.708   0.000  0.00  0.00    +0.031 C 
ATOM      6  C   UNL     1      -1.703  -3.736   0.000  0.00  0.00    +0.002 C 
ATOM      7  C   UNL     1      -2.090  -4.465   0.000  0.00  0.00    +0.000 C 
ATOM      8  C   UNL     1      -1.653  -5.164   0.000  0.00  0.00    +0.002 C 
ATOM      9  C   UNL     1      -0.829  -5.136   0.000  0.00  0.00    +0.031 C 
BRANCH   4  10
ATOM     10  C   UNL     1       0.209  -4.915   0.000  0.00  0.00    +0.382 C 
ATOM     11  O   UNL     1       0.974  -4.606   0.000  0.00  0.00    -0.244 OA
ATOM     12  O   UNL     1       0.094  -5.732   0.000  0.00  0.00    -0.244 OA
ENDBRANCH   4  10
ENDBRANCH   2   4
BRANCH   1  13
ATOM     13  C   UNL     1       0.613  -2.496   0.000  0.00  0.00    +0.196 C 
BRANCH  13  16
ATOM     14  C   UNL     1       2.065  -1.441   0.000  0.00  0.00    +0.051 C 
ATOM     15  C   UNL     1       2.065  -2.266   0.000  0.00  0.00    +0.048 A 
ATOM     16  N   UNL     1       1.398  -2.751   0.000  0.00  0.00    -0.285 N 
ATOM     17  C   UNL     1       1.653  -3.536   0.000  0.00  0.00    +0.292 A 
ATOM     18  O   UNL     1       1.168  -4.203   0.000  0.00  0.00    -0.259 OA
ATOM     19  S   UNL     1       2.478  -3.536   0.000  0.00  0.00    -0.026 S 
ATOM     20  C   UNL     1       2.733  -2.751   0.000  0.00  0.00    +0.053 A 
ENDBRANCH  13  16
ENDBRANCH   1  13
TORSDOF 4
