REMARK  Name = 
REMARK  3 active torsions:
REMARK  status: ('A' for Active; 'I' for Inactive)
REMARK    1  A    between atoms: C_5  and  C_7
REMARK    2  A    between atoms: N_12  and  C_13
REMARK    3  A    between atoms: C_13  and  C_14
REMARK                            x       y       z     vdW  Elec       q    Type
REMARK                         _______ _______ _______ _____ _____    ______ ____
ROOT
ATOM      1  C   UNL     1      -3.850  -3.795   0.000  0.00  0.00    +0.107 A 
ATOM      2  N   UNL     1      -4.670  -3.708   0.000  0.00  0.00    -0.166 NA
ATOM      3  N   UNL     1      -5.155  -4.376   0.000  0.00  0.00    -0.214 N 
ATOM      4  C   UNL     1      -4.820  -5.130   0.000  0.00  0.00    +0.277 A 
ATOM      5  O   UNL     1      -5.305  -5.797   0.000  0.00  0.00    -0.266 OA
ATOM      6  C   UNL     1      -3.999  -5.216   0.000  0.00  0.00    +0.064 A 
ATOM      7  C   UNL     1      -3.514  -4.548   0.000  0.00  0.00    +0.026 A 
ENDROOT
BRANCH   1  11
ATOM      8  C   UNL     1      -2.953  -1.033   0.000  0.00  0.00    +0.038 C 
ATOM      9  C   UNL     1      -2.953  -1.858   0.000  0.00  0.00    +0.008 A 
ATOM     10  S   UNL     1      -3.620  -2.343   0.000  0.00  0.00    -0.090 S 
ATOM     11  C   UNL     1      -3.365  -3.127   0.000  0.00  0.00    +0.048 A 
ATOM     12  C   UNL     1      -2.540  -3.127   0.000  0.00  0.00    +0.008 A 
ATOM     13  C   UNL     1      -2.285  -2.343   0.000  0.00  0.00    +0.003 A 
ENDBRANCH   1  11
BRANCH   3  14
ATOM     14  C   UNL     1      -5.976  -4.290   0.000  0.00  0.00    +0.161 C 
BRANCH  14  15
ATOM     15  C   UNL     1      -6.461  -4.957   0.000  0.00  0.00    +0.149 C 
ATOM     16  C   UNL     1      -7.145  -5.418   0.000  0.00  0.00    +0.032 C 
ATOM     17  C   UNL     1      -7.087  -6.242   0.000  0.00  0.00    +0.003 C 
ATOM     18  C   UNL     1      -6.346  -6.603   0.000  0.00  0.00    +0.000 C 
ATOM     19  C   UNL     1      -5.662  -6.142   0.000  0.00  0.00    +0.003 C 
ATOM     20  C   UNL     1      -5.719  -5.319   0.000  0.00  0.00    +0.032 C 
ATOM     21  O   UNL     1      -7.034  -4.364   0.000  0.00  0.00    -0.224 OA
ENDBRANCH  14  15
ENDBRANCH   3  14
TORSDOF 3
