REMARK  Name = 
REMARK  5 active torsions:
REMARK  status: ('A' for Active; 'I' for Inactive)
REMARK    1  A    between atoms: C_2  and  C_3
REMARK    2  A    between atoms: C_3  and  C_4
REMARK    3  A    between atoms: N_10  and  S_11
REMARK    4  A    between atoms: S_11  and  C_14
REMARK    5  A    between atoms: C_14  and  C_15
REMARK                            x       y       z     vdW  Elec       q    Type
REMARK                         _______ _______ _______ _____ _____    ______ ____
ROOT
ATOM      1  O   UNL     1       2.143  -1.238   0.000  0.00  0.00    -0.271 OA
ATOM      2  C   UNL     1       1.429  -1.650   0.000  0.00  0.00    +0.266 C 
ATOM      3  N   UNL     1       1.429  -2.475   0.000  0.00  0.00    -0.062 NA
ENDROOT
BRANCH   3   4
ATOM      4  S   UNL     1       2.143  -2.888   0.000  0.00  0.00    +0.082 S 
ATOM      5  O   UNL     1       2.556  -2.173   0.000  0.00  0.00    -0.152 OA
ATOM      6  O   UNL     1       1.731  -3.602   0.000  0.00  0.00    -0.152 OA
BRANCH   4   7
ATOM      7  C   UNL     1       2.858  -3.300   0.000  0.00  0.00    +0.223 C 
BRANCH   7   8
ATOM      8  C   UNL     1       2.858  -4.125   0.000  0.00  0.00    +0.127 A 
ATOM      9  N   UNL     1       2.190  -4.610   0.000  0.00  0.00    -0.079 NA
ATOM     10  O   UNL     1       2.445  -5.394   0.000  0.00  0.00    -0.350 OA
ATOM     11  C   UNL     1       3.270  -5.394   0.000  0.00  0.00    +0.214 A 
ATOM     12  C   UNL     1       3.525  -4.610   0.000  0.00  0.00    +0.063 A 
ENDBRANCH   7   8
ENDBRANCH   4   7
ENDBRANCH   3   4
BRANCH   2  13
ATOM     13  C   UNL     1       0.715  -1.238   0.000  0.00  0.00    +0.110 C 
BRANCH  13  14
ATOM     14  C   UNL     1       0.715  -0.412   0.000  0.00  0.00    -0.039 C 
ATOM     15  C   UNL     1       1.429   0.000   0.000  0.00  0.00    +0.022 C 
ATOM     16  C   UNL     1       1.429   0.825   0.000  0.00  0.00    +0.005 C 
ATOM     17  C   UNL     1       0.715   1.238   0.000  0.00  0.00    +0.005 C 
ATOM     18  C   UNL     1       0.000   0.825   0.000  0.00  0.00    +0.025 C 
ATOM     19  C   UNL     1       0.000   0.000   0.000  0.00  0.00    -0.034 C 
ENDBRANCH  13  14
ENDBRANCH   2  13
TORSDOF 5
