REMARK  Name = 
REMARK  1 active torsions:
REMARK  status: ('A' for Active; 'I' for Inactive)
REMARK    1  A    between atoms: C_2  and  N_9
REMARK                            x       y       z     vdW  Elec       q    Type
REMARK                         _______ _______ _______ _____ _____    ______ ____
ROOT
ATOM      1  N   UNL     1      -3.549   2.080   0.000  0.00  0.00    -0.190 NA
ATOM      2  C   UNL     1      -3.549   1.255   0.000  0.00  0.00    +0.345 C 
ATOM      3  N   UNL     1      -2.834   0.843   0.000  0.00  0.00    -0.134 NA
ATOM      4  C   UNL     1      -2.834   0.018   0.000  0.00  0.00    +0.209 A 
ATOM      5  S   UNL     1      -3.502  -0.467   0.000  0.00  0.00    -0.027 S 
ATOM      6  C   UNL     1      -3.247  -1.252   0.000  0.00  0.00    +0.161 A 
ATOM      7  N   UNL     1      -2.422  -1.252   0.000  0.00  0.00    -0.137 NA
ATOM      8  N   UNL     1      -2.167  -0.467   0.000  0.00  0.00    -0.123 NA
ATOM      9  O   UNL     1      -4.263   0.843   0.000  0.00  0.00    -0.249 OA
ENDROOT
BRANCH   1  11
ATOM     10  C   UNL     1      -3.702   3.098   0.000  0.00  0.00    +0.022 C 
ATOM     11  C   UNL     1      -4.263   2.493   0.000  0.00  0.00    +0.080 C 
ATOM     12  C   UNL     1      -4.728   3.175   0.000  0.00  0.00    +0.020 C 
ATOM     13  C   UNL     1      -5.551   3.236   0.000  0.00  0.00    +0.002 C 
ATOM     14  C   UNL     1      -6.112   2.631   0.000  0.00  0.00    +0.000 C 
ATOM     15  C   UNL     1      -5.989   1.816   0.000  0.00  0.00    +0.000 C 
ATOM     16  C   UNL     1      -5.274   1.403   0.000  0.00  0.00    +0.002 C 
ATOM     17  C   UNL     1      -4.506   1.704   0.000  0.00  0.00    +0.020 C 
ENDBRANCH   1  11
TORSDOF 1
