REMARK  Name = 
REMARK  4 active torsions:
REMARK  status: ('A' for Active; 'I' for Inactive)
REMARK    1  A    between atoms: C_2  and  C_3
REMARK    2  A    between atoms: C_2  and  N_11
REMARK    3  A    between atoms: C_3  and  C_4
REMARK    4  A    between atoms: N_14  and  C_15
REMARK                            x       y       z     vdW  Elec       q    Type
REMARK                         _______ _______ _______ _____ _____    ______ ____
ROOT
ATOM      1  C   UNL     1       1.754  -2.277   0.000  0.00  0.00    +0.024 C 
ATOM      2  C   UNL     1       1.754  -1.452   0.000  0.00  0.00    +0.101 C 
ENDROOT
BRANCH   2   3
ATOM      3  N   UNL     1       2.469  -1.040   0.000  0.00  0.00    -0.189 NA
ATOM      4  C   UNL     1       3.183  -1.452   0.000  0.00  0.00    +0.339 C 
ATOM      5  N   UNL     1       3.897  -1.040   0.000  0.00  0.00    -0.189 NA
ATOM      6  O   UNL     1       3.183  -2.277   0.000  0.00  0.00    -0.249 OA
BRANCH   5   7
ATOM      7  C   UNL     1       4.612  -1.452   0.000  0.00  0.00    +0.097 C 
ATOM      8  C   UNL     1       4.825  -2.249   0.000  0.00  0.00    +0.022 C 
ATOM      9  C   UNL     1       5.622  -2.035   0.000  0.00  0.00    +0.004 C 
ATOM     10  C   UNL     1       5.409  -1.238   0.000  0.00  0.00    +0.022 C 
ENDBRANCH   5   7
ENDBRANCH   2   3
BRANCH   2  11
ATOM     11  C   UNL     1       1.040  -1.040   0.000  0.00  0.00    +0.052 C 
BRANCH  11  12
ATOM     12  C   UNL     1       0.325  -1.452   0.000  0.00  0.00    +0.029 A 
ATOM     13  C   UNL     1      -0.429  -1.117   0.000  0.00  0.00    +0.150 A 
ATOM     14  C   UNL     1      -0.600  -0.309   0.000  0.00  0.00    +0.075 C 
ATOM     15  O   UNL     1      -0.981  -1.730   0.000  0.00  0.00    -0.358 OA
ATOM     16  N   UNL     1      -0.568  -2.444   0.000  0.00  0.00    -0.082 NA
ATOM     17  C   UNL     1       0.239  -2.272   0.000  0.00  0.00    +0.097 A 
ATOM     18  C   UNL     1       0.852  -2.825   0.000  0.00  0.00    +0.055 C 
ENDBRANCH  11  12
ENDBRANCH   2  11
TORSDOF 4
