REMARK  Name = 
REMARK  4 active torsions:
REMARK  status: ('A' for Active; 'I' for Inactive)
REMARK    1  A    between atoms: C_5  and  N_6
REMARK    2  A    between atoms: N_6  and  C_7
REMARK    3  A    between atoms: C_7  and  C_8
REMARK    4  A    between atoms: C_13  and  C_14
REMARK                            x       y       z     vdW  Elec       q    Type
REMARK                         _______ _______ _______ _____ _____    ______ ____
ROOT
ATOM      1  C   UNL     1      -0.715   9.241   0.000  0.00  0.00    +0.054 C 
ATOM      2  C   UNL     1      -0.715   8.416   0.000  0.00  0.00    +0.078 A 
ATOM      3  C   UNL     1      -1.429   8.004   0.000  0.00  0.00    +0.006 A 
ATOM      4  C   UNL     1      -2.143   8.416   0.000  0.00  0.00    +0.033 C 
ATOM      5  C   UNL     1      -1.429   7.179   0.000  0.00  0.00    +0.100 A 
ATOM      6  C   UNL     1      -0.715   6.766   0.000  0.00  0.00    +0.179 A 
ATOM      7  N   UNL     1       0.000   7.179   0.000  0.00  0.00    -0.131 NA
ATOM      8  N   UNL     1       0.000   8.004   0.000  0.00  0.00    -0.151 NA
ENDROOT
BRANCH   5   9
ATOM      9  C   UNL     1      -2.143   6.766   0.000  0.00  0.00    +0.103 C 
ATOM     10  N   UNL     1      -2.858   6.354   0.000  0.00  0.00    -0.191 NA
ENDBRANCH   5   9
BRANCH   6  11
ATOM     11  N   UNL     1      -0.715   5.941   0.000  0.00  0.00    -0.216 NA
BRANCH  11  12
ATOM     12  C   UNL     1       0.000   5.529   0.000  0.00  0.00    +0.143 C 
BRANCH  12  13
ATOM     13  C   UNL     1       0.000   4.704   0.000  0.00  0.00    +0.137 C 
ATOM     14  O   UNL     1      -0.667   4.219   0.000  0.00  0.00    -0.354 OA
ATOM     15  C   UNL     1      -0.412   3.434   0.000  0.00  0.00    +0.142 C 
ATOM     16  C   UNL     1       0.412   3.434   0.000  0.00  0.00    +0.035 C 
ATOM     17  C   UNL     1       0.667   4.219   0.000  0.00  0.00    +0.034 C 
ENDBRANCH  12  13
ENDBRANCH  11  12
ENDBRANCH   6  11
TORSDOF 4
