REMARK  Name = 
REMARK  5 active torsions:
REMARK  status: ('A' for Active; 'I' for Inactive)
REMARK    1  A    between atoms: C_2  and  O_4
REMARK    2  A    between atoms: O_4  and  C_5
REMARK    3  A    between atoms: C_5  and  C_6
REMARK    4  A    between atoms: C_6  and  S_7
REMARK    5  A    between atoms: S_7  and  C_8
REMARK                            x       y       z     vdW  Elec       q    Type
REMARK                         _______ _______ _______ _____ _____    ______ ____
ROOT
ATOM      1  C   UNL     1       5.716  -4.125   0.000  0.00  0.00    +0.193 A 
ATOM      2  N   UNL     1       5.716  -4.950   0.000  0.00  0.00    -0.203 NA
ATOM      3  C   UNL     1       6.430  -5.362   0.000  0.00  0.00    +0.175 A 
ATOM      4  N   UNL     1       6.430  -6.188   0.000  0.00  0.00    -0.107 NA
ATOM      5  C   UNL     1       7.145  -4.950   0.000  0.00  0.00    +0.075 A 
ATOM      6  C   UNL     1       7.145  -4.125   0.000  0.00  0.00    +0.175 A 
ATOM      7  N   UNL     1       7.859  -3.712   0.000  0.00  0.00    -0.107 NA
ATOM      8  N   UNL     1       6.430  -3.712   0.000  0.00  0.00    -0.203 NA
ENDROOT
BRANCH   1   9
ATOM      9  S   UNL     1       5.001  -3.712   0.000  0.00  0.00    -0.073 S 
BRANCH   9  10
ATOM     10  C   UNL     1       4.287  -4.125   0.000  0.00  0.00    +0.097 C 
BRANCH  10  11
ATOM     11  C   UNL     1       3.572  -3.712   0.000  0.00  0.00    +0.154 C 
BRANCH  11  12
ATOM     12  O   UNL     1       2.858  -4.125   0.000  0.00  0.00    -0.355 OA
BRANCH  12  14
ATOM     13  C   UNL     1       1.429  -4.125   0.000  0.00  0.00    +0.032 C 
ATOM     14  C   UNL     1       2.143  -3.712   0.000  0.00  0.00    +0.115 C 
ATOM     15  C   UNL     1       2.143  -2.888   0.000  0.00  0.00    +0.032 C 
ENDBRANCH  12  14
ENDBRANCH  11  12
ENDBRANCH  10  11
ENDBRANCH   9  10
ENDBRANCH   1   9
TORSDOF 5
