REMARK  Name = 
REMARK  3 active torsions:
REMARK  status: ('A' for Active; 'I' for Inactive)
REMARK    1  A    between atoms: S_2  and  N_5
REMARK    2  A    between atoms: C_8  and  C_9
REMARK    3  A    between atoms: C_9  and  N_10
REMARK                            x       y       z     vdW  Elec       q    Type
REMARK                         _______ _______ _______ _____ _____    ______ ____
ROOT
ATOM      1  C   UNL     1       0.715  -2.888   0.000  0.00  0.00    +0.117 C 
ENDROOT
BRANCH   1   2
ATOM      2  N   UNL     1       1.429  -2.475   0.000  0.00  0.00    -0.187 NA
ATOM      3  C   UNL     1       2.143  -2.888   0.000  0.00  0.00    +0.345 C 
ATOM      4  N   UNL     1       2.858  -2.475   0.000  0.00  0.00    -0.142 NA
ATOM      5  C   UNL     1       3.572  -2.888   0.000  0.00  0.00    +0.156 A 
ATOM      6  N   UNL     1       3.572  -3.712   0.000  0.00  0.00    -0.227 NA
ATOM      7  C   UNL     1       4.287  -4.125   0.000  0.00  0.00    +0.100 A 
ATOM      8  C   UNL     1       5.001  -3.712   0.000  0.00  0.00    +0.021 A 
ATOM      9  C   UNL     1       5.001  -2.888   0.000  0.00  0.00    +0.005 A 
ATOM     10  C   UNL     1       4.287  -2.475   0.000  0.00  0.00    +0.036 A 
ATOM     11  O   UNL     1       2.143  -3.712   0.000  0.00  0.00    -0.249 OA
ENDBRANCH   1   2
BRANCH   1  15
ATOM     12  N   UNL     1      -1.429  -1.650   0.000  0.00  0.00    -0.159 NA
ATOM     13  C   UNL     1      -1.429  -2.475   0.000  0.00  0.00    +0.095 C 
ATOM     14  C   UNL     1      -0.715  -2.888   0.000  0.00  0.00    +0.021 C 
ATOM     15  C   UNL     1       0.000  -2.475   0.000  0.00  0.00    +0.025 C 
ATOM     16  C   UNL     1       0.000  -1.650   0.000  0.00  0.00    +0.021 C 
ATOM     17  C   UNL     1      -0.715  -1.238   0.000  0.00  0.00    +0.095 C 
BRANCH  12  19
ATOM     18  C   UNL     1      -2.858  -0.825   0.000  0.00  0.00    +0.196 C 
ATOM     19  S   UNL     1      -2.143  -1.238   0.000  0.00  0.00    +0.046 S 
ATOM     20  O   UNL     1      -1.731  -0.523   0.000  0.00  0.00    -0.157 OA
ATOM     21  O   UNL     1      -2.556  -1.952   0.000  0.00  0.00    -0.157 OA
ENDBRANCH  12  19
ENDBRANCH   1  15
TORSDOF 3
