REMARK  Name = 
REMARK  2 active torsions:
REMARK  status: ('A' for Active; 'I' for Inactive)
REMARK    1  A    between atoms: C_2  and  C_3
REMARK    2  A    between atoms: C_5  and  C_8
REMARK                            x       y       z     vdW  Elec       q    Type
REMARK                         _______ _______ _______ _____ _____    ______ ____
ROOT
ATOM      1  C   UNL     1       0.715  -1.238   0.000  0.00  0.00    +0.162 A 
ATOM      2  N   UNL     1       0.047  -1.722   0.000  0.00  0.00    -0.132 NA
ATOM      3  N   UNL     1       0.302  -2.507   0.000  0.00  0.00    -0.129 NA
ATOM      4  C   UNL     1       1.127  -2.507   0.000  0.00  0.00    +0.190 A 
ATOM      5  N   UNL     1       1.382  -1.722   0.000  0.00  0.00    -0.210 NA
ENDROOT
BRANCH   4   6
ATOM      6  C   UNL     1       1.612  -3.175   0.000  0.00  0.00    +0.192 C 
ATOM      7  O   UNL     1       1.276  -3.928   0.000  0.00  0.00    -0.346 OA
ATOM      8  C   UNL     1       1.761  -4.596   0.000  0.00  0.00    +0.161 C 
ATOM      9  C   UNL     1       2.582  -4.509   0.000  0.00  0.00    +0.121 C 
ATOM     10  N   UNL     1       2.917  -3.756   0.000  0.00  0.00    -0.212 NA
ATOM     11  C   UNL     1       2.432  -3.088   0.000  0.00  0.00    +0.126 C 
ENDBRANCH   4   6
BRANCH   1  13
ATOM     12  C   UNL     1       0.000   0.000   0.000  0.00  0.00    +0.008 C 
ATOM     13  C   UNL     1       0.715  -0.412   0.000  0.00  0.00    +0.068 C 
ENDBRANCH   1  13
TORSDOF 2
