REMARK  Name = 
REMARK  4 active torsions:
REMARK  status: ('A' for Active; 'I' for Inactive)
REMARK    1  A    between atoms: N_1  and  C_9
REMARK    2  A    between atoms: N_2  and  C_12
REMARK    3  A    between atoms: S_6  and  N_8
REMARK    4  A    between atoms: C_9  and  C_10
REMARK                            x       y       z     vdW  Elec       q    Type
REMARK                         _______ _______ _______ _____ _____    ______ ____
ROOT
ATOM      1  N   UNL     1       2.033   4.350   0.000  0.00  0.00    -0.238 N 
ATOM      2  C   UNL     1       2.750   4.763   0.000  0.00  0.00    +0.294 A 
ATOM      3  O   UNL     1       2.750   5.588   0.000  0.00  0.00    -0.264 OA
ATOM      4  C   UNL     1       3.462   4.350   0.000  0.00  0.00    +0.213 A 
ATOM      5  C   UNL     1       3.462   3.529   0.000  0.00  0.00    +0.116 A 
ATOM      6  N   UNL     1       2.750   3.117   0.000  0.00  0.00    -0.255 N 
ATOM      7  F   UNL     1       4.179   4.763   0.000  0.00  0.00    -0.198 F 
ATOM      8  C   UNL     1       2.033   3.529   0.000  0.00  0.00    +0.336 A 
ATOM      9  O   UNL     1       1.321   3.117   0.000  0.00  0.00    -0.246 OA
ENDROOT
BRANCH   6  10
ATOM     10  C   UNL     1       2.750   2.292   0.000  0.00  0.00    +0.208 C 
ATOM     11  C   UNL     1       3.417   1.808   0.000  0.00  0.00    +0.057 C 
ATOM     12  C   UNL     1       3.163   1.021   0.000  0.00  0.00    +0.037 C 
ATOM     13  C   UNL     1       2.337   1.021   0.000  0.00  0.00    +0.144 C 
ATOM     14  O   UNL     1       2.083   1.808   0.000  0.00  0.00    -0.335 OA
ENDBRANCH   6  10
BRANCH   1  15
ATOM     15  C   UNL     1       1.321   4.763   0.000  0.00  0.00    +0.199 C 
BRANCH  15  16
ATOM     16  C   UNL     1       1.321   5.588   0.000  0.00  0.00    +0.249 C 
ATOM     17  O   UNL     1       2.033   6.000   0.000  0.00  0.00    -0.273 OA
ATOM     18  N   UNL     1       0.604   6.000   0.000  0.00  0.00    -0.275 N 
ATOM     19  C   UNL     1      -0.108   5.588   0.000  0.00  0.00    +0.113 C 
ATOM     20  C   UNL     1      -0.825   6.000   0.000  0.00  0.00    +0.117 C 
ATOM     21  N   UNL     1      -0.825   6.825   0.000  0.00  0.00    -0.156 NA
ATOM     22  C   UNL     1      -0.108   7.237   0.000  0.00  0.00    +0.117 C 
ATOM     23  C   UNL     1       0.604   6.825   0.000  0.00  0.00    +0.113 C 
BRANCH  21  24
ATOM     24  S   UNL     1      -1.538   7.237   0.000  0.00  0.00    +0.046 S 
ATOM     25  C   UNL     1      -2.254   7.650   0.000  0.00  0.00    +0.196 C 
ATOM     26  O   UNL     1      -1.125   7.954   0.000  0.00  0.00    -0.157 OA
ATOM     27  O   UNL     1      -1.950   6.525   0.000  0.00  0.00    -0.157 OA
ENDBRANCH  21  24
ENDBRANCH  15  16
ENDBRANCH   1  15
TORSDOF 4
