REMARK  Name = 
REMARK  4 active torsions:
REMARK  status: ('A' for Active; 'I' for Inactive)
REMARK    1  A    between atoms: C_2  and  N_4
REMARK    2  A    between atoms: N_4  and  C_5
REMARK    3  A    between atoms: N_10  and  C_11
REMARK    4  A    between atoms: C_11  and  C_12
REMARK                            x       y       z     vdW  Elec       q    Type
REMARK                         _______ _______ _______ _____ _____    ______ ____
ROOT
ATOM      1  C   UNL     1       3.279   1.238   0.000  0.00  0.00    +0.170 A 
ATOM      2  C   UNL     1       2.564   0.825   0.000  0.00  0.00    +0.150 A 
ATOM      3  C   UNL     1       2.564   0.000   0.000  0.00  0.00    +0.167 A 
ATOM      4  N   UNL     1       1.780  -0.255   0.000  0.00  0.00    -0.292 N 
ATOM      5  C   UNL     1       1.295   0.412   0.000  0.00  0.00    +0.180 A 
ATOM      6  N   UNL     1       3.279  -0.412   0.000  0.00  0.00    -0.205 NA
ATOM      7  C   UNL     1       3.993   0.000   0.000  0.00  0.00    +0.202 A 
ATOM      8  N   UNL     1       1.780   1.080   0.000  0.00  0.00    -0.219 NA
ATOM      9  N   UNL     1       3.993   0.825   0.000  0.00  0.00    -0.206 NA
ENDROOT
BRANCH   1  10
ATOM     10  N   UNL     1       3.279   2.062   0.000  0.00  0.00    -0.221 NA
BRANCH  10  12
ATOM     11  C   UNL     1       3.993   3.300   0.000  0.00  0.00    +0.023 C 
ATOM     12  C   UNL     1       3.993   2.475   0.000  0.00  0.00    +0.094 C 
ATOM     13  C   UNL     1       4.708   2.062   0.000  0.00  0.00    +0.023 C 
ENDBRANCH  10  12
ENDBRANCH   1  10
BRANCH   4  14
ATOM     14  C   UNL     1       1.525  -1.040   0.000  0.00  0.00    +0.139 C 
BRANCH  14  15
ATOM     15  C   UNL     1       2.077  -1.653   0.000  0.00  0.00    +0.147 C 
ATOM     16  C   UNL     1       2.386  -2.418   0.000  0.00  0.00    +0.032 C 
ATOM     17  C   UNL     1       3.203  -2.532   0.000  0.00  0.00    +0.003 C 
ATOM     18  C   UNL     1       3.711  -1.882   0.000  0.00  0.00    +0.000 C 
ATOM     19  C   UNL     1       4.528  -1.997   0.000  0.00  0.00    +0.000 C 
ATOM     20  C   UNL     1       3.402  -1.117   0.000  0.00  0.00    +0.003 C 
ATOM     21  C   UNL     1       2.585  -1.002   0.000  0.00  0.00    +0.032 C 
ATOM     22  O   UNL     1       1.377  -2.090   0.000  0.00  0.00    -0.224 OA
ENDBRANCH  14  15
ENDBRANCH   4  14
TORSDOF 4
