REMARK  Name = 
REMARK  4 active torsions:
REMARK  status: ('A' for Active; 'I' for Inactive)
REMARK    1  A    between atoms: C_6  and  C_7
REMARK    2  A    between atoms: C_7  and  C_8
REMARK    3  A    between atoms: C_8  and  N_9
REMARK    4  A    between atoms: C_10  and  C_12
REMARK                            x       y       z     vdW  Elec       q    Type
REMARK                         _______ _______ _______ _____ _____    ______ ____
ROOT
ATOM      1  C   UNL     1       2.507  -0.302   0.000  0.00  0.00    +0.121 C 
ENDROOT
BRANCH   1   2
ATOM      2  N   UNL     1       3.221   0.111   0.000  0.00  0.00    -0.205 NA
ATOM      3  C   UNL     1       3.936  -0.302   0.000  0.00  0.00    +0.241 C 
ATOM      4  O   UNL     1       3.936  -1.127   0.000  0.00  0.00    -0.273 OA
BRANCH   3   5
ATOM      5  C   UNL     1       4.651   0.111   0.000  0.00  0.00    +0.078 C 
ATOM      6  C   UNL     1       5.476   0.111   0.000  0.00  0.00    +0.009 C 
ATOM      7  C   UNL     1       5.824  -0.637   0.000  0.00  0.00    +0.000 C 
ATOM      8  C   UNL     1       6.297   0.182   0.000  0.00  0.00    +0.000 C 
ATOM      9  C   UNL     1       5.063   0.825   0.000  0.00  0.00    +0.010 C 
ENDBRANCH   3   5
ENDBRANCH   1   2
BRANCH   1  10
ATOM     10  C   UNL     1       1.793   0.111   0.000  0.00  0.00    +0.069 C 
BRANCH  10  13
ATOM     11  C   UNL     1       1.605  -1.675   0.000  0.00  0.00    +0.132 C 
ATOM     12  N   UNL     1       0.992  -1.123   0.000  0.00  0.00    -0.310 N 
ATOM     13  C   UNL     1       1.078  -0.302   0.000  0.00  0.00    +0.059 A 
ATOM     14  C   UNL     1       0.324   0.034   0.000  0.00  0.00    +0.113 A 
ATOM     15  N   UNL     1      -0.228  -0.580   0.000  0.00  0.00    -0.223 NA
ATOM     16  C   UNL     1       0.185  -1.294   0.000  0.00  0.00    +0.178 A 
ENDBRANCH  10  13
ENDBRANCH   1  10
TORSDOF 4
