REMARK  Name = 
REMARK  3 active torsions:
REMARK  status: ('A' for Active; 'I' for Inactive)
REMARK    1  A    between atoms: N_3  and  C_4
REMARK    2  A    between atoms: C_4  and  C_5
REMARK    3  A    between atoms: N_8  and  C_9
REMARK                            x       y       z     vdW  Elec       q    Type
REMARK                         _______ _______ _______ _____ _____    ______ ____
ROOT
ATOM      1  C   UNL     1       3.572  -5.362   0.000  0.00  0.00    +0.094 A 
ATOM      2  C   UNL     1       3.572  -6.188   0.000  0.00  0.00    +0.117 A 
ATOM      3  N   UNL     1       4.287  -6.600   0.000  0.00  0.00    -0.228 NA
ATOM      4  C   UNL     1       5.001  -6.188   0.000  0.00  0.00    +0.132 A 
ATOM      5  N   UNL     1       5.716  -6.600   0.000  0.00  0.00    -0.293 N 
ATOM      6  C   UNL     1       5.716  -7.425   0.000  0.00  0.00    +0.092 C 
ATOM      7  C   UNL     1       6.430  -7.838   0.000  0.00  0.00    +0.022 C 
ATOM      8  C   UNL     1       7.145  -7.425   0.000  0.00  0.00    +0.004 C 
ATOM      9  C   UNL     1       7.145  -6.600   0.000  0.00  0.00    +0.022 C 
ATOM     10  C   UNL     1       6.430  -6.188   0.000  0.00  0.00    +0.092 C 
ATOM     11  C   UNL     1       5.001  -5.362   0.000  0.00  0.00    +0.036 A 
ATOM     12  C   UNL     1       4.287  -4.950   0.000  0.00  0.00    +0.021 A 
ENDROOT
BRANCH   1  15
ATOM     13  O   UNL     1       2.143  -6.188   0.000  0.00  0.00    -0.249 OA
ATOM     14  C   UNL     1       2.143  -5.362   0.000  0.00  0.00    +0.344 C 
ATOM     15  N   UNL     1       2.858  -4.950   0.000  0.00  0.00    -0.159 NA
ATOM     16  N   UNL     1       1.429  -4.950   0.000  0.00  0.00    -0.187 NA
BRANCH  16  17
ATOM     17  C   UNL     1       0.715  -5.362   0.000  0.00  0.00    +0.117 C 
BRANCH  17  18
ATOM     18  C   UNL     1       0.000  -4.950   0.000  0.00  0.00    +0.022 C 
ATOM     19  C   UNL     1      -0.412  -4.236   0.000  0.00  0.00    +0.002 C 
ATOM     20  C   UNL     1      -0.825  -4.950   0.000  0.00  0.00    +0.002 C 
ENDBRANCH  17  18
ENDBRANCH  16  17
ENDBRANCH   1  15
TORSDOF 3
