REMARK  Name = 
REMARK  5 active torsions:
REMARK  status: ('A' for Active; 'I' for Inactive)
REMARK    1  A    between atoms: N_4  and  C_5
REMARK    2  A    between atoms: C_5  and  C_6
REMARK    3  A    between atoms: C_6  and  N_7
REMARK    4  A    between atoms: N_10  and  C_11
REMARK    5  A    between atoms: C_16  and  N_17
REMARK                            x       y       z     vdW  Elec       q    Type
REMARK                         _______ _______ _______ _____ _____    ______ ____
ROOT
ATOM      1  N   UNL     1       0.715  -3.712   0.000  0.00  0.00    -0.185 NA
ATOM      2  C   UNL     1       1.429  -3.300   0.000  0.00  0.00    +0.344 C 
ATOM      3  N   UNL     1       2.143  -3.712   0.000  0.00  0.00    -0.158 NA
ATOM      4  O   UNL     1       1.429  -2.475   0.000  0.00  0.00    -0.249 OA
ENDROOT
BRANCH   3   5
ATOM      5  C   UNL     1       2.858  -3.300   0.000  0.00  0.00    +0.106 A 
ATOM      6  C   UNL     1       3.572  -3.712   0.000  0.00  0.00    +0.147 A 
ATOM      7  N   UNL     1       4.287  -3.300   0.000  0.00  0.00    -0.228 NA
ATOM      8  C   UNL     1       4.287  -2.475   0.000  0.00  0.00    +0.100 A 
ATOM      9  C   UNL     1       3.572  -2.062   0.000  0.00  0.00    +0.022 A 
ATOM     10  C   UNL     1       2.858  -2.475   0.000  0.00  0.00    +0.021 A 
BRANCH   6  11
ATOM     11  N   UNL     1       3.572  -4.537   0.000  0.00  0.00    -0.292 N 
ATOM     12  C   UNL     1       2.905  -5.022   0.000  0.00  0.00    +0.092 C 
ATOM     13  C   UNL     1       3.160  -5.807   0.000  0.00  0.00    +0.023 C 
ATOM     14  C   UNL     1       3.985  -5.807   0.000  0.00  0.00    +0.023 C 
ATOM     15  C   UNL     1       4.240  -5.022   0.000  0.00  0.00    +0.092 C 
ENDBRANCH   6  11
ENDBRANCH   3   5
BRANCH   1  16
ATOM     16  C   UNL     1       0.000  -3.300   0.000  0.00  0.00    +0.134 C 
BRANCH  16  17
ATOM     17  C   UNL     1      -0.715  -3.712   0.000  0.00  0.00    +0.096 C 
BRANCH  17  24
ATOM     18  C   UNL     1      -2.143  -1.238   0.000  0.00  0.00    +0.034 C 
ATOM     19  C   UNL     1      -2.143  -2.062   0.000  0.00  0.00    +0.131 C 
ATOM     20  O   UNL     1      -2.858  -2.475   0.000  0.00  0.00    -0.356 OA
ATOM     21  C   UNL     1      -2.858  -3.300   0.000  0.00  0.00    +0.131 C 
ATOM     22  C   UNL     1      -3.572  -3.712   0.000  0.00  0.00    +0.034 C 
ATOM     23  C   UNL     1      -2.143  -3.712   0.000  0.00  0.00    +0.102 C 
ATOM     24  N   UNL     1      -1.429  -3.300   0.000  0.00  0.00    -0.267 NA
ATOM     25  C   UNL     1      -1.429  -2.475   0.000  0.00  0.00    +0.102 C 
ENDBRANCH  17  24
ENDBRANCH  16  17
ENDBRANCH   1  16
TORSDOF 5
