REMARK  Name = 
REMARK  4 active torsions:
REMARK  status: ('A' for Active; 'I' for Inactive)
REMARK    1  A    between atoms: C_2  and  C_3
REMARK    2  A    between atoms: C_3  and  N_4
REMARK    3  A    between atoms: C_7  and  C_11
REMARK    4  A    between atoms: N_15  and  C_16
REMARK                            x       y       z     vdW  Elec       q    Type
REMARK                         _______ _______ _______ _____ _____    ______ ____
ROOT
ATOM      1  N   UNL     1      -2.556  -0.174   0.000  0.00  0.00    -0.269 N 
ATOM      2  C   UNL     1      -2.556   0.651   0.000  0.00  0.00    +0.264 A 
ATOM      3  O   UNL     1      -1.841   1.063   0.000  0.00  0.00    -0.267 OA
ATOM      4  C   UNL     1      -3.270   1.063   0.000  0.00  0.00    +0.076 A 
ATOM      5  C   UNL     1      -3.985   0.651   0.000  0.00  0.00    +0.065 A 
ATOM      6  N   UNL     1      -3.985  -0.174   0.000  0.00  0.00    -0.230 NA
ATOM      7  C   UNL     1      -3.270  -0.587   0.000  0.00  0.00    +0.181 A 
ENDROOT
BRANCH   5   8
ATOM      8  C   UNL     1      -4.699   1.063   0.000  0.00  0.00    +0.040 C 
ATOM      9  C   UNL     1      -4.913   1.860   0.000  0.00  0.00    +0.006 C 
ATOM     10  C   UNL     1      -5.710   1.647   0.000  0.00  0.00    +0.001 C 
ATOM     11  C   UNL     1      -5.496   0.850   0.000  0.00  0.00    +0.006 C 
ENDBRANCH   5   8
BRANCH   1  12
ATOM     12  C   UNL     1      -1.841  -0.587   0.000  0.00  0.00    +0.197 C 
BRANCH  12  14
ATOM     13  O   UNL     1      -2.556  -1.824   0.000  0.00  0.00    -0.271 OA
ATOM     14  C   UNL     1      -1.841  -1.412   0.000  0.00  0.00    +0.265 C 
ATOM     15  N   UNL     1      -1.127  -1.824   0.000  0.00  0.00    -0.206 NA
BRANCH  15  16
ATOM     16  C   UNL     1      -1.127  -2.649   0.000  0.00  0.00    +0.095 C 
ATOM     17  C   UNL     1      -1.540  -3.364   0.000  0.00  0.00    +0.023 C 
ATOM     18  C   UNL     1      -0.715  -3.364   0.000  0.00  0.00    +0.023 C 
ENDBRANCH  15  16
ENDBRANCH  12  14
ENDBRANCH   1  12
TORSDOF 4
