REMARK  Name = 
REMARK  6 active torsions:
REMARK  status: ('A' for Active; 'I' for Inactive)
REMARK    1  A    between atoms: C_3  and  C_5
REMARK    2  A    between atoms: C_5  and  C_6
REMARK    3  A    between atoms: C_5  and  N_10
REMARK    4  A    between atoms: C_6  and  C_7
REMARK    5  A    between atoms: C_11  and  C_13
REMARK    6  A    between atoms: C_13  and  C_14
REMARK                            x       y       z     vdW  Elec       q    Type
REMARK                         _______ _______ _______ _____ _____    ______ ____
ROOT
ATOM      1  N   UNL     1       4.698  -0.840   0.000  0.00  0.00    -0.197 NA
ATOM      2  C   UNL     1       5.111  -1.554   0.000  0.00  0.00    +0.246 C 
ATOM      3  O   UNL     1       5.197  -2.375   0.000  0.00  0.00    -0.273 OA
ENDROOT
BRANCH   1   4
ATOM      4  C   UNL     1       3.873  -0.840   0.000  0.00  0.00    +0.173 C 
BRANCH   4   7
ATOM      5  C   UNL     1       2.223   0.589   0.000  0.00  0.00    +0.139 C 
ATOM      6  N   UNL     1       2.635  -0.125   0.000  0.00  0.00    -0.202 NA
ATOM      7  C   UNL     1       3.461  -0.125   0.000  0.00  0.00    +0.261 C 
ATOM      8  O   UNL     1       3.873   0.589   0.000  0.00  0.00    -0.271 OA
ENDBRANCH   4   7
BRANCH   4   9
ATOM      9  C   UNL     1       3.461  -1.554   0.000  0.00  0.00    +0.031 C 
BRANCH   9  10
ATOM     10  C   UNL     1       3.873  -2.269   0.000  0.00  0.00    +0.002 C 
ATOM     11  C   UNL     1       3.461  -2.983   0.000  0.00  0.00    +0.000 C 
ATOM     12  C   UNL     1       4.698  -2.269   0.000  0.00  0.00    +0.000 C 
ENDBRANCH   9  10
ENDBRANCH   4   9
ENDBRANCH   1   4
BRANCH   2  13
ATOM     13  C   UNL     1       5.936  -1.554   0.000  0.00  0.00    +0.117 C 
BRANCH  13  14
ATOM     14  C   UNL     1       6.348  -2.269   0.000  0.00  0.00    +0.037 A 
ATOM     15  C   UNL     1       6.012  -3.022   0.000  0.00  0.00    +0.151 A 
ATOM     16  C   UNL     1       5.205  -3.194   0.000  0.00  0.00    +0.075 C 
ATOM     17  O   UNL     1       6.625  -3.574   0.000  0.00  0.00    -0.358 OA
ATOM     18  N   UNL     1       7.340  -3.162   0.000  0.00  0.00    -0.082 NA
ATOM     19  C   UNL     1       7.168  -2.355   0.000  0.00  0.00    +0.097 A 
ATOM     20  C   UNL     1       7.721  -1.742   0.000  0.00  0.00    +0.055 C 
ENDBRANCH  13  14
ENDBRANCH   2  13
TORSDOF 6
