REMARK  Name = 
REMARK  3 active torsions:
REMARK  status: ('A' for Active; 'I' for Inactive)
REMARK    1  A    between atoms: N_1  and  C_8
REMARK    2  A    between atoms: C_11  and  C_22
REMARK    3  A    between atoms: C_11  and  C_23
REMARK                            x       y       z     vdW  Elec       q    Type
REMARK                         _______ _______ _______ _____ _____    ______ ____
ROOT
ATOM      1  N   UNL     1      -2.156  -1.556   0.000  0.00  0.00    -0.296 N 
ATOM      2  C   UNL     1      -2.239  -0.737   0.000  0.00  0.00    +0.180 A 
ATOM      3  N   UNL     1      -1.490  -0.400   0.000  0.00  0.00    -0.219 NA
ATOM      4  C   UNL     1      -0.936  -1.011   0.000  0.00  0.00    +0.149 A 
ATOM      5  C   UNL     1      -0.112  -1.011   0.000  0.00  0.00    +0.154 A 
ATOM      6  N   UNL     1       0.300  -1.727   0.000  0.00  0.00    -0.207 NA
ATOM      7  C   UNL     1      -0.112  -2.439   0.000  0.00  0.00    +0.201 A 
ATOM      8  N   UNL     1      -0.936  -2.439   0.000  0.00  0.00    -0.205 NA
ATOM      9  N   UNL     1       0.300  -0.300   0.000  0.00  0.00    -0.287 N 
ATOM     10  C   UNL     1      -0.112   0.412   0.000  0.00  0.00    +0.124 C 
ATOM     11  C   UNL     1       0.300   1.128   0.000  0.00  0.00    +0.163 C 
ATOM     12  O   UNL     1       1.124   1.128   0.000  0.00  0.00    -0.353 OA
ATOM     13  C   UNL     1       1.536   0.412   0.000  0.00  0.00    +0.138 C 
ATOM     14  C   UNL     1       1.948   1.128   0.000  0.00  0.00    +0.034 C 
ATOM     15  C   UNL     1       2.772   1.128   0.000  0.00  0.00    +0.035 C 
ATOM     16  C   UNL     1       3.183   0.412   0.000  0.00  0.00    +0.142 C 
ATOM     17  O   UNL     1       2.772  -0.300   0.000  0.00  0.00    -0.351 OA
ATOM     18  C   UNL     1       1.948  -0.300   0.000  0.00  0.00    +0.171 C 
ATOM     19  C   UNL     1       1.124  -0.300   0.000  0.00  0.00    +0.122 C 
ATOM     20  C   UNL     1      -1.348  -1.727   0.000  0.00  0.00    +0.167 A 
ENDROOT
BRANCH   1  21
ATOM     21  C   UNL     1      -2.767  -2.106   0.000  0.00  0.00    +0.089 C 
ATOM     22  C   UNL     1      -3.591  -2.064   0.000  0.00  0.00    +0.028 C 
ATOM     23  C   UNL     1      -3.633  -2.888   0.000  0.00  0.00    +0.065 C 
ATOM     24  C   UNL     1      -2.809  -2.930   0.000  0.00  0.00    +0.028 C 
BRANCH  23  25
ATOM     25  C   UNL     1      -3.675  -3.708   0.000  0.00  0.00    +0.185 C 
ATOM     26  O   UNL     1      -2.984  -4.157   0.000  0.00  0.00    -0.220 OA
ENDBRANCH  23  25
BRANCH  23  27
ATOM     27  C   UNL     1      -4.457  -2.842   0.000  0.00  0.00    +0.185 C 
ATOM     28  O   UNL     1      -4.831  -2.110   0.000  0.00  0.00    -0.220 OA
ENDBRANCH  23  27
ENDBRANCH   1  21
TORSDOF 3
