REMARK  Name = 
REMARK  4 active torsions:
REMARK  status: ('A' for Active; 'I' for Inactive)
REMARK    1  A    between atoms: N_7  and  C_8
REMARK    2  A    between atoms: C_8  and  C_9
REMARK    3  A    between atoms: C_9  and  C_11
REMARK    4  A    between atoms: C_11  and  N_12
REMARK                            x       y       z     vdW  Elec       q    Type
REMARK                         _______ _______ _______ _____ _____    ______ ____
ROOT
ATOM      1  C   UNL     1       0.077  -2.321   0.000  0.00  0.00    +0.190 C 
ATOM      2  O   UNL     1      -0.475  -1.708   0.000  0.00  0.00    -0.220 OA
ENDROOT
BRANCH   1   3
ATOM      3  C   UNL     1      -0.178  -3.106   0.000  0.00  0.00    +0.107 C 
BRANCH   3   9
ATOM      4  C   UNL     1      -3.661  -4.577   0.000  0.00  0.00    +0.095 C 
ATOM      5  C   UNL     1      -3.406  -3.792   0.000  0.00  0.00    +0.226 C 
ATOM      6  N   UNL     1      -2.599  -3.621   0.000  0.00  0.00    -0.277 N 
ATOM      7  C   UNL     1      -2.047  -4.234   0.000  0.00  0.00    +0.111 C 
ATOM      8  C   UNL     1      -1.240  -4.062   0.000  0.00  0.00    +0.094 C 
ATOM      9  N   UNL     1      -0.985  -3.278   0.000  0.00  0.00    -0.268 NA
ATOM     10  C   UNL     1      -1.537  -2.665   0.000  0.00  0.00    +0.094 C 
ATOM     11  C   UNL     1      -2.344  -2.836   0.000  0.00  0.00    +0.111 C 
ATOM     12  O   UNL     1      -3.958  -3.179   0.000  0.00  0.00    -0.275 OA
ENDBRANCH   3   9
ENDBRANCH   1   3
BRANCH   1  13
ATOM     13  C   UNL     1       0.884  -2.150   0.000  0.00  0.00    +0.142 C 
BRANCH  13  14
ATOM     14  N   UNL     1       1.139  -1.365   0.000  0.00  0.00    -0.306 N 
ATOM     15  C   UNL     1       1.923  -1.110   0.000  0.00  0.00    +0.079 A 
ATOM     16  C   UNL     1       1.923  -0.285   0.000  0.00  0.00    +0.098 A 
ATOM     17  C   UNL     1       2.638   0.127   0.000  0.00  0.00    +0.016 A 
ATOM     18  C   UNL     1       3.352  -0.285   0.000  0.00  0.00    -0.024 A 
ATOM     19  C   UNL     1       3.352  -1.110   0.000  0.00  0.00    -0.024 A 
ATOM     20  C   UNL     1       4.067  -1.523   0.000  0.00  0.00    +0.031 C 
ATOM     21  C   UNL     1       4.067   0.127   0.000  0.00  0.00    +0.031 C 
ATOM     22  N   UNL     1       1.139  -0.030   0.000  0.00  0.00    -0.224 NA
ATOM     23  C   UNL     1       2.638  -1.523   0.000  0.00  0.00    +0.014 A 
ATOM     24  C   UNL     1       0.654  -0.698   0.000  0.00  0.00    +0.179 A 
ENDBRANCH  13  14
ENDBRANCH   1  13
TORSDOF 4
