REMARK  Name = 
REMARK  6 active torsions:
REMARK  status: ('A' for Active; 'I' for Inactive)
REMARK    1  A    between atoms: C_2  and  C_3
REMARK    2  A    between atoms: C_3  and  C_4
REMARK    3  A    between atoms: C_4  and  C_5
REMARK    4  A    between atoms: C_5  and  N_6
REMARK    5  A    between atoms: C_7  and  C_9
REMARK    6  A    between atoms: C_9  and  C_10
REMARK                            x       y       z     vdW  Elec       q    Type
REMARK                         _______ _______ _______ _____ _____    ______ ____
ROOT
ATOM      1  C   UNL     1       9.236  -6.108   0.000  0.00  0.00    +0.077 A 
ATOM      2  N   UNL     1       9.990  -6.444   0.000  0.00  0.00    -0.228 NA
ATOM      3  C   UNL     1      10.542  -5.831   0.000  0.00  0.00    +0.170 A 
ATOM      4  N   UNL     1      11.363  -5.917   0.000  0.00  0.00    -0.220 N 
ATOM      5  C   UNL     1      11.775  -6.631   0.000  0.00  0.00    +0.329 C 
ATOM      6  O   UNL     1      11.440  -7.385   0.000  0.00  0.00    -0.250 OA
ATOM      7  N   UNL     1      12.582  -6.460   0.000  0.00  0.00    -0.186 NA
ATOM      8  C   UNL     1      12.668  -5.639   0.000  0.00  0.00    +0.139 C 
ATOM      9  C   UNL     1      11.915  -5.304   0.000  0.00  0.00    +0.125 C 
ATOM     10  S   UNL     1      10.130  -5.116   0.000  0.00  0.00    -0.051 S 
ATOM     11  C   UNL     1       9.323  -5.288   0.000  0.00  0.00    +0.053 A 
ENDROOT
BRANCH   1  12
ATOM     12  C   UNL     1       8.522  -6.521   0.000  0.00  0.00    +0.133 C 
BRANCH  12  14
ATOM     13  N   UNL     1       7.093  -6.521   0.000  0.00  0.00    -0.205 NA
ATOM     14  C   UNL     1       7.808  -6.108   0.000  0.00  0.00    +0.247 C 
ATOM     15  O   UNL     1       7.808  -5.283   0.000  0.00  0.00    -0.273 OA
BRANCH  13  16
ATOM     16  C   UNL     1       6.379  -6.108   0.000  0.00  0.00    +0.115 C 
BRANCH  16  17
ATOM     17  C   UNL     1       5.664  -6.521   0.000  0.00  0.00    +0.023 C 
BRANCH  17  18
ATOM     18  C   UNL     1       4.950  -6.108   0.000  0.00  0.00    +0.002 C 
BRANCH  18  20
ATOM     19  C   UNL     1       3.521  -6.108   0.000  0.00  0.00    +0.000 C 
ATOM     20  C   UNL     1       4.235  -6.521   0.000  0.00  0.00    +0.000 C 
ENDBRANCH  18  20
ENDBRANCH  17  18
ENDBRANCH  16  17
ENDBRANCH  13  16
ENDBRANCH  12  14
ENDBRANCH   1  12
TORSDOF 6
