REMARK  Name = 
REMARK  7 active torsions:
REMARK  status: ('A' for Active; 'I' for Inactive)
REMARK    1  A    between atoms: C_2  and  N_3
REMARK    2  A    between atoms: N_3  and  C_4
REMARK    3  A    between atoms: N_3  and  S_6
REMARK    4  A    between atoms: S_6  and  N_9
REMARK    5  A    between atoms: N_9  and  C_10
REMARK    6  A    between atoms: C_10  and  C_11
REMARK    7  A    between atoms: C_16  and  N_17
REMARK                            x       y       z     vdW  Elec       q    Type
REMARK                         _______ _______ _______ _____ _____    ______ ____
ROOT
ATOM      1  C   UNL     1       7.174  -1.540   0.000  0.00  0.00    +0.029 A 
ATOM      2  C   UNL     1       7.587  -2.254   0.000  0.00  0.00    +0.129 A 
ATOM      3  N   UNL     1       8.412  -2.254   0.000  0.00  0.00    -0.229 NA
ATOM      4  C   UNL     1       8.824  -1.540   0.000  0.00  0.00    +0.100 A 
ATOM      5  C   UNL     1       8.412  -0.825   0.000  0.00  0.00    +0.020 A 
ATOM      6  C   UNL     1       7.587  -0.825   0.000  0.00  0.00    +0.002 A 
ENDROOT
BRANCH   2   7
ATOM      7  N   UNL     1       7.174  -2.968   0.000  0.00  0.00    -0.288 N 
ATOM      8  C   UNL     1       6.349  -2.968   0.000  0.00  0.00    +0.124 C 
ATOM      9  C   UNL     1       5.937  -3.683   0.000  0.00  0.00    +0.164 C 
ATOM     10  O   UNL     1       6.349  -4.397   0.000  0.00  0.00    -0.350 OA
ATOM     11  C   UNL     1       7.174  -4.397   0.000  0.00  0.00    +0.164 C 
ATOM     12  C   UNL     1       7.587  -3.683   0.000  0.00  0.00    +0.124 C 
ENDBRANCH   2   7
BRANCH   1  13
ATOM     13  C   UNL     1       6.349  -1.540   0.000  0.00  0.00    +0.146 C 
BRANCH  13  14
ATOM     14  N   UNL     1       5.937  -0.825   0.000  0.00  0.00    -0.062 NA
BRANCH  14  15
ATOM     15  S   UNL     1       5.112  -0.825   0.000  0.00  0.00    +0.116 S 
ATOM     16  O   UNL     1       5.112   0.000   0.000  0.00  0.00    -0.140 OA
ATOM     17  O   UNL     1       5.112  -1.650   0.000  0.00  0.00    -0.140 OA
BRANCH  15  18
ATOM     18  N   UNL     1       4.287  -0.825   0.000  0.00  0.00    -0.144 NA
BRANCH  18  19
ATOM     19  C   UNL     1       3.874  -1.540   0.000  0.00  0.00    +0.097 C 
ATOM     20  C   UNL     1       4.287  -2.254   0.000  0.00  0.00    +0.021 C 
ENDBRANCH  18  19
BRANCH  18  22
ATOM     21  C   UNL     1       3.049  -0.111   0.000  0.00  0.00    +0.021 C 
ATOM     22  C   UNL     1       3.874  -0.111   0.000  0.00  0.00    +0.097 C 
ENDBRANCH  18  22
ENDBRANCH  15  18
ENDBRANCH  14  15
ENDBRANCH  13  14
ENDBRANCH   1  13
TORSDOF 7
