REMARK  Name = 
REMARK  4 active torsions:
REMARK  status: ('A' for Active; 'I' for Inactive)
REMARK    1  A    between atoms: C_2  and  C_3
REMARK    2  A    between atoms: C_2  and  C_14
REMARK    3  A    between atoms: N_5  and  C_6
REMARK    4  A    between atoms: C_9  and  C_11
REMARK                            x       y       z     vdW  Elec       q    Type
REMARK                         _______ _______ _______ _____ _____    ______ ____
ROOT
ATOM      1  C   UNL     1       4.309  -0.374   0.000  0.00  0.00    +0.245 C 
ATOM      2  N   UNL     1       3.595  -0.786   0.000  0.00  0.00    -0.207 NA
ATOM      3  O   UNL     1       5.024  -0.786   0.000  0.00  0.00    -0.273 OA
ENDROOT
BRANCH   2   4
ATOM      4  C   UNL     1       3.595  -1.611   0.000  0.00  0.00    +0.096 C 
ATOM      5  C   UNL     1       2.928  -2.096   0.000  0.00  0.00    +0.033 C 
ATOM      6  C   UNL     1       3.182  -2.881   0.000  0.00  0.00    +0.105 C 
ATOM      7  C   UNL     1       4.007  -2.881   0.000  0.00  0.00    +0.013 C 
ATOM      8  C   UNL     1       4.262  -2.096   0.000  0.00  0.00    +0.022 C 
BRANCH   6   9
ATOM      9  C   UNL     1       2.697  -3.548   0.000  0.00  0.00    +0.364 C 
ATOM     10  O   UNL     1       1.877  -3.462   0.000  0.00  0.00    -0.246 OA
ATOM     11  O   UNL     1       3.033  -4.302   0.000  0.00  0.00    -0.246 OA
ENDBRANCH   6   9
ENDBRANCH   2   4
BRANCH   1  13
ATOM     12  C   UNL     1       3.595   0.864   0.000  0.00  0.00    +0.015 C 
ATOM     13  C   UNL     1       4.309   0.451   0.000  0.00  0.00    +0.104 C 
BRANCH  13  14
ATOM     14  C   UNL     1       5.024   0.864   0.000  0.00  0.00    +0.036 A 
ATOM     15  C   UNL     1       5.777   0.528   0.000  0.00  0.00    +0.151 A 
ATOM     16  C   UNL     1       5.949  -0.279   0.000  0.00  0.00    +0.075 C 
ATOM     17  O   UNL     1       6.330   1.141   0.000  0.00  0.00    -0.358 OA
ATOM     18  N   UNL     1       5.917   1.856   0.000  0.00  0.00    -0.082 NA
ATOM     19  C   UNL     1       5.110   1.684   0.000  0.00  0.00    +0.097 A 
ATOM     20  C   UNL     1       4.497   2.236   0.000  0.00  0.00    +0.055 C 
ENDBRANCH  13  14
ENDBRANCH   1  13
TORSDOF 4
