REMARK  Name = 
REMARK  4 active torsions:
REMARK  status: ('A' for Active; 'I' for Inactive)
REMARK    1  A    between atoms: C_3  and  C_5
REMARK    2  A    between atoms: C_5  and  N_6
REMARK    3  A    between atoms: C_8  and  C_9
REMARK    4  A    between atoms: C_9  and  C_10
REMARK                            x       y       z     vdW  Elec       q    Type
REMARK                         _______ _______ _______ _____ _____    ______ ____
ROOT
ATOM      1 CL   UNL     1       0.000   0.000   0.000  0.00  0.00    +0.000 Cl
ENDROOT
TORSDOF 0
REMARK  Name = 
REMARK  4 active torsions:
REMARK  status: ('A' for Active; 'I' for Inactive)
REMARK    1  A    between atoms: C_3  and  C_5
REMARK    2  A    between atoms: C_5  and  N_6
REMARK    3  A    between atoms: C_8  and  C_9
REMARK    4  A    between atoms: C_9  and  C_10
REMARK                            x       y       z     vdW  Elec       q    Type
REMARK                         _______ _______ _______ _____ _____    ______ ____
ROOT
ATOM      1  N   UNL     1       3.197   1.429   0.000  0.00  0.00    -0.219 N 
ATOM      2  N   UNL     1       2.529   0.944   0.000  0.00  0.00    -0.064 NA
ATOM      3  N   UNL     1       2.784   0.159   0.000  0.00  0.00    -0.133 NA
ATOM      4  C   UNL     1       3.609   0.159   0.000  0.00  0.00    +0.103 A 
ATOM      5  C   UNL     1       3.864   0.944   0.000  0.00  0.00    +0.114 A 
ENDROOT
BRANCH   1   6
ATOM      6  C   UNL     1       3.197   2.254   0.000  0.00  0.00    +0.242 C 
BRANCH   6   8
ATOM      7  O   UNL     1       2.482   3.491   0.000  0.00  0.00    -0.243 OA
ATOM      8  C   UNL     1       2.482   2.666   0.000  0.00  0.00    +0.389 C 
ATOM      9  O   UNL     1       1.768   2.254   0.000  0.00  0.00    -0.243 OA
ENDBRANCH   6   8
ENDBRANCH   1   6
BRANCH   4  10
ATOM     10  C   UNL     1       4.094  -0.508   0.000  0.00  0.00    +0.080 C 
BRANCH  10  11
ATOM     11  C   UNL     1       3.759  -1.262   0.000  0.00  0.00    +0.181 C 
ATOM     12  C   UNL     1       2.952  -1.433   0.000  0.00  0.00    +0.269 C 
ATOM     13  O   UNL     1       2.339  -0.881   0.000  0.00  0.00    -0.271 OA
ATOM     14  N   UNL     1       2.865  -2.254   0.000  0.00  0.00    -0.125 NA
ATOM     15  C   UNL     1       3.619  -2.589   0.000  0.00  0.00    +0.346 C 
ATOM     16  O   UNL     1       3.791  -3.396   0.000  0.00  0.00    -0.249 OA
ATOM     17  N   UNL     1       4.171  -1.976   0.000  0.00  0.00    -0.179 NA
ENDBRANCH  10  11
ENDBRANCH   4  10
TORSDOF 4
