REMARK  Name = 
REMARK  5 active torsions:
REMARK  status: ('A' for Active; 'I' for Inactive)
REMARK    1  A    between atoms: C_2  and  C_12
REMARK    2  A    between atoms: N_3  and  C_4
REMARK    3  A    between atoms: C_4  and  C_5
REMARK    4  A    between atoms: C_5  and  C_6
REMARK    5  A    between atoms: C_17  and  C_19
REMARK                            x       y       z     vdW  Elec       q    Type
REMARK                         _______ _______ _______ _____ _____    ______ ____
ROOT
ATOM      1  C   UNL     1      -1.074  -3.829   0.000  0.00  0.00    +0.154 C 
ATOM      2  N   UNL     1      -1.827  -3.494   0.000  0.00  0.00    -0.273 N 
ATOM      3  C   UNL     1      -1.999  -2.687   0.000  0.00  0.00    +0.225 C 
ATOM      4  O   UNL     1      -1.386  -2.135   0.000  0.00  0.00    -0.275 OA
ATOM      5  C   UNL     1      -2.379  -4.107   0.000  0.00  0.00    +0.094 C 
ATOM      6  C   UNL     1      -1.967  -4.822   0.000  0.00  0.00    +0.024 C 
ATOM      7  C   UNL     1      -1.160  -4.650   0.000  0.00  0.00    +0.031 C 
ENDROOT
BRANCH   3   8
ATOM      8  C   UNL     1      -2.783  -2.432   0.000  0.00  0.00    +0.077 C 
ATOM      9  C   UNL     1      -2.955  -1.625   0.000  0.00  0.00    +0.009 C 
ATOM     10  C   UNL     1      -3.740  -1.370   0.000  0.00  0.00    +0.000 C 
ATOM     11  C   UNL     1      -4.353  -1.922   0.000  0.00  0.00    +0.000 C 
ATOM     12  C   UNL     1      -4.181  -2.729   0.000  0.00  0.00    +0.000 C 
ATOM     13  C   UNL     1      -3.397  -2.984   0.000  0.00  0.00    +0.009 C 
ENDBRANCH   3   8
BRANCH   1  15
ATOM     14  O   UNL     1      -0.359  -2.592   0.000  0.00  0.00    -0.272 OA
ATOM     15  C   UNL     1      -0.359  -3.417   0.000  0.00  0.00    +0.259 C 
ATOM     16  N   UNL     1       0.355  -3.829   0.000  0.00  0.00    -0.204 NA
BRANCH  16  17
ATOM     17  C   UNL     1       1.070  -3.417   0.000  0.00  0.00    +0.121 C 
BRANCH  17  18
ATOM     18  C   UNL     1       1.784  -3.829   0.000  0.00  0.00    +0.069 C 
BRANCH  18  19
ATOM     19  C   UNL     1       2.499  -3.417   0.000  0.00  0.00    +0.061 A 
ATOM     20  N   UNL     1       3.213  -3.829   0.000  0.00  0.00    -0.248 NA
ATOM     21  C   UNL     1       3.928  -3.417   0.000  0.00  0.00    +0.098 A 
ATOM     22  C   UNL     1       3.928  -2.592   0.000  0.00  0.00    +0.021 A 
ATOM     23  C   UNL     1       3.213  -2.179   0.000  0.00  0.00    +0.003 A 
ATOM     24  C   UNL     1       2.499  -2.592   0.000  0.00  0.00    +0.015 A 
ENDBRANCH  18  19
ENDBRANCH  17  18
ENDBRANCH  16  17
ENDBRANCH   1  15
TORSDOF 5
