REMARK  Name = 
REMARK  2 active torsions:
REMARK  status: ('A' for Active; 'I' for Inactive)
REMARK    1  A    between atoms: C_2  and  C_3
REMARK    2  A    between atoms: N_8  and  C_9
REMARK                            x       y       z     vdW  Elec       q    Type
REMARK                         _______ _______ _______ _____ _____    ______ ____
ROOT
ATOM      1  C   UNL     1       1.322   2.413   0.000  0.00  0.00    +0.091 A 
ATOM      2  C   UNL     1       2.037   2.001   0.000  0.00  0.00    +0.186 A 
ATOM      3  F   UNL     1       2.037   1.176   0.000  0.00  0.00    -0.200 F 
ATOM      4  C   UNL     1       2.751   2.413   0.000  0.00  0.00    +0.178 A 
ATOM      5  N   UNL     1       3.466   2.001   0.000  0.00  0.00    -0.215 NA
ATOM      6  N   UNL     1       2.751   3.238   0.000  0.00  0.00    -0.205 NA
ATOM      7  C   UNL     1       2.037   3.651   0.000  0.00  0.00    +0.200 A 
ATOM      8  N   UNL     1       1.322   3.238   0.000  0.00  0.00    -0.226 NA
ENDROOT
BRANCH   5   9
ATOM      9  C   UNL     1       3.466   1.176   0.000  0.00  0.00    +0.156 C 
ATOM     10  C   UNL     1       4.133   0.691   0.000  0.00  0.00    +0.204 C 
ATOM     11  O   UNL     1       4.918   0.946   0.000  0.00  0.00    -0.219 OA
ATOM     12  C   UNL     1       3.878  -0.094   0.000  0.00  0.00    +0.177 C 
ATOM     13  O   UNL     1       3.053  -0.094   0.000  0.00  0.00    -0.349 OA
ATOM     14  C   UNL     1       2.798   0.691   0.000  0.00  0.00    +0.166 C 
ENDBRANCH   5   9
BRANCH   1  16
ATOM     15  C   UNL     1      -0.107   2.413   0.000  0.00  0.00    +0.007 C 
ATOM     16  C   UNL     1       0.608   2.001   0.000  0.00  0.00    +0.048 C 
ENDBRANCH   1  16
TORSDOF 2
