REMARK  Name = 
REMARK  2 active torsions:
REMARK  status: ('A' for Active; 'I' for Inactive)
REMARK    1  A    between atoms: N_4  and  C_5
REMARK    2  A    between atoms: C_5  and  C_6
REMARK                            x       y       z     vdW  Elec       q    Type
REMARK                         _______ _______ _______ _____ _____    ______ ____
ROOT
ATOM      1  C   UNL     1      -0.171  -0.698   0.000  0.00  0.00    +0.154 C 
ENDROOT
BRANCH   1   9
ATOM      2 CL   UNL     1      -2.646  -2.127   0.000  0.00  0.00    -0.076 Cl
ATOM      3  C   UNL     1      -1.821  -2.127   0.000  0.00  0.00    +0.133 A 
ATOM      4  C   UNL     1      -1.409  -2.841   0.000  0.00  0.00    +0.295 A 
ATOM      5  O   UNL     1      -1.821  -3.556   0.000  0.00  0.00    -0.264 OA
ATOM      6  N   UNL     1      -0.584  -2.841   0.000  0.00  0.00    -0.152 NA
ATOM      7  C   UNL     1      -0.171  -2.127   0.000  0.00  0.00    +0.353 A 
ATOM      8  O   UNL     1       0.654  -2.127   0.000  0.00  0.00    -0.244 OA
ATOM      9  N   UNL     1      -0.584  -1.412   0.000  0.00  0.00    -0.274 N 
ATOM     10  C   UNL     1      -1.409  -1.412   0.000  0.00  0.00    +0.096 A 
ENDBRANCH   1   9
BRANCH   1  11
ATOM     11  C   UNL     1       0.654  -0.698   0.000  0.00  0.00    +0.193 C 
ATOM     12  O   UNL     1       1.139  -1.365   0.000  0.00  0.00    -0.477 OA
ATOM     13  C   UNL     1       1.923  -1.110   0.000  0.00  0.00    +0.135 A 
ATOM     14  C   UNL     1       1.923  -0.285   0.000  0.00  0.00    +0.015 A 
ATOM     15  C   UNL     1       2.638   0.127   0.000  0.00  0.00    -0.001 A 
ATOM     16  C   UNL     1       3.352  -0.285   0.000  0.00  0.00    -0.000 A 
ATOM     17  C   UNL     1       3.352  -1.110   0.000  0.00  0.00    +0.003 A 
ATOM     18  C   UNL     1       2.638  -1.523   0.000  0.00  0.00    +0.037 A 
ATOM     19  C   UNL     1       1.139  -0.030   0.000  0.00  0.00    +0.075 C 
ENDBRANCH   1  11
TORSDOF 2
