REMARK  Name = 
REMARK  4 active torsions:
REMARK  status: ('A' for Active; 'I' for Inactive)
REMARK    1  A    between atoms: C_2  and  C_3
REMARK    2  A    between atoms: C_6  and  N_7
REMARK    3  A    between atoms: N_7  and  C_8
REMARK    4  A    between atoms: C_8  and  C_9
REMARK                            x       y       z     vdW  Elec       q    Type
REMARK                         _______ _______ _______ _____ _____    ______ ____
ROOT
ATOM      1  C   UNL     1       1.429  -2.475   0.000  0.00  0.00    +0.149 A 
ATOM      2  N   UNL     1       0.715  -2.888   0.000  0.00  0.00    -0.232 NA
ATOM      3  C   UNL     1       0.715  -3.712   0.000  0.00  0.00    +0.116 A 
ATOM      4  C   UNL     1       1.429  -4.125   0.000  0.00  0.00    +0.085 A 
ATOM      5  C   UNL     1       2.143  -3.712   0.000  0.00  0.00    +0.020 A 
ATOM      6  C   UNL     1       2.143  -2.888   0.000  0.00  0.00    +0.031 A 
ENDROOT
BRANCH   1   8
ATOM      7  N   UNL     1       1.429  -0.825   0.000  0.00  0.00    -0.189 NA
ATOM      8  C   UNL     1       1.429  -1.650   0.000  0.00  0.00    +0.120 C 
ENDBRANCH   1   8
BRANCH   4   9
ATOM      9  N   UNL     1       1.429  -4.950   0.000  0.00  0.00    -0.228 NA
BRANCH   9  10
ATOM     10  C   UNL     1       2.143  -5.362   0.000  0.00  0.00    +0.179 C 
BRANCH  10  11
ATOM     11  C   UNL     1       2.143  -6.188   0.000  0.00  0.00    +0.175 C 
ATOM     12  O   UNL     1       1.429  -6.600   0.000  0.00  0.00    -0.471 OA
ATOM     13  C   UNL     1       1.429  -7.425   0.000  0.00  0.00    +0.252 C 
ATOM     14  C   UNL     1       2.143  -7.838   0.000  0.00  0.00    +0.253 C 
ATOM     15  O   UNL     1       2.858  -7.425   0.000  0.00  0.00    -0.466 OA
ATOM     16  C   UNL     1       2.858  -6.600   0.000  0.00  0.00    +0.206 C 
ENDBRANCH  10  11
ENDBRANCH   9  10
ENDBRANCH   4   9
TORSDOF 4
