REMARK  Name = 
REMARK  1 active torsions:
REMARK  status: ('A' for Active; 'I' for Inactive)
REMARK    1  A    between atoms: C_14  and  C_15
REMARK                            x       y       z     vdW  Elec       q    Type
REMARK                         _______ _______ _______ _____ _____    ______ ____
ROOT
ATOM      1  C   UNL     1       0.715  -0.412   0.000  0.00  0.00    +0.052 C 
ATOM      2  C   UNL     1       0.715  -1.238   0.000  0.00  0.00    +0.063 A 
ATOM      3  N   UNL     1       0.000  -1.650   0.000  0.00  0.00    -0.218 NA
ATOM      4  C   UNL     1       0.000  -2.475   0.000  0.00  0.00    +0.220 A 
ATOM      5  N   UNL     1      -0.715  -2.888   0.000  0.00  0.00    -0.267 N 
ATOM      6  C   UNL     1      -1.429  -2.475   0.000  0.00  0.00    +0.185 C 
ATOM      7  C   UNL     1      -2.143  -2.888   0.000  0.00  0.00    +0.171 C 
ATOM      8  O   UNL     1      -2.143  -3.712   0.000  0.00  0.00    -0.350 OA
ATOM      9  C   UNL     1      -1.429  -4.125   0.000  0.00  0.00    +0.164 C 
ATOM     10  C   UNL     1      -0.715  -3.712   0.000  0.00  0.00    +0.126 C 
ATOM     11  N   UNL     1       0.715  -2.888   0.000  0.00  0.00    -0.218 NA
ATOM     12  C   UNL     1       1.429  -2.475   0.000  0.00  0.00    +0.063 A 
ATOM     13  C   UNL     1       2.143  -2.888   0.000  0.00  0.00    +0.052 C 
ATOM     14  C   UNL     1       1.429  -1.650   0.000  0.00  0.00    +0.030 A 
ENDROOT
BRANCH   6  15
ATOM     15  C   UNL     1      -1.429  -1.650   0.000  0.00  0.00    +0.281 C 
ATOM     16  N   UNL     1      -2.143  -1.238   0.000  0.00  0.00    -0.086 NA
ATOM     17  O   UNL     1      -0.715  -1.238   0.000  0.00  0.00    -0.270 OA
ENDBRANCH   6  15
TORSDOF 1
