REMARK  Name = 
REMARK  3 active torsions:
REMARK  status: ('A' for Active; 'I' for Inactive)
REMARK    1  A    between atoms: C_5  and  N_9
REMARK    2  A    between atoms: C_10  and  C_12
REMARK    3  A    between atoms: C_12  and  C_13
REMARK                            x       y       z     vdW  Elec       q    Type
REMARK                         _______ _______ _______ _____ _____    ______ ____
ROOT
ATOM      1  N   UNL     1       3.486  -1.287   0.000  0.00  0.00    -0.209 NA
ATOM      2  C   UNL     1       4.299  -1.431   0.000  0.00  0.00    +0.246 C 
ATOM      3  O   UNL     1       4.581  -2.206   0.000  0.00  0.00    -0.273 OA
ENDROOT
BRANCH   1   8
ATOM      4  C   UNL     1       2.956  -4.394   0.000  0.00  0.00    +0.000 C 
ATOM      5  C   UNL     1       2.956  -3.569   0.000  0.00  0.00    +0.000 C 
ATOM      6  C   UNL     1       3.670  -3.157   0.000  0.00  0.00    +0.002 C 
ATOM      7  C   UNL     1       3.670  -2.332   0.000  0.00  0.00    +0.020 C 
ATOM      8  C   UNL     1       2.956  -1.919   0.000  0.00  0.00    +0.079 C 
ATOM      9  C   UNL     1       2.426  -1.287   0.000  0.00  0.00    +0.022 C 
ATOM     10  C   UNL     1       2.241  -2.332   0.000  0.00  0.00    +0.020 C 
ATOM     11  C   UNL     1       2.241  -3.157   0.000  0.00  0.00    +0.002 C 
ENDBRANCH   1   8
BRANCH   2  12
ATOM     12  C   UNL     1       4.829  -0.798   0.000  0.00  0.00    +0.119 C 
BRANCH  12  13
ATOM     13  C   UNL     1       5.641  -0.942   0.000  0.00  0.00    +0.058 A 
ATOM     14  C   UNL     1       5.924  -1.717   0.000  0.00  0.00    +0.278 A 
ATOM     15  O   UNL     1       5.393  -2.349   0.000  0.00  0.00    -0.265 OA
ATOM     16  N   UNL     1       6.736  -1.860   0.000  0.00  0.00    -0.193 NA
ATOM     17  C   UNL     1       7.266  -1.228   0.000  0.00  0.00    +0.142 A 
ATOM     18  C   UNL     1       8.079  -1.372   0.000  0.00  0.00    +0.074 C 
ATOM     19  N   UNL     1       6.984  -0.453   0.000  0.00  0.00    -0.235 NA
ATOM     20  C   UNL     1       6.172  -0.310   0.000  0.00  0.00    +0.062 A 
ATOM     21  C   UNL     1       5.889   0.465   0.000  0.00  0.00    +0.052 C 
ENDBRANCH  12  13
ENDBRANCH   2  12
TORSDOF 3
