REMARK  Name = 
REMARK  5 active torsions:
REMARK  status: ('A' for Active; 'I' for Inactive)
REMARK    1  A    between atoms: C_2  and  C_4
REMARK    2  A    between atoms: C_4  and  N_5
REMARK    3  A    between atoms: C_9  and  C_10
REMARK    4  A    between atoms: C_10  and  C_11
REMARK    5  A    between atoms: N_13  and  C_14
REMARK                            x       y       z     vdW  Elec       q    Type
REMARK                         _______ _______ _______ _____ _____    ______ ____
ROOT
ATOM      1  N   UNL     1       3.595  -1.611   0.000  0.00  0.00    -0.256 N 
ATOM      2  C   UNL     1       2.928  -2.096   0.000  0.00  0.00    +0.054 A 
ATOM      3  C   UNL     1       2.143  -1.841   0.000  0.00  0.00    +0.051 C 
ATOM      4  C   UNL     1       3.182  -2.881   0.000  0.00  0.00    +0.015 A 
ATOM      5  C   UNL     1       4.007  -2.881   0.000  0.00  0.00    +0.077 A 
ATOM      6  C   UNL     1       4.492  -3.548   0.000  0.00  0.00    +0.054 C 
ATOM      7  N   UNL     1       4.262  -2.096   0.000  0.00  0.00    -0.174 NA
ENDROOT
BRANCH   1   8
ATOM      8  C   UNL     1       3.595  -0.786   0.000  0.00  0.00    +0.127 C 
BRANCH   8  10
ATOM      9  C   UNL     1       4.309   0.451   0.000  0.00  0.00    +0.002 C 
ATOM     10  C   UNL     1       4.309  -0.374   0.000  0.00  0.00    +0.024 C 
ATOM     11  C   UNL     1       5.024  -0.786   0.000  0.00  0.00    +0.002 C 
ENDBRANCH   8  10
ENDBRANCH   1   8
BRANCH   4  12
ATOM     12  C   UNL     1       2.697  -3.548   0.000  0.00  0.00    +0.115 C 
BRANCH  12  13
ATOM     13  C   UNL     1       1.877  -3.462   0.000  0.00  0.00    +0.246 C 
ATOM     14  N   UNL     1       1.392  -4.130   0.000  0.00  0.00    -0.207 NA
ATOM     15  O   UNL     1       1.541  -2.708   0.000  0.00  0.00    -0.273 OA
BRANCH  14  16
ATOM     16  C   UNL     1       0.572  -4.043   0.000  0.00  0.00    +0.095 C 
ATOM     17  C   UNL     1       0.159  -3.329   0.000  0.00  0.00    +0.022 C 
ATOM     18  C   UNL     1      -0.648  -3.500   0.000  0.00  0.00    +0.002 C 
ATOM     19  C   UNL     1      -0.734  -4.321   0.000  0.00  0.00    +0.002 C 
ATOM     20  C   UNL     1       0.020  -4.656   0.000  0.00  0.00    +0.022 C 
ENDBRANCH  14  16
ENDBRANCH  12  13
ENDBRANCH   4  12
TORSDOF 5
