REMARK  Name = 
REMARK  1 active torsions:
REMARK  status: ('A' for Active; 'I' for Inactive)
REMARK    1  A    between atoms: N_8  and  C_9
REMARK                            x       y       z     vdW  Elec       q    Type
REMARK                         _______ _______ _______ _____ _____    ______ ____
ROOT
ATOM      1  C   UNL     1       1.496  -2.138   0.000  0.00  0.00    +0.075 C 
ATOM      2  C   UNL     1       1.496  -2.963   0.000  0.00  0.00    +0.156 A 
ATOM      3  O   UNL     1       0.828  -3.448   0.000  0.00  0.00    -0.356 OA
ATOM      4  N   UNL     1       1.083  -4.233   0.000  0.00  0.00    -0.060 NA
ATOM      5  C   UNL     1       1.908  -4.233   0.000  0.00  0.00    +0.197 A 
ATOM      6  N   UNL     1       2.393  -4.900   0.000  0.00  0.00    -0.139 NA
ATOM      7  C   UNL     1       2.058  -5.654   0.000  0.00  0.00    +0.345 C 
ATOM      8  N   UNL     1       2.543  -6.321   0.000  0.00  0.00    -0.189 NA
ATOM      9  O   UNL     1       1.237  -5.740   0.000  0.00  0.00    -0.249 OA
ATOM     10  C   UNL     1       2.163  -3.448   0.000  0.00  0.00    +0.075 A 
ENDROOT
BRANCH   8  11
ATOM     11  C   UNL     1       2.207  -7.075   0.000  0.00  0.00    +0.104 C 
ATOM     12  C   UNL     1       1.722  -7.742   0.000  0.00  0.00    +0.171 C 
ATOM     13  S   UNL     1       2.207  -8.410   0.000  0.00  0.00    -0.008 S 
ATOM     14  O   UNL     1       1.493  -8.822   0.000  0.00  0.00    -0.173 OA
ATOM     15  O   UNL     1       2.543  -9.164   0.000  0.00  0.00    -0.173 OA
ATOM     16  C   UNL     1       2.992  -8.155   0.000  0.00  0.00    +0.153 C 
ATOM     17  C   UNL     1       2.992  -7.330   0.000  0.00  0.00    +0.047 C 
ATOM     18  C   UNL     1       1.493  -6.662   0.000  0.00  0.00    +0.024 C 
ENDBRANCH   8  11
TORSDOF 1
