REMARK  Name = 
REMARK  6 active torsions:
REMARK  status: ('A' for Active; 'I' for Inactive)
REMARK    1  A    between atoms: C_2  and  C_3
REMARK    2  A    between atoms: C_3  and  O_4
REMARK    3  A    between atoms: O_4  and  C_5
REMARK    4  A    between atoms: C_5  and  C_6
REMARK    5  A    between atoms: C_6  and  N_7
REMARK    6  A    between atoms: C_11  and  C_12
REMARK                            x       y       z     vdW  Elec       q    Type
REMARK                         _______ _______ _______ _____ _____    ______ ____
ROOT
ATOM      1  N   UNL     1       5.001  -3.712   0.000  0.00  0.00    -0.218 NA
ATOM      2  C   UNL     1       5.716  -4.125   0.000  0.00  0.00    +0.148 A 
ATOM      3  N   UNL     1       5.716  -4.950   0.000  0.00  0.00    -0.227 NA
ATOM      4  C   UNL     1       6.430  -5.362   0.000  0.00  0.00    +0.111 A 
ATOM      5  C   UNL     1       7.145  -4.950   0.000  0.00  0.00    +0.088 A 
ATOM      6  C   UNL     1       7.145  -4.125   0.000  0.00  0.00    +0.015 A 
ATOM      7  C   UNL     1       6.430  -3.712   0.000  0.00  0.00    +0.036 A 
ENDROOT
BRANCH   5   8
ATOM      8  C   UNL     1       7.859  -5.362   0.000  0.00  0.00    +0.102 C 
ATOM      9  N   UNL     1       8.574  -5.775   0.000  0.00  0.00    -0.191 NA
ENDBRANCH   5   8
BRANCH   1  10
ATOM     10  C   UNL     1       4.287  -4.125   0.000  0.00  0.00    +0.146 C 
BRANCH  10  11
ATOM     11  C   UNL     1       3.572  -3.712   0.000  0.00  0.00    +0.166 C 
BRANCH  11  12
ATOM     12  O   UNL     1       2.858  -4.125   0.000  0.00  0.00    -0.349 OA
BRANCH  12  13
ATOM     13  C   UNL     1       2.143  -3.712   0.000  0.00  0.00    +0.178 C 
BRANCH  13  15
ATOM     14  O   UNL     1       0.715  -3.712   0.000  0.00  0.00    -0.218 OA
ATOM     15  C   UNL     1       1.429  -4.125   0.000  0.00  0.00    +0.214 C 
ENDBRANCH  13  15
ENDBRANCH  12  13
ENDBRANCH  11  12
ENDBRANCH  10  11
ENDBRANCH   1  10
TORSDOF 6
