REMARK  Name = 
REMARK  3 active torsions:
REMARK  status: ('A' for Active; 'I' for Inactive)
REMARK    1  A    between atoms: C_2  and  N_3
REMARK    2  A    between atoms: C_2  and  C_13
REMARK    3  A    between atoms: N_6  and  C_7
REMARK                            x       y       z     vdW  Elec       q    Type
REMARK                         _______ _______ _______ _____ _____    ______ ____
ROOT
ATOM      1  N   UNL     1       1.429  -1.650   0.000  0.00  0.00    -0.189 NA
ATOM      2  C   UNL     1       2.143  -2.062   0.000  0.00  0.00    +0.345 C 
ATOM      3  N   UNL     1       2.858  -1.650   0.000  0.00  0.00    -0.142 NA
ATOM      4  O   UNL     1       2.143  -2.888   0.000  0.00  0.00    -0.249 OA
ENDROOT
BRANCH   3   5
ATOM      5  C   UNL     1       3.572  -2.062   0.000  0.00  0.00    +0.155 A 
ATOM      6  N   UNL     1       3.659  -2.883   0.000  0.00  0.00    -0.234 N 
ATOM      7  C   UNL     1       3.046  -3.435   0.000  0.00  0.00    +0.155 C 
ATOM      8  N   UNL     1       4.466  -3.054   0.000  0.00  0.00    -0.166 NA
ATOM      9  C   UNL     1       4.878  -2.340   0.000  0.00  0.00    +0.123 A 
ATOM     10  C   UNL     1       4.326  -1.727   0.000  0.00  0.00    +0.058 A 
ENDBRANCH   3   5
BRANCH   1  12
ATOM     11  C   UNL     1       0.715  -2.888   0.000  0.00  0.00    +0.023 C 
ATOM     12  C   UNL     1       0.715  -2.062   0.000  0.00  0.00    +0.097 C 
BRANCH  12  13
ATOM     13  C   UNL     1       0.000  -1.650   0.000  0.00  0.00    +0.025 C 
ATOM     14  C   UNL     1       0.000  -0.825   0.000  0.00  0.00    +0.034 C 
ATOM     15  C   UNL     1      -0.715  -0.412   0.000  0.00  0.00    +0.142 C 
ATOM     16  O   UNL     1      -1.429  -0.825   0.000  0.00  0.00    -0.354 OA
ATOM     17  C   UNL     1      -1.429  -1.650   0.000  0.00  0.00    +0.142 C 
ATOM     18  C   UNL     1      -0.715  -2.062   0.000  0.00  0.00    +0.034 C 
ENDBRANCH  12  13
ENDBRANCH   1  12
TORSDOF 3
