REMARK  Name = 
REMARK  3 active torsions:
REMARK  status: ('A' for Active; 'I' for Inactive)
REMARK    1  A    between atoms: C_2  and  C_3
REMARK    2  A    between atoms: C_2  and  C_13
REMARK    3  A    between atoms: C_3  and  N_4
REMARK                            x       y       z     vdW  Elec       q    Type
REMARK                         _______ _______ _______ _____ _____    ______ ____
ROOT
ATOM      1  O   UNL     1       2.243  -2.592   0.000  0.00  0.00    -0.216 OA
ATOM      2  C   UNL     1       1.436  -2.763   0.000  0.00  0.00    +0.199 C 
ENDROOT
BRANCH   2   3
ATOM      3  C   UNL     1       1.181  -3.548   0.000  0.00  0.00    +0.037 A 
ATOM      4  C   UNL     1       0.374  -3.719   0.000  0.00  0.00    +0.141 A 
ATOM      5  F   UNL     1      -0.178  -3.106   0.000  0.00  0.00    -0.204 F 
ATOM      6  C   UNL     1       0.119  -4.504   0.000  0.00  0.00    +0.059 A 
ATOM      7  C   UNL     1       0.671  -5.117   0.000  0.00  0.00    +0.142 A 
ATOM      8  F   UNL     1       0.416  -5.902   0.000  0.00  0.00    -0.204 F 
ATOM      9  C   UNL     1       1.478  -4.945   0.000  0.00  0.00    +0.030 A 
ATOM     10  C   UNL     1       1.733  -4.161   0.000  0.00  0.00    +0.003 A 
ENDBRANCH   2   3
BRANCH   2  11
ATOM     11  C   UNL     1       0.884  -2.150   0.000  0.00  0.00    +0.145 C 
BRANCH  11  12
ATOM     12  N   UNL     1       1.139  -1.365   0.000  0.00  0.00    -0.306 N 
ATOM     13  C   UNL     1       1.923  -1.110   0.000  0.00  0.00    +0.079 A 
ATOM     14  C   UNL     1       1.923  -0.285   0.000  0.00  0.00    +0.099 A 
ATOM     15  C   UNL     1       2.638   0.127   0.000  0.00  0.00    +0.021 A 
ATOM     16  C   UNL     1       3.352  -0.285   0.000  0.00  0.00    +0.002 A 
ATOM     17  C   UNL     1       3.352  -1.110   0.000  0.00  0.00    +0.002 A 
ATOM     18  N   UNL     1       1.139  -0.030   0.000  0.00  0.00    -0.224 NA
ATOM     19  C   UNL     1       2.638  -1.523   0.000  0.00  0.00    +0.019 A 
ATOM     20  C   UNL     1       0.654  -0.698   0.000  0.00  0.00    +0.179 A 
ENDBRANCH  11  12
ENDBRANCH   2  11
TORSDOF 3
