REMARK  Name = 
REMARK  4 active torsions:
REMARK  status: ('A' for Active; 'I' for Inactive)
REMARK    1  A    between atoms: C_2  and  C_3
REMARK    2  A    between atoms: C_2  and  N_5
REMARK    3  A    between atoms: C_2  and  C_15
REMARK    4  A    between atoms: N_8  and  C_9
REMARK                            x       y       z     vdW  Elec       q    Type
REMARK                         _______ _______ _______ _____ _____    ______ ____
ROOT
ATOM      1  C   UNL     1       4.699  -1.540   0.000  0.00  0.00    +0.024 C 
ATOM      2  C   UNL     1       4.287  -0.825   0.000  0.00  0.00    +0.111 C 
ENDROOT
BRANCH   2   3
ATOM      3  C   UNL     1       5.001  -0.412   0.000  0.00  0.00    +0.021 C 
ATOM      4  C   UNL     1       5.716  -0.825   0.000  0.00  0.00    +0.002 C 
ATOM      5  C   UNL     1       6.430  -0.412   0.000  0.00  0.00    +0.000 C 
ATOM      6  C   UNL     1       6.430   0.412   0.000  0.00  0.00    +0.000 C 
ATOM      7  C   UNL     1       5.716   0.825   0.000  0.00  0.00    +0.000 C 
ATOM      8  C   UNL     1       5.001   0.412   0.000  0.00  0.00    +0.002 C 
ENDBRANCH   2   3
BRANCH   2   9
ATOM      9  N   UNL     1       3.572  -1.238   0.000  0.00  0.00    -0.188 NA
ATOM     10  C   UNL     1       3.572  -2.062   0.000  0.00  0.00    +0.343 C 
ATOM     11  N   UNL     1       2.858  -2.475   0.000  0.00  0.00    -0.161 NA
ATOM     12  O   UNL     1       4.287  -2.475   0.000  0.00  0.00    -0.249 OA
BRANCH  11  13
ATOM     13  C   UNL     1       2.858  -3.300   0.000  0.00  0.00    +0.078 A 
ATOM     14  C   UNL     1       2.143  -3.712   0.000  0.00  0.00    +0.037 A 
ATOM     15  C   UNL     1       2.143  -4.537   0.000  0.00  0.00    +0.100 A 
ATOM     16  N   UNL     1       2.858  -4.950   0.000  0.00  0.00    -0.242 NA
ATOM     17  C   UNL     1       3.572  -4.537   0.000  0.00  0.00    +0.100 A 
ATOM     18  C   UNL     1       3.572  -3.712   0.000  0.00  0.00    +0.037 A 
ENDBRANCH  11  13
ENDBRANCH   2   9
BRANCH   2  19
ATOM     19  C   UNL     1       3.874  -0.111   0.000  0.00  0.00    +0.202 C 
ATOM     20  O   UNL     1       4.287   0.604   0.000  0.00  0.00    -0.219 OA
ENDBRANCH   2  19
TORSDOF 4
