REMARK  Name = 
REMARK  4 active torsions:
REMARK  status: ('A' for Active; 'I' for Inactive)
REMARK    1  A    between atoms: C_2  and  C_4
REMARK    2  A    between atoms: C_4  and  N_5
REMARK    3  A    between atoms: C_4  and  C_9
REMARK    4  A    between atoms: N_11  and  C_12
REMARK                            x       y       z     vdW  Elec       q    Type
REMARK                         _______ _______ _______ _____ _____    ______ ____
ROOT
ATOM      1  C   UNL     1       5.716  -6.600   0.000  0.00  0.00    +0.093 A 
ATOM      2  C   UNL     1       5.716  -7.425   0.000  0.00  0.00    +0.117 A 
ATOM      3  N   UNL     1       6.430  -7.838   0.000  0.00  0.00    -0.228 NA
ATOM      4  C   UNL     1       7.145  -7.425   0.000  0.00  0.00    +0.132 A 
ATOM      5  N   UNL     1       7.859  -7.838   0.000  0.00  0.00    -0.288 N 
ATOM      6  C   UNL     1       7.859  -8.662   0.000  0.00  0.00    +0.124 C 
ATOM      7  C   UNL     1       8.574  -9.075   0.000  0.00  0.00    +0.164 C 
ATOM      8  O   UNL     1       9.288  -8.662   0.000  0.00  0.00    -0.350 OA
ATOM      9  C   UNL     1       9.288  -7.838   0.000  0.00  0.00    +0.164 C 
ATOM     10  C   UNL     1       8.574  -7.425   0.000  0.00  0.00    +0.124 C 
ATOM     11  C   UNL     1       7.145  -6.600   0.000  0.00  0.00    +0.036 A 
ATOM     12  C   UNL     1       6.430  -6.188   0.000  0.00  0.00    +0.021 A 
ENDROOT
BRANCH   1  14
ATOM     13  C   UNL     1       4.287  -6.600   0.000  0.00  0.00    +0.265 C 
ATOM     14  N   UNL     1       5.001  -6.188   0.000  0.00  0.00    -0.176 NA
ATOM     15  O   UNL     1       4.287  -7.425   0.000  0.00  0.00    -0.271 OA
BRANCH  13  16
ATOM     16  C   UNL     1       3.572  -6.188   0.000  0.00  0.00    +0.173 C 
BRANCH  16  17
ATOM     17  N   UNL     1       2.858  -6.600   0.000  0.00  0.00    -0.198 NA
ATOM     18  C   UNL     1       2.143  -6.188   0.000  0.00  0.00    +0.242 C 
ATOM     19  C   UNL     1       2.143  -5.362   0.000  0.00  0.00    +0.096 C 
ATOM     20  O   UNL     1       1.429  -6.600   0.000  0.00  0.00    -0.273 OA
ENDBRANCH  16  17
BRANCH  16  22
ATOM     21  C   UNL     1       4.287  -4.950   0.000  0.00  0.00    +0.002 C 
ATOM     22  C   UNL     1       3.572  -5.362   0.000  0.00  0.00    +0.029 C 
ATOM     23  C   UNL     1       2.858  -4.950   0.000  0.00  0.00    +0.002 C 
ENDBRANCH  16  22
ENDBRANCH  13  16
ENDBRANCH   1  14
TORSDOF 4
