REMARK  Name = 
REMARK  3 active torsions:
REMARK  status: ('A' for Active; 'I' for Inactive)
REMARK    1  A    between atoms: C_1  and  C_8
REMARK    2  A    between atoms: C_2  and  C_6
REMARK    3  A    between atoms: N_7  and  C_8
REMARK                            x       y       z     vdW  Elec       q    Type
REMARK                         _______ _______ _______ _____ _____    ______ ____
ROOT
ATOM      1  C   UNL     1       0.429  -2.742   0.000  0.00  0.00    +0.033 A 
ATOM      2  C   UNL     1       0.683  -1.954   0.000  0.00  0.00    +0.094 A 
ATOM      3  N   UNL     1       0.017  -1.471   0.000  0.00  0.00    -0.248 N 
ATOM      4  N   UNL     1      -0.650  -1.954   0.000  0.00  0.00    -0.168 NA
ATOM      5  C   UNL     1       0.017  -0.646   0.000  0.00  0.00    +0.154 C 
ATOM      6  C   UNL     1      -0.396  -2.742   0.000  0.00  0.00    +0.114 A 
ENDROOT
BRANCH   6   7
ATOM      7  C   UNL     1      -0.883  -3.408   0.000  0.00  0.00    +0.092 C 
ATOM      8  O   UNL     1      -0.546  -4.162   0.000  0.00  0.00    -0.543 OA
ATOM      9  O   UNL     1      -1.700  -3.321   0.000  0.00  0.00    -0.543 OA
ENDBRANCH   6   7
BRANCH   1  10
ATOM     10  C   UNL     1       0.912  -3.408   0.000  0.00  0.00    +0.102 C 
BRANCH  10  11
ATOM     11  N   UNL     1       1.733  -3.321   0.000  0.00  0.00    -0.267 NA
ATOM     12  C   UNL     1       2.146  -2.608   0.000  0.00  0.00    +0.075 C 
ATOM     13  C   UNL     1       2.954  -2.779   0.000  0.00  0.00    +0.052 C 
ATOM     14  C   UNL     1       3.038  -3.600   0.000  0.00  0.00    +0.169 C 
ATOM     15  O   UNL     1       3.754  -4.013   0.000  0.00  0.00    -0.222 OA
ATOM     16  C   UNL     1       2.288  -3.933   0.000  0.00  0.00    +0.106 C 
ENDBRANCH  10  11
ENDBRANCH   1  10
TORSDOF 3
REMARK  Name = 
REMARK  3 active torsions:
REMARK  status: ('A' for Active; 'I' for Inactive)
REMARK    1  A    between atoms: C_1  and  C_8
REMARK    2  A    between atoms: C_2  and  C_6
REMARK    3  A    between atoms: N_7  and  C_8
REMARK                            x       y       z     vdW  Elec       q    Type
REMARK                         _______ _______ _______ _____ _____    ______ ____
ROOT
ATOM      1 LI   UNL     1      -2.521  -3.233   0.000  0.00  0.00    +0.000 Li
ENDROOT
TORSDOF 0
