REMARK  Name = 
REMARK  3 active torsions:
REMARK  status: ('A' for Active; 'I' for Inactive)
REMARK    1  A    between atoms: C_4  and  C_9
REMARK    2  A    between atoms: N_5  and  C_11
REMARK    3  A    between atoms: C_11  and  C_12
REMARK                            x       y       z     vdW  Elec       q    Type
REMARK                         _______ _______ _______ _____ _____    ______ ____
ROOT
ATOM      1  C   UNL     1       1.920  -1.108   0.000  0.00  0.00    +0.169 A 
ATOM      2  N   UNL     1       1.137  -1.362   0.000  0.00  0.00    -0.292 N 
ATOM      3  C   UNL     1       0.650  -0.695   0.000  0.00  0.00    +0.180 A 
ATOM      4  N   UNL     1       1.137  -0.029   0.000  0.00  0.00    -0.217 NA
ATOM      5  N   UNL     1       2.636  -1.520   0.000  0.00  0.00    -0.204 NA
ATOM      6  C   UNL     1       3.348  -1.108   0.000  0.00  0.00    +0.239 A 
ATOM      7  N   UNL     1       3.348  -0.283   0.000  0.00  0.00    -0.183 NA
ATOM      8  C   UNL     1       2.636   0.129   0.000  0.00  0.00    +0.301 A 
ATOM      9  O   UNL     1       2.636   0.954   0.000  0.00  0.00    -0.263 OA
ATOM     10  C   UNL     1       1.920  -0.283   0.000  0.00  0.00    +0.175 A 
ENDROOT
BRANCH   6  11
ATOM     11  C   UNL     1       4.064  -1.520   0.000  0.00  0.00    +0.452 C 
ATOM     12  F   UNL     1       3.652  -2.232   0.000  0.00  0.00    -0.163 F 
ATOM     13  F   UNL     1       4.477  -0.808   0.000  0.00  0.00    -0.163 F 
ATOM     14  F   UNL     1       4.777  -1.932   0.000  0.00  0.00    -0.163 F 
ENDBRANCH   6  11
BRANCH   2  15
ATOM     15  C   UNL     1       0.883  -2.149   0.000  0.00  0.00    +0.142 C 
BRANCH  15  16
ATOM     16  C   UNL     1       1.433  -2.761   0.000  0.00  0.00    +0.174 C 
ATOM     17  C   UNL     1       2.161  -3.148   0.000  0.00  0.00    +0.037 C 
ATOM     18  C   UNL     1       2.190  -3.969   0.000  0.00  0.00    +0.035 C 
ATOM     19  C   UNL     1       1.491  -4.406   0.000  0.00  0.00    +0.142 C 
ATOM     20  O   UNL     1       0.762  -4.019   0.000  0.00  0.00    -0.351 OA
ATOM     21  C   UNL     1       0.733  -3.198   0.000  0.00  0.00    +0.174 C 
ATOM     22  O   UNL     1       1.941  -2.111   0.000  0.00  0.00    -0.221 OA
ENDBRANCH  15  16
ENDBRANCH   2  15
TORSDOF 3
