REMARK  Name = 
REMARK  6 active torsions:
REMARK  status: ('A' for Active; 'I' for Inactive)
REMARK    1  A    between atoms: C_2  and  O_3
REMARK    2  A    between atoms: C_2  and  C_11
REMARK    3  A    between atoms: O_3  and  C_4
REMARK    4  A    between atoms: N_13  and  C_14
REMARK    5  A    between atoms: C_14  and  C_15
REMARK    6  A    between atoms: C_15  and  C_16
REMARK                            x       y       z     vdW  Elec       q    Type
REMARK                         _______ _______ _______ _____ _____    ______ ____
ROOT
ATOM      1  C   UNL     1       1.781  -2.292   0.000  0.00  0.00    +0.269 C 
ATOM      2  N   UNL     1       2.495  -1.880   0.000  0.00  0.00    -0.203 NA
ATOM      3  O   UNL     1       1.781  -3.117   0.000  0.00  0.00    -0.271 OA
ENDROOT
BRANCH   1   5
ATOM      4  C   UNL     1       1.066  -1.055   0.000  0.00  0.00    +0.042 C 
ATOM      5  C   UNL     1       1.066  -1.880   0.000  0.00  0.00    +0.192 C 
BRANCH   5   6
ATOM      6  O   UNL     1       0.352  -2.292   0.000  0.00  0.00    -0.349 OA
BRANCH   6   7
ATOM      7  C   UNL     1      -0.363  -1.880   0.000  0.00  0.00    +0.116 C 
ATOM      8  C   UNL     1      -0.301  -1.057   0.000  0.00  0.00    +0.030 C 
ATOM      9  C   UNL     1      -0.906  -0.496   0.000  0.00  0.00    +0.002 C 
ATOM     10  C   UNL     1      -1.722  -0.619   0.000  0.00  0.00    +0.000 C 
ATOM     11  C   UNL     1      -2.134  -1.333   0.000  0.00  0.00    +0.000 C 
ATOM     12  C   UNL     1      -1.833  -2.101   0.000  0.00  0.00    +0.002 C 
ATOM     13  C   UNL     1      -1.044  -2.345   0.000  0.00  0.00    +0.030 C 
ENDBRANCH   6   7
ENDBRANCH   5   6
ENDBRANCH   1   5
BRANCH   2  14
ATOM     14  C   UNL     1       3.210  -2.292   0.000  0.00  0.00    +0.120 C 
BRANCH  14  15
ATOM     15  C   UNL     1       3.924  -1.880   0.000  0.00  0.00    +0.051 C 
BRANCH  15  16
ATOM     16  C   UNL     1       4.639  -2.292   0.000  0.00  0.00    -0.001 A 
ATOM     17  C   UNL     1       4.639  -3.117   0.000  0.00  0.00    +0.094 A 
ATOM     18  N   UNL     1       5.353  -3.530   0.000  0.00  0.00    -0.248 NA
ATOM     19  C   UNL     1       6.067  -3.117   0.000  0.00  0.00    +0.059 A 
ATOM     20  C   UNL     1       6.782  -3.530   0.000  0.00  0.00    +0.052 C 
ATOM     21  C   UNL     1       6.067  -2.292   0.000  0.00  0.00    +0.014 A 
ATOM     22  C   UNL     1       5.353  -1.880   0.000  0.00  0.00    -0.001 A 
ENDBRANCH  15  16
ENDBRANCH  14  15
ENDBRANCH   2  14
TORSDOF 6
