REMARK  Name = 
REMARK  3 active torsions:
REMARK  status: ('A' for Active; 'I' for Inactive)
REMARK    1  A    between atoms: C_2  and  C_4
REMARK    2  A    between atoms: C_4  and  C_5
REMARK    3  A    between atoms: C_10  and  C_12
REMARK                            x       y       z     vdW  Elec       q    Type
REMARK                         _______ _______ _______ _____ _____    ______ ____
ROOT
ATOM      1  C   UNL     1      -0.204   7.732   0.000  0.00  0.00    +0.077 A 
ATOM      2  N   UNL     1      -0.459   6.948   0.000  0.00  0.00    -0.226 NA
ATOM      3  C   UNL     1       0.208   6.463   0.000  0.00  0.00    +0.186 A 
ATOM      4  N   UNL     1       0.208   5.638   0.000  0.00  0.00    -0.154 NA
ATOM      5  C   UNL     1       0.923   5.226   0.000  0.00  0.00    +0.247 C 
ATOM      6  O   UNL     1       1.637   5.638   0.000  0.00  0.00    -0.273 OA
ATOM      7  S   UNL     1       0.876   6.948   0.000  0.00  0.00    -0.049 S 
ATOM      8  C   UNL     1       0.621   7.732   0.000  0.00  0.00    +0.053 A 
ENDROOT
BRANCH   5   9
ATOM      9  C   UNL     1       0.923   4.401   0.000  0.00  0.00    +0.079 C 
ATOM     10  C   UNL     1       0.339   3.817   0.000  0.00  0.00    +0.009 C 
ATOM     11  C   UNL     1       0.923   3.234   0.000  0.00  0.00    +0.001 C 
ATOM     12  C   UNL     1       1.506   3.817   0.000  0.00  0.00    +0.009 C 
ENDBRANCH   5   9
BRANCH   1  13
ATOM     13  C   UNL     1      -0.689   8.400   0.000  0.00  0.00    +0.135 C 
BRANCH  13  15
ATOM     14  N   UNL     1      -0.839   9.821   0.000  0.00  0.00    -0.087 NA
ATOM     15  C   UNL     1      -0.354   9.154   0.000  0.00  0.00    +0.267 C 
ATOM     16  O   UNL     1       0.467   9.240   0.000  0.00  0.00    -0.271 OA
ENDBRANCH  13  15
ENDBRANCH   1  13
TORSDOF 3
