REMARK  Name = 
REMARK  6 active torsions:
REMARK  status: ('A' for Active; 'I' for Inactive)
REMARK    1  A    between atoms: O_2  and  C_3
REMARK    2  A    between atoms: C_6  and  N_7
REMARK    3  A    between atoms: N_10  and  C_11
REMARK    4  A    between atoms: N_14  and  C_15
REMARK    5  A    between atoms: C_15  and  C_16
REMARK    6  A    between atoms: C_16  and  C_17
REMARK                            x       y       z     vdW  Elec       q    Type
REMARK                         _______ _______ _______ _____ _____    ______ ____
ROOT
ATOM      1  N   UNL     1       2.858  -4.950   0.000  0.00  0.00    -0.159 NA
ATOM      2  C   UNL     1       2.143  -5.362   0.000  0.00  0.00    +0.343 C 
ATOM      3  N   UNL     1       2.143  -6.188   0.000  0.00  0.00    -0.189 NA
ATOM      4  O   UNL     1       1.429  -4.950   0.000  0.00  0.00    -0.249 OA
ENDROOT
BRANCH   3   5
ATOM      5  C   UNL     1       1.429  -6.600   0.000  0.00  0.00    +0.100 C 
ATOM      6  C   UNL     1       0.715  -6.188   0.000  0.00  0.00    +0.039 C 
ATOM      7  C   UNL     1       0.000  -6.600   0.000  0.00  0.00    +0.074 C 
ATOM      8  N   UNL     1       0.000  -7.425   0.000  0.00  0.00    -0.272 NA
ATOM      9  C   UNL     1       0.715  -7.838   0.000  0.00  0.00    +0.074 C 
ATOM     10  C   UNL     1       1.429  -7.425   0.000  0.00  0.00    +0.039 C 
BRANCH   8  11
ATOM     11  C   UNL     1      -0.715  -7.838   0.000  0.00  0.00    +0.086 C 
BRANCH  11  12
ATOM     12  C   UNL     1      -1.429  -7.425   0.000  0.00  0.00    +0.094 C 
BRANCH  12  13
ATOM     13  C   UNL     1      -2.143  -7.838   0.000  0.00  0.00    -0.076 C 
ATOM     14  C   UNL     1      -2.858  -8.250   0.000  0.00  0.00    -0.014 C 
ENDBRANCH  12  13
ENDBRANCH  11  12
ENDBRANCH   8  11
ENDBRANCH   3   5
BRANCH   1  18
ATOM     15  C   UNL     1       2.858  -2.475   0.000  0.00  0.00    +0.225 A 
ATOM     16  N   UNL     1       2.143  -2.888   0.000  0.00  0.00    -0.209 NA
ATOM     17  C   UNL     1       2.143  -3.712   0.000  0.00  0.00    +0.119 A 
ATOM     18  C   UNL     1       2.858  -4.125   0.000  0.00  0.00    +0.094 A 
ATOM     19  C   UNL     1       3.572  -3.712   0.000  0.00  0.00    +0.023 A 
ATOM     20  C   UNL     1       3.572  -2.888   0.000  0.00  0.00    +0.059 A 
BRANCH  15  22
ATOM     21  C   UNL     1       2.143  -1.238   0.000  0.00  0.00    +0.254 C 
ATOM     22  O   UNL     1       2.858  -1.650   0.000  0.00  0.00    -0.456 OA
ENDBRANCH  15  22
ENDBRANCH   1  18
TORSDOF 6
