REMARK  Name = 
REMARK  4 active torsions:
REMARK  status: ('A' for Active; 'I' for Inactive)
REMARK    1  A    between atoms: C_2  and  C_4
REMARK    2  A    between atoms: N_11  and  C_12
REMARK    3  A    between atoms: C_12  and  C_13
REMARK    4  A    between atoms: C_13  and  C_14
REMARK                            x       y       z     vdW  Elec       q    Type
REMARK                         _______ _______ _______ _____ _____    ______ ____
ROOT
ATOM      1  C   UNL     1      -0.773  -3.258   0.000  0.00  0.00    +0.077 C 
ATOM      2  N   UNL     1      -0.686  -2.437   0.000  0.00  0.00    -0.264 N 
ATOM      3  C   UNL     1       0.028  -2.025   0.000  0.00  0.00    +0.323 C 
ATOM      4  N   UNL     1       0.743  -2.437   0.000  0.00  0.00    -0.188 NA
ATOM      5  O   UNL     1       0.028  -1.200   0.000  0.00  0.00    -0.251 OA
ATOM      6  C   UNL     1      -1.440  -2.102   0.000  0.00  0.00    +0.095 C 
ATOM      7  C   UNL     1      -1.992  -2.715   0.000  0.00  0.00    +0.023 C 
ATOM      8  C   UNL     1      -1.580  -3.429   0.000  0.00  0.00    +0.022 C 
ENDROOT
BRANCH   1  10
ATOM      9  C   UNL     1      -0.331  -4.617   0.000  0.00  0.00    +0.002 C 
ATOM     10  C   UNL     1      -0.160  -3.810   0.000  0.00  0.00    +0.018 C 
ATOM     11  C   UNL     1       0.625  -3.555   0.000  0.00  0.00    +0.002 C 
ENDBRANCH   1  10
BRANCH   4  12
ATOM     12  C   UNL     1       1.457  -2.025   0.000  0.00  0.00    +0.122 C 
BRANCH  12  13
ATOM     13  C   UNL     1       2.171  -2.437   0.000  0.00  0.00    +0.052 C 
BRANCH  13  14
ATOM     14  C   UNL     1       2.886  -2.025   0.000  0.00  0.00    +0.008 A 
ATOM     15  C   UNL     1       3.640  -2.360   0.000  0.00  0.00    +0.053 A 
ATOM     16  C   UNL     1       3.811  -3.167   0.000  0.00  0.00    +0.051 C 
ATOM     17  N   UNL     1       4.192  -1.747   0.000  0.00  0.00    -0.253 N 
ATOM     18  C   UNL     1       5.012  -1.833   0.000  0.00  0.00    +0.153 C 
ATOM     19  N   UNL     1       3.779  -1.033   0.000  0.00  0.00    -0.174 NA
ATOM     20  C   UNL     1       2.972  -1.204   0.000  0.00  0.00    +0.076 A 
ATOM     21  C   UNL     1       2.359  -0.652   0.000  0.00  0.00    +0.054 C 
ENDBRANCH  13  14
ENDBRANCH  12  13
ENDBRANCH   4  12
TORSDOF 4
