REMARK  Name = 
REMARK  4 active torsions:
REMARK  status: ('A' for Active; 'I' for Inactive)
REMARK    1  A    between atoms: C_2  and  C_3
REMARK    2  A    between atoms: C_3  and  C_5
REMARK    3  A    between atoms: C_3  and  N_16
REMARK    4  A    between atoms: C_5  and  N_6
REMARK                            x       y       z     vdW  Elec       q    Type
REMARK                         _______ _______ _______ _____ _____    ______ ____
ROOT
ATOM      1  C   UNL     1       0.715  -2.062   0.000  0.00  0.00    +0.131 C 
ENDROOT
BRANCH   1   2
ATOM      2  N   UNL     1       1.429  -2.475   0.000  0.00  0.00    -0.186 NA
ATOM      3  C   UNL     1       1.429  -3.300   0.000  0.00  0.00    +0.345 C 
ATOM      4  N   UNL     1       2.143  -3.712   0.000  0.00  0.00    -0.139 NA
ATOM      5  C   UNL     1       2.143  -4.537   0.000  0.00  0.00    +0.197 A 
ATOM      6  N   UNL     1       1.476  -5.022   0.000  0.00  0.00    -0.060 NA
ATOM      7  O   UNL     1       1.731  -5.807   0.000  0.00  0.00    -0.356 OA
ATOM      8  C   UNL     1       2.556  -5.807   0.000  0.00  0.00    +0.156 A 
ATOM      9  C   UNL     1       3.041  -6.474   0.000  0.00  0.00    +0.075 C 
ATOM     10  C   UNL     1       2.811  -5.022   0.000  0.00  0.00    +0.075 A 
ATOM     11  O   UNL     1       0.715  -3.712   0.000  0.00  0.00    -0.249 OA
ENDBRANCH   1   2
BRANCH   1  12
ATOM     12  C   UNL     1       0.715  -1.238   0.000  0.00  0.00    +0.066 C 
ATOM     13  C   UNL     1       1.540  -1.238   0.000  0.00  0.00    +0.018 C 
BRANCH  12  14
ATOM     14  N   UNL     1       0.715  -0.412   0.000  0.00  0.00    -0.269 NA
ATOM     15  C   UNL     1       1.429   0.000   0.000  0.00  0.00    +0.105 C 
ATOM     16  C   UNL     1       1.429   0.825   0.000  0.00  0.00    +0.159 C 
ATOM     17  O   UNL     1       0.715   1.238   0.000  0.00  0.00    -0.351 OA
ATOM     18  C   UNL     1       0.000   0.825   0.000  0.00  0.00    +0.159 C 
ATOM     19  C   UNL     1       0.000   0.000   0.000  0.00  0.00    +0.105 C 
ENDBRANCH  12  14
BRANCH  12  21
ATOM     20  C   UNL     1      -0.523  -0.523   0.000  0.00  0.00    +0.001 C 
ATOM     21  C   UNL     1      -0.111  -1.238   0.000  0.00  0.00    +0.016 C 
ENDBRANCH  12  21
ENDBRANCH   1  12
TORSDOF 4
