REMARK  Name = 
REMARK  5 active torsions:
REMARK  status: ('A' for Active; 'I' for Inactive)
REMARK    1  A    between atoms: C_2  and  C_4
REMARK    2  A    between atoms: C_6  and  C_7
REMARK    3  A    between atoms: C_7  and  C_8
REMARK    4  A    between atoms: N_10  and  C_11
REMARK    5  A    between atoms: C_11  and  C_12
REMARK                            x       y       z     vdW  Elec       q    Type
REMARK                         _______ _______ _______ _____ _____    ______ ____
ROOT
ATOM      1  C   UNL     1       3.878  -3.364   0.000  0.00  0.00    +0.248 C 
ATOM      2  N   UNL     1       4.592  -2.952   0.000  0.00  0.00    -0.195 NA
ATOM      3  O   UNL     1       3.878  -4.189   0.000  0.00  0.00    -0.273 OA
ENDROOT
BRANCH   1   4
ATOM      4  C   UNL     1       3.163  -2.952   0.000  0.00  0.00    +0.133 C 
BRANCH   4   8
ATOM      5  C   UNL     1       1.143  -3.642   0.000  0.00  0.00    +0.087 A 
ATOM      6  S   UNL     1       1.556  -4.356   0.000  0.00  0.00    -0.071 S 
ATOM      7  C   UNL     1       2.363  -4.185   0.000  0.00  0.00    +0.052 A 
ATOM      8  C   UNL     1       2.449  -3.364   0.000  0.00  0.00    +0.075 A 
ATOM      9  N   UNL     1       1.695  -3.029   0.000  0.00  0.00    -0.247 NA
BRANCH   5  11
ATOM     10  C   UNL     1      -0.162  -4.223   0.000  0.00  0.00    +0.007 C 
ATOM     11  C   UNL     1       0.323  -3.556   0.000  0.00  0.00    +0.047 C 
ATOM     12  C   UNL     1      -0.013  -2.802   0.000  0.00  0.00    +0.007 C 
ENDBRANCH   5  11
ENDBRANCH   4   8
ENDBRANCH   1   4
BRANCH   2  13
ATOM     13  C   UNL     1       5.307  -3.364   0.000  0.00  0.00    +0.200 C 
BRANCH  13  14
ATOM     14  C   UNL     1       6.021  -2.952   0.000  0.00  0.00    +0.248 C 
ATOM     15  N   UNL     1       6.736  -3.364   0.000  0.00  0.00    -0.278 N 
ATOM     16  C   UNL     1       6.822  -4.185   0.000  0.00  0.00    +0.094 C 
ATOM     17  C   UNL     1       7.629  -4.356   0.000  0.00  0.00    +0.023 C 
ATOM     18  C   UNL     1       8.041  -3.642   0.000  0.00  0.00    +0.023 C 
ATOM     19  C   UNL     1       7.489  -3.029   0.000  0.00  0.00    +0.094 C 
ATOM     20  O   UNL     1       6.021  -2.127   0.000  0.00  0.00    -0.273 OA
ENDBRANCH  13  14
ENDBRANCH   2  13
TORSDOF 5
