REMARK  Name = 
REMARK  5 active torsions:
REMARK  status: ('A' for Active; 'I' for Inactive)
REMARK    1  A    between atoms: C_2  and  C_3
REMARK    2  A    between atoms: C_6  and  C_7
REMARK    3  A    between atoms: C_7  and  C_8
REMARK    4  A    between atoms: C_8  and  N_9
REMARK    5  A    between atoms: C_16  and  C_17
REMARK                            x       y       z     vdW  Elec       q    Type
REMARK                         _______ _______ _______ _____ _____    ______ ____
ROOT
ATOM      1  N   UNL     1       0.715  -2.062   0.000  0.00  0.00    -0.188 NA
ATOM      2  C   UNL     1       1.429  -2.475   0.000  0.00  0.00    +0.323 C 
ATOM      3  N   UNL     1       2.143  -2.062   0.000  0.00  0.00    -0.263 N 
ATOM      4  C   UNL     1       2.858  -2.475   0.000  0.00  0.00    +0.098 C 
ATOM      5  C   UNL     1       3.572  -2.062   0.000  0.00  0.00    +0.053 C 
ATOM      6  C   UNL     1       3.572  -1.238   0.000  0.00  0.00    +0.006 C 
ATOM      7  C   UNL     1       2.858  -0.825   0.000  0.00  0.00    +0.022 C 
ATOM      8  C   UNL     1       2.143  -1.238   0.000  0.00  0.00    +0.095 C 
ATOM      9  O   UNL     1       1.429  -3.300   0.000  0.00  0.00    -0.251 OA
ENDROOT
BRANCH   5  10
ATOM     10  C   UNL     1       4.287  -2.475   0.000  0.00  0.00    +0.184 C 
ATOM     11  O   UNL     1       5.001  -2.062   0.000  0.00  0.00    -0.220 OA
ENDBRANCH   5  10
BRANCH   1  12
ATOM     12  C   UNL     1       0.000  -2.475   0.000  0.00  0.00    +0.124 C 
BRANCH  12  13
ATOM     13  C   UNL     1      -0.715  -2.062   0.000  0.00  0.00    +0.076 C 
BRANCH  13  16
ATOM     14  C   UNL     1      -2.322  -3.467   0.000  0.00  0.00    +0.027 A 
ATOM     15  S   UNL     1      -1.515  -3.296   0.000  0.00  0.00    -0.075 S 
ATOM     16  C   UNL     1      -1.429  -2.475   0.000  0.00  0.00    +0.090 A 
ATOM     17  N   UNL     1      -2.183  -2.139   0.000  0.00  0.00    -0.241 NA
ATOM     18  C   UNL     1      -2.735  -2.752   0.000  0.00  0.00    +0.101 A 
BRANCH  14  20
ATOM     19  C   UNL     1      -3.478  -4.307   0.000  0.00  0.00    +0.006 C 
ATOM     20  C   UNL     1      -2.658  -4.221   0.000  0.00  0.00    +0.035 C 
ENDBRANCH  14  20
ENDBRANCH  13  16
ENDBRANCH  12  13
ENDBRANCH   1  12
TORSDOF 5
