REMARK  Name = 
REMARK  4 active torsions:
REMARK  status: ('A' for Active; 'I' for Inactive)
REMARK    1  A    between atoms: C_4  and  C_5
REMARK    2  A    between atoms: C_5  and  C_6
REMARK    3  A    between atoms: N_8  and  C_9
REMARK    4  A    between atoms: C_9  and  C_10
REMARK                            x       y       z     vdW  Elec       q    Type
REMARK                         _______ _______ _______ _____ _____    ______ ____
ROOT
ATOM      1  C   UNL     1       2.102  -1.996   0.000  0.00  0.00    +0.248 C 
ATOM      2  N   UNL     1       2.816  -2.408   0.000  0.00  0.00    -0.203 NA
ATOM      3  O   UNL     1       2.102  -1.171   0.000  0.00  0.00    -0.273 OA
ENDROOT
BRANCH   1   4
ATOM      4  C   UNL     1       1.387  -2.408   0.000  0.00  0.00    +0.133 C 
BRANCH   4   9
ATOM      5  C   UNL     1      -0.556  -0.250   0.000  0.00  0.00    +0.059 C 
ATOM      6  C   UNL     1      -0.221  -1.004   0.000  0.00  0.00    +0.088 A 
ATOM      7  S   UNL     1      -0.633  -1.718   0.000  0.00  0.00    -0.071 S 
ATOM      8  C   UNL     1      -0.081  -2.331   0.000  0.00  0.00    +0.052 A 
ATOM      9  C   UNL     1       0.672  -1.996   0.000  0.00  0.00    +0.075 A 
ATOM     10  N   UNL     1       0.586  -1.175   0.000  0.00  0.00    -0.247 NA
ENDBRANCH   4   9
ENDBRANCH   1   4
BRANCH   2  11
ATOM     11  C   UNL     1       3.530  -1.996   0.000  0.00  0.00    +0.145 C 
BRANCH  11  12
ATOM     12  C   UNL     1       4.245  -2.408   0.000  0.00  0.00    +0.137 C 
ATOM     13  O   UNL     1       4.331  -3.229   0.000  0.00  0.00    -0.354 OA
ATOM     14  C   UNL     1       5.138  -3.400   0.000  0.00  0.00    +0.142 C 
ATOM     15  C   UNL     1       5.551  -2.686   0.000  0.00  0.00    +0.035 C 
ATOM     16  C   UNL     1       4.999  -2.073   0.000  0.00  0.00    +0.034 C 
ENDBRANCH  11  12
ENDBRANCH   2  11
TORSDOF 4
