REMARK  Name = 
REMARK  5 active torsions:
REMARK  status: ('A' for Active; 'I' for Inactive)
REMARK    1  A    between atoms: C_2  and  C_3
REMARK    2  A    between atoms: C_2  and  N_10
REMARK    3  A    between atoms: C_3  and  N_4
REMARK    4  A    between atoms: C_11  and  C_13
REMARK    5  A    between atoms: C_13  and  N_14
REMARK                            x       y       z     vdW  Elec       q    Type
REMARK                         _______ _______ _______ _____ _____    ______ ____
ROOT
ATOM      1  N   UNL     1       3.572  -3.712   0.000  0.00  0.00    -0.204 NA
ATOM      2  C   UNL     1       4.287  -4.125   0.000  0.00  0.00    +0.265 C 
ATOM      3  O   UNL     1       4.287  -4.950   0.000  0.00  0.00    -0.271 OA
ENDROOT
BRANCH   1   5
ATOM      4  C   UNL     1       2.858  -4.950   0.000  0.00  0.00    +0.025 C 
ATOM      5  C   UNL     1       2.858  -4.125   0.000  0.00  0.00    +0.111 C 
BRANCH   5   6
ATOM      6  C   UNL     1       2.143  -3.712   0.000  0.00  0.00    +0.094 C 
BRANCH   6   7
ATOM      7  N   UNL     1       1.429  -4.125   0.000  0.00  0.00    -0.271 NA
ATOM      8  C   UNL     1       0.715  -3.712   0.000  0.00  0.00    +0.072 C 
ATOM      9  C   UNL     1       0.000  -4.125   0.000  0.00  0.00    +0.017 C 
ATOM     10  C   UNL     1       0.000  -4.950   0.000  0.00  0.00    +0.003 C 
ATOM     11  C   UNL     1       0.715  -5.362   0.000  0.00  0.00    +0.017 C 
ATOM     12  C   UNL     1       1.429  -4.950   0.000  0.00  0.00    +0.072 C 
ENDBRANCH   6   7
ENDBRANCH   5   6
ENDBRANCH   1   5
BRANCH   2  13
ATOM     13  C   UNL     1       5.001  -3.712   0.000  0.00  0.00    +0.196 C 
BRANCH  13  14
ATOM     14  N   UNL     1       5.716  -4.125   0.000  0.00  0.00    -0.285 N 
ATOM     15  C   UNL     1       5.716  -4.950   0.000  0.00  0.00    +0.261 A 
ATOM     16  O   UNL     1       5.001  -5.362   0.000  0.00  0.00    -0.267 OA
ATOM     17  C   UNL     1       6.430  -5.362   0.000  0.00  0.00    +0.061 A 
ATOM     18  C   UNL     1       7.145  -4.950   0.000  0.00  0.00    +0.006 A 
ATOM     19  C   UNL     1       7.145  -4.125   0.000  0.00  0.00    +0.019 A 
ATOM     20  C   UNL     1       6.430  -3.712   0.000  0.00  0.00    +0.079 A 
ENDBRANCH  13  14
ENDBRANCH   2  13
TORSDOF 5
