REMARK  Name = 
REMARK  6 active torsions:
REMARK  status: ('A' for Active; 'I' for Inactive)
REMARK    1  A    between atoms: N_1  and  C_8
REMARK    2  A    between atoms: N_2  and  C_7
REMARK    3  A    between atoms: C_8  and  C_9
REMARK    4  A    between atoms: N_10  and  C_11
REMARK    5  A    between atoms: C_11  and  C_17
REMARK    6  A    between atoms: C_11  and  C_18
REMARK                            x       y       z     vdW  Elec       q    Type
REMARK                         _______ _______ _______ _____ _____    ______ ____
ROOT
ATOM      1  C   UNL     1      -5.014   4.296   0.000  0.00  0.00    +0.265 C 
ATOM      2  O   UNL     1      -5.014   3.474   0.000  0.00  0.00    -0.271 OA
ATOM      3  N   UNL     1      -5.728   4.709   0.000  0.00  0.00    -0.196 NA
ENDROOT
BRANCH   1   4
ATOM      4  C   UNL     1      -4.296   4.709   0.000  0.00  0.00    +0.200 C 
BRANCH   4   5
ATOM      5  N   UNL     1      -3.582   4.296   0.000  0.00  0.00    -0.238 N 
ATOM      6  C   UNL     1      -2.864   4.709   0.000  0.00  0.00    +0.294 A 
ATOM      7  O   UNL     1      -2.864   5.536   0.000  0.00  0.00    -0.264 OA
ATOM      8  C   UNL     1      -2.150   4.296   0.000  0.00  0.00    +0.213 A 
ATOM      9  F   UNL     1      -1.432   4.709   0.000  0.00  0.00    -0.198 F 
ATOM     10  C   UNL     1      -2.150   3.474   0.000  0.00  0.00    +0.116 A 
ATOM     11  N   UNL     1      -2.864   3.060   0.000  0.00  0.00    -0.255 N 
ATOM     12  C   UNL     1      -3.582   3.474   0.000  0.00  0.00    +0.336 A 
ATOM     13  O   UNL     1      -4.296   3.060   0.000  0.00  0.00    -0.246 OA
BRANCH  11  14
ATOM     14  C   UNL     1      -2.864   2.234   0.000  0.00  0.00    +0.208 C 
ATOM     15  C   UNL     1      -2.196   1.749   0.000  0.00  0.00    +0.057 C 
ATOM     16  C   UNL     1      -2.451   0.964   0.000  0.00  0.00    +0.037 C 
ATOM     17  C   UNL     1      -3.277   0.964   0.000  0.00  0.00    +0.144 C 
ATOM     18  O   UNL     1      -3.536   1.749   0.000  0.00  0.00    -0.335 OA
ENDBRANCH  11  14
ENDBRANCH   4   5
ENDBRANCH   1   4
BRANCH   3  19
ATOM     19  C   UNL     1      -6.442   4.296   0.000  0.00  0.00    +0.140 C 
BRANCH  19  20
ATOM     20  C   UNL     1      -7.156   4.709   0.000  0.00  0.00    +0.002 A 
ATOM     21  C   UNL     1      -7.874   4.296   0.000  0.00  0.00    -0.002 A 
ATOM     22  C   UNL     1      -8.588   4.709   0.000  0.00  0.00    -0.000 A 
ATOM     23  C   UNL     1      -8.588   5.536   0.000  0.00  0.00    -0.000 A 
ATOM     24  C   UNL     1      -7.874   5.949   0.000  0.00  0.00    -0.000 A 
ATOM     25  C   UNL     1      -7.156   5.536   0.000  0.00  0.00    -0.002 A 
ENDBRANCH  19  20
BRANCH  19  26
ATOM     26  C   UNL     1      -6.442   3.474   0.000  0.00  0.00    +0.002 A 
ATOM     27  C   UNL     1      -7.156   3.060   0.000  0.00  0.00    -0.002 A 
ATOM     28  C   UNL     1      -7.156   2.234   0.000  0.00  0.00    -0.000 A 
ATOM     29  C   UNL     1      -6.442   1.820   0.000  0.00  0.00    -0.000 A 
ATOM     30  C   UNL     1      -5.728   2.234   0.000  0.00  0.00    -0.000 A 
ATOM     31  C   UNL     1      -5.728   3.060   0.000  0.00  0.00    -0.002 A 
ENDBRANCH  19  26
ENDBRANCH   3  19
TORSDOF 6
