REMARK  Name = 
REMARK  6 active torsions:
REMARK  status: ('A' for Active; 'I' for Inactive)
REMARK    1  A    between atoms: C_2  and  C_5
REMARK    2  A    between atoms: C_5  and  N_6
REMARK    3  A    between atoms: C_8  and  C_12
REMARK    4  A    between atoms: N_14  and  C_15
REMARK    5  A    between atoms: C_15  and  C_16
REMARK    6  A    between atoms: C_16  and  C_17
REMARK                            x       y       z     vdW  Elec       q    Type
REMARK                         _______ _______ _______ _____ _____    ______ ____
ROOT
ATOM      1  N   UNL     1      -0.893  -1.483   0.000  0.00  0.00    -0.271 N 
ATOM      2  C   UNL     1      -1.306  -2.197   0.000  0.00  0.00    +0.226 C 
ATOM      3  O   UNL     1      -2.126  -2.284   0.000  0.00  0.00    -0.275 OA
ATOM      4  C   UNL     1      -0.754  -2.811   0.000  0.00  0.00    +0.096 C 
ATOM      5  C   UNL     1       0.000  -2.475   0.000  0.00  0.00    +0.107 C 
ATOM      6  C   UNL     1      -0.086  -1.655   0.000  0.00  0.00    +0.103 C 
ENDROOT
BRANCH   5   7
ATOM      7  C   UNL     1       0.715  -2.888   0.000  0.00  0.00    +0.243 C 
ATOM      8  N   UNL     1       1.429  -2.475   0.000  0.00  0.00    -0.205 NA
ATOM      9  O   UNL     1       0.715  -3.712   0.000  0.00  0.00    -0.273 OA
BRANCH   8  10
ATOM     10  C   UNL     1       2.143  -2.888   0.000  0.00  0.00    +0.121 C 
BRANCH  10  11
ATOM     11  C   UNL     1       2.858  -2.475   0.000  0.00  0.00    +0.069 C 
BRANCH  11  12
ATOM     12  C   UNL     1       3.572  -2.888   0.000  0.00  0.00    +0.061 A 
ATOM     13  N   UNL     1       3.572  -3.712   0.000  0.00  0.00    -0.248 NA
ATOM     14  C   UNL     1       4.287  -4.125   0.000  0.00  0.00    +0.098 A 
ATOM     15  C   UNL     1       5.001  -3.712   0.000  0.00  0.00    +0.021 A 
ATOM     16  C   UNL     1       5.001  -2.888   0.000  0.00  0.00    +0.003 A 
ATOM     17  C   UNL     1       4.287  -2.475   0.000  0.00  0.00    +0.015 A 
ENDBRANCH  11  12
ENDBRANCH  10  11
ENDBRANCH   8  10
ENDBRANCH   5   7
BRANCH   1  18
ATOM     18  C   UNL     1      -1.229  -0.729   0.000  0.00  0.00    +0.197 C 
BRANCH  18  20
ATOM     19  F   UNL     1      -2.870  -0.557   0.000  0.00  0.00    -0.168 F 
ATOM     20  C   UNL     1      -2.049  -0.643   0.000  0.00  0.00    +0.416 C 
ATOM     21  F   UNL     1      -1.963   0.177   0.000  0.00  0.00    -0.168 F 
ATOM     22  F   UNL     1      -2.135  -1.464   0.000  0.00  0.00    -0.168 F 
ENDBRANCH  18  20
ENDBRANCH   1  18
TORSDOF 6
