REMARK  Name = 
REMARK  6 active torsions:
REMARK  status: ('A' for Active; 'I' for Inactive)
REMARK    1  A    between atoms: C_2  and  C_3
REMARK    2  A    between atoms: C_2  and  C_13
REMARK    3  A    between atoms: C_3  and  N_4
REMARK    4  A    between atoms: C_5  and  C_7
REMARK    5  A    between atoms: C_7  and  O_8
REMARK    6  A    between atoms: O_8  and  C_9
REMARK                            x       y       z     vdW  Elec       q    Type
REMARK                         _______ _______ _______ _____ _____    ______ ____
ROOT
ATOM      1  N   UNL     1       2.561  -1.624   0.000  0.00  0.00    -0.204 NA
ATOM      2  C   UNL     1       3.276  -1.211   0.000  0.00  0.00    +0.272 C 
ATOM      3  O   UNL     1       3.276  -0.386   0.000  0.00  0.00    -0.271 OA
ENDROOT
BRANCH   1   4
ATOM      4  C   UNL     1       1.847  -1.211   0.000  0.00  0.00    +0.113 C 
BRANCH   4   6
ATOM      5  C   UNL     1       1.132  -2.449   0.000  0.00  0.00    -0.001 C 
ATOM      6  C   UNL     1       1.132  -1.624   0.000  0.00  0.00    +0.029 C 
BRANCH   6   7
ATOM      7  C   UNL     1       0.418  -1.211   0.000  0.00  0.00    +0.024 A 
ATOM      8  N   UNL     1       0.331  -0.391   0.000  0.00  0.00    -0.294 NA
ATOM      9  N   UNL     1      -0.476  -0.219   0.000  0.00  0.00    -0.218 NA
ATOM     10  N   UNL     1      -0.888  -0.934   0.000  0.00  0.00    -0.218 NA
ATOM     11  N   UNL     1      -0.336  -1.547   0.000  0.00  0.00    -0.294 NA
ENDBRANCH   6   7
ENDBRANCH   4   6
ENDBRANCH   1   4
BRANCH   2  12
ATOM     12  C   UNL     1       3.990  -1.624   0.000  0.00  0.00    +0.229 C 
BRANCH  12  13
ATOM     13  O   UNL     1       4.704  -1.211   0.000  0.00  0.00    -0.349 OA
BRANCH  13  14
ATOM     14  C   UNL     1       5.419  -1.624   0.000  0.00  0.00    +0.094 C 
ATOM     15  C   UNL     1       5.006  -2.338   0.000  0.00  0.00    +0.030 C 
ATOM     16  C   UNL     1       5.831  -0.909   0.000  0.00  0.00    +0.030 C 
ATOM     17  C   UNL     1       6.133  -2.036   0.000  0.00  0.00    +0.030 C 
ENDBRANCH  13  14
ENDBRANCH  12  13
ENDBRANCH   2  12
TORSDOF 6
