REMARK  Name = 
REMARK  4 active torsions:
REMARK  status: ('A' for Active; 'I' for Inactive)
REMARK    1  A    between atoms: C_6  and  N_7
REMARK    2  A    between atoms: N_10  and  C_11
REMARK    3  A    between atoms: C_16  and  O_17
REMARK    4  A    between atoms: O_17  and  C_18
REMARK                            x       y       z     vdW  Elec       q    Type
REMARK                         _______ _______ _______ _____ _____    ______ ____
ROOT
ATOM      1  N   UNL     1       0.000  -2.475   0.000  0.00  0.00    -0.156 NA
ATOM      2  C   UNL     1       0.000  -1.650   0.000  0.00  0.00    +0.344 C 
ATOM      3  N   UNL     1       0.715  -1.238   0.000  0.00  0.00    -0.186 NA
ATOM      4  O   UNL     1      -0.715  -1.238   0.000  0.00  0.00    -0.249 OA
ENDROOT
BRANCH   1   9
ATOM      5  C   UNL     1      -1.429  -4.950   0.000  0.00  0.00    +0.134 C 
ATOM      6  N   UNL     1      -1.429  -4.125   0.000  0.00  0.00    -0.291 N 
ATOM      7  C   UNL     1      -0.715  -3.712   0.000  0.00  0.00    +0.276 A 
ATOM      8  O   UNL     1       0.000  -4.125   0.000  0.00  0.00    -0.266 OA
ATOM      9  C   UNL     1      -0.715  -2.888   0.000  0.00  0.00    +0.131 A 
ATOM     10  C   UNL     1      -1.429  -2.475   0.000  0.00  0.00    +0.023 A 
ATOM     11  C   UNL     1      -2.143  -2.888   0.000  0.00  0.00    +0.020 A 
ATOM     12  C   UNL     1      -2.143  -3.712   0.000  0.00  0.00    +0.078 A 
ENDBRANCH   1   9
BRANCH   3  13
ATOM     13  C   UNL     1       0.715  -0.412   0.000  0.00  0.00    +0.124 C 
ATOM     14  C   UNL     1       1.429   0.000   0.000  0.00  0.00    +0.135 C 
ATOM     15  C   UNL     1       1.429   0.825   0.000  0.00  0.00    +0.031 C 
ATOM     16  C   UNL     1       0.715   1.238   0.000  0.00  0.00    +0.003 C 
ATOM     17  C   UNL     1       0.000   0.825   0.000  0.00  0.00    +0.002 C 
ATOM     18  C   UNL     1       0.000   0.000   0.000  0.00  0.00    +0.024 C 
BRANCH  14  19
ATOM     19  O   UNL     1       2.143  -0.412   0.000  0.00  0.00    -0.357 OA
BRANCH  19  20
ATOM     20  C   UNL     1       2.143  -1.238   0.000  0.00  0.00    +0.115 C 
ATOM     21  C   UNL     1       1.476  -1.722   0.000  0.00  0.00    +0.030 C 
ATOM     22  C   UNL     1       1.731  -2.507   0.000  0.00  0.00    +0.003 C 
ATOM     23  C   UNL     1       2.556  -2.507   0.000  0.00  0.00    +0.003 C 
ATOM     24  C   UNL     1       2.811  -1.722   0.000  0.00  0.00    +0.030 C 
ENDBRANCH  19  20
ENDBRANCH  14  19
ENDBRANCH   3  13
TORSDOF 4
