REMARK  Name = 
REMARK  4 active torsions:
REMARK  status: ('A' for Active; 'I' for Inactive)
REMARK    1  A    between atoms: C_2  and  C_5
REMARK    2  A    between atoms: N_8  and  C_9
REMARK    3  A    between atoms: C_9  and  C_10
REMARK    4  A    between atoms: N_12  and  C_13
REMARK                            x       y       z     vdW  Elec       q    Type
REMARK                         _______ _______ _______ _____ _____    ______ ____
ROOT
ATOM      1  C   UNL     1       3.595  -1.611   0.000  0.00  0.00    +0.174 A 
ATOM      2  N   UNL     1       2.928  -2.096   0.000  0.00  0.00    -0.165 NA
ATOM      3  N   UNL     1       3.182  -2.881   0.000  0.00  0.00    -0.240 N 
ATOM      4  C   UNL     1       4.007  -2.881   0.000  0.00  0.00    +0.097 A 
ATOM      5  C   UNL     1       4.262  -2.096   0.000  0.00  0.00    +0.045 A 
ENDROOT
BRANCH   1   7
ATOM      6  F   UNL     1       3.595   0.039   0.000  0.00  0.00    -0.164 F 
ATOM      7  C   UNL     1       3.595  -0.786   0.000  0.00  0.00    +0.437 C 
ATOM      8  F   UNL     1       4.420  -0.786   0.000  0.00  0.00    -0.164 F 
ATOM      9  F   UNL     1       2.770  -0.786   0.000  0.00  0.00    -0.164 F 
ENDBRANCH   1   7
BRANCH   3  10
ATOM     10  C   UNL     1       2.697  -3.548   0.000  0.00  0.00    +0.214 C 
BRANCH  10  11
ATOM     11  C   UNL     1       1.877  -3.462   0.000  0.00  0.00    +0.266 C 
ATOM     12  N   UNL     1       1.392  -4.130   0.000  0.00  0.00    -0.206 NA
ATOM     13  O   UNL     1       1.541  -2.708   0.000  0.00  0.00    -0.271 OA
BRANCH  12  14
ATOM     14  C   UNL     1       0.572  -4.043   0.000  0.00  0.00    +0.095 C 
ATOM     15  C   UNL     1       0.159  -3.329   0.000  0.00  0.00    +0.022 C 
ATOM     16  C   UNL     1      -0.648  -3.500   0.000  0.00  0.00    +0.002 C 
ATOM     17  C   UNL     1      -0.734  -4.321   0.000  0.00  0.00    +0.002 C 
ATOM     18  C   UNL     1       0.020  -4.656   0.000  0.00  0.00    +0.022 C 
ENDBRANCH  12  14
ENDBRANCH  10  11
ENDBRANCH   3  10
TORSDOF 4
