REMARK  Name = 
REMARK  5 active torsions:
REMARK  status: ('A' for Active; 'I' for Inactive)
REMARK    1  A    between atoms: C_2  and  C_3
REMARK    2  A    between atoms: C_2  and  N_9
REMARK    3  A    between atoms: C_3  and  N_4
REMARK    4  A    between atoms: N_9  and  S_10
REMARK    5  A    between atoms: S_10  and  C_13
REMARK                            x       y       z     vdW  Elec       q    Type
REMARK                         _______ _______ _______ _____ _____    ______ ____
ROOT
ATOM      1  N   UNL     1       4.564  -0.334   0.000  0.00  0.00    -0.082 NA
ENDROOT
BRANCH   1   2
ATOM      2  S   UNL     1       5.279   0.079   0.000  0.00  0.00    +0.056 S 
ATOM      3  O   UNL     1       4.866   0.793   0.000  0.00  0.00    -0.156 OA
ATOM      4  O   UNL     1       5.691  -0.635   0.000  0.00  0.00    -0.156 OA
BRANCH   2   5
ATOM      5  C   UNL     1       5.993   0.491   0.000  0.00  0.00    +0.147 C 
ATOM      6  C   UNL     1       6.747   0.156   0.000  0.00  0.00    +0.025 C 
ATOM      7  C   UNL     1       7.299   0.769   0.000  0.00  0.00    +0.002 C 
ATOM      8  C   UNL     1       6.886   1.484   0.000  0.00  0.00    +0.002 C 
ATOM      9  C   UNL     1       6.080   1.312   0.000  0.00  0.00    +0.025 C 
ENDBRANCH   2   5
ENDBRANCH   1   2
BRANCH   1  11
ATOM     10  C   UNL     1       5.279  -1.571   0.000  0.00  0.00    +0.023 C 
ATOM     11  C   UNL     1       4.564  -1.159   0.000  0.00  0.00    +0.122 C 
BRANCH  11  12
ATOM     12  C   UNL     1       3.850  -1.571   0.000  0.00  0.00    +0.147 C 
BRANCH  12  13
ATOM     13  N   UNL     1       3.850  -2.396   0.000  0.00  0.00    -0.248 N 
ATOM     14  N   UNL     1       3.182  -2.881   0.000  0.00  0.00    -0.168 NA
ATOM     15  C   UNL     1       3.437  -3.666   0.000  0.00  0.00    +0.122 A 
ATOM     16  C   UNL     1       4.262  -3.666   0.000  0.00  0.00    +0.043 A 
ATOM     17  C   UNL     1       4.517  -2.881   0.000  0.00  0.00    +0.097 A 
ENDBRANCH  12  13
ENDBRANCH  11  12
ENDBRANCH   1  11
TORSDOF 5
