REMARK  Name = 
REMARK  5 active torsions:
REMARK  status: ('A' for Active; 'I' for Inactive)
REMARK    1  A    between atoms: N_7  and  C_8
REMARK    2  A    between atoms: C_8  and  C_9
REMARK    3  A    between atoms: N_11  and  C_12
REMARK    4  A    between atoms: C_12  and  C_13
REMARK    5  A    between atoms: C_13  and  C_16
REMARK                            x       y       z     vdW  Elec       q    Type
REMARK                         _______ _______ _______ _____ _____    ______ ____
ROOT
ATOM      1  C   UNL     1       1.570  -4.484   0.000  0.00  0.00    +0.265 C 
ATOM      2  N   UNL     1       0.785  -4.229   0.000  0.00  0.00    -0.201 NA
ATOM      3  O   UNL     1       1.742  -5.291   0.000  0.00  0.00    -0.271 OA
ENDROOT
BRANCH   1   4
ATOM      4  C   UNL     1       2.183  -3.932   0.000  0.00  0.00    +0.196 C 
BRANCH   4   7
ATOM      5  C   UNL     1       3.635  -2.877   0.000  0.00  0.00    +0.051 C 
ATOM      6  C   UNL     1       3.635  -3.702   0.000  0.00  0.00    +0.048 A 
ATOM      7  N   UNL     1       2.968  -4.187   0.000  0.00  0.00    -0.285 N 
ATOM      8  C   UNL     1       3.223  -4.972   0.000  0.00  0.00    +0.292 A 
ATOM      9  O   UNL     1       2.738  -5.639   0.000  0.00  0.00    -0.259 OA
ATOM     10  S   UNL     1       4.048  -4.972   0.000  0.00  0.00    -0.026 S 
ATOM     11  C   UNL     1       4.303  -4.187   0.000  0.00  0.00    +0.053 A 
ENDBRANCH   4   7
ENDBRANCH   1   4
BRANCH   2  12
ATOM     12  C   UNL     1       0.172  -4.781   0.000  0.00  0.00    +0.145 C 
BRANCH  12  13
ATOM     13  C   UNL     1      -0.612  -4.526   0.000  0.00  0.00    +0.147 C 
ATOM     14  O   UNL     1      -0.867  -5.311   0.000  0.00  0.00    -0.224 OA
ATOM     15  C   UNL     1      -0.357  -3.742   0.000  0.00  0.00    +0.035 C 
BRANCH  13  16
ATOM     16  C   UNL     1      -1.397  -4.271   0.000  0.00  0.00    +0.030 C 
ATOM     17  C   UNL     1      -1.652  -3.487   0.000  0.00  0.00    +0.002 C 
ATOM     18  C   UNL     1      -2.477  -3.487   0.000  0.00  0.00    +0.000 C 
ATOM     19  C   UNL     1      -2.732  -4.271   0.000  0.00  0.00    +0.000 C 
ATOM     20  C   UNL     1      -2.064  -4.756   0.000  0.00  0.00    +0.002 C 
ENDBRANCH  13  16
ENDBRANCH  12  13
ENDBRANCH   2  12
TORSDOF 5
