REMARK  Name = 
REMARK  2 active torsions:
REMARK  status: ('A' for Active; 'I' for Inactive)
REMARK    1  A    between atoms: N_8  and  C_9
REMARK    2  A    between atoms: C_9  and  C_10
REMARK                            x       y       z     vdW  Elec       q    Type
REMARK                         _______ _______ _______ _____ _____    ______ ____
ROOT
ATOM      1  C   UNL     1      -0.556  -0.250   0.000  0.00  0.00    +0.075 C 
ATOM      2  C   UNL     1      -0.221  -1.004   0.000  0.00  0.00    +0.156 A 
ATOM      3  O   UNL     1      -0.633  -1.718   0.000  0.00  0.00    -0.356 OA
ATOM      4  N   UNL     1      -0.081  -2.331   0.000  0.00  0.00    -0.060 NA
ATOM      5  C   UNL     1       0.672  -1.996   0.000  0.00  0.00    +0.197 A 
ATOM      6  N   UNL     1       1.387  -2.408   0.000  0.00  0.00    -0.139 NA
ATOM      7  C   UNL     1       2.102  -1.996   0.000  0.00  0.00    +0.345 C 
ATOM      8  N   UNL     1       2.816  -2.408   0.000  0.00  0.00    -0.187 NA
ATOM      9  O   UNL     1       2.102  -1.171   0.000  0.00  0.00    -0.249 OA
ATOM     10  C   UNL     1       0.586  -1.175   0.000  0.00  0.00    +0.075 A 
ENDROOT
BRANCH   8  11
ATOM     11  C   UNL     1       3.530  -1.996   0.000  0.00  0.00    +0.119 C 
BRANCH  11  12
ATOM     12  C   UNL     1       4.245  -2.408   0.000  0.00  0.00    +0.054 C 
ATOM     13  C   UNL     1       4.331  -3.229   0.000  0.00  0.00    +0.144 C 
ATOM     14  O   UNL     1       5.138  -3.400   0.000  0.00  0.00    -0.354 OA
ATOM     15  C   UNL     1       5.551  -2.686   0.000  0.00  0.00    +0.142 C 
ATOM     16  C   UNL     1       4.999  -2.073   0.000  0.00  0.00    +0.036 C 
ENDBRANCH  11  12
ENDBRANCH   8  11
TORSDOF 2
