REMARK  Name = 
REMARK  1 active torsions:
REMARK  status: ('A' for Active; 'I' for Inactive)
REMARK    1  A    between atoms: C_6  and  C_8
REMARK                            x       y       z     vdW  Elec       q    Type
REMARK                         _______ _______ _______ _____ _____    ______ ____
ROOT
ATOM      1  O   UNL     1       0.715  -0.412   0.000  0.00  0.00    -0.265 OA
ATOM      2  C   UNL     1       0.715  -1.238   0.000  0.00  0.00    +0.282 A 
ATOM      3  N   UNL     1       0.000  -1.650   0.000  0.00  0.00    -0.193 NA
ATOM      4  C   UNL     1       0.000  -2.475   0.000  0.00  0.00    +0.142 A 
ATOM      5  N   UNL     1       0.715  -2.888   0.000  0.00  0.00    -0.229 NA
ATOM      6  C   UNL     1       1.429  -2.475   0.000  0.00  0.00    +0.105 A 
ATOM      7  C   UNL     1       1.429  -1.650   0.000  0.00  0.00    +0.083 A 
ENDROOT
BRANCH   4   8
ATOM      8  C   UNL     1      -0.715  -2.888   0.000  0.00  0.00    +0.064 C 
ATOM      9  C   UNL     1      -1.429  -2.475   0.000  0.00  0.00    +0.040 C 
ATOM     10  C   UNL     1      -2.143  -2.888   0.000  0.00  0.00    +0.143 C 
ATOM     11  O   UNL     1      -2.143  -3.712   0.000  0.00  0.00    -0.354 OA
ATOM     12  C   UNL     1      -1.429  -4.125   0.000  0.00  0.00    +0.143 C 
ATOM     13  C   UNL     1      -0.715  -3.712   0.000  0.00  0.00    +0.040 C 
ENDBRANCH   4   8
TORSDOF 1
