REMARK  Name = 
REMARK  3 active torsions:
REMARK  status: ('A' for Active; 'I' for Inactive)
REMARK    1  A    between atoms: N_14  and  C_15
REMARK    2  A    between atoms: C_15  and  C_16
REMARK    3  A    between atoms: C_16  and  O_17
REMARK                            x       y       z     vdW  Elec       q    Type
REMARK                         _______ _______ _______ _____ _____    ______ ____
ROOT
ATOM      1  C   UNL     1      -0.584  -1.412   0.000  0.00  0.00    +0.139 C 
ATOM      2  N   UNL     1      -0.171  -0.698   0.000  0.00  0.00    -0.203 NA
ATOM      3  C   UNL     1       0.654  -0.698   0.000  0.00  0.00    +0.219 A 
ATOM      4  N   UNL     1       1.139  -1.365   0.000  0.00  0.00    -0.291 N 
ATOM      5  C   UNL     1       1.923  -1.110   0.000  0.00  0.00    +0.155 A 
ATOM      6  C   UNL     1       1.923  -0.285   0.000  0.00  0.00    +0.171 A 
ATOM      7  N   UNL     1       2.638   0.127   0.000  0.00  0.00    -0.261 N 
ATOM      8  C   UNL     1       3.352  -0.285   0.000  0.00  0.00    +0.354 A 
ATOM      9  N   UNL     1       3.352  -1.110   0.000  0.00  0.00    -0.152 NA
ATOM     10  O   UNL     1       4.067   0.127   0.000  0.00  0.00    -0.244 OA
ATOM     11  C   UNL     1       2.638   0.952   0.000  0.00  0.00    +0.137 C 
ATOM     12  C   UNL     1       2.638  -1.523   0.000  0.00  0.00    +0.302 A 
ATOM     13  O   UNL     1       2.638  -2.348   0.000  0.00  0.00    -0.263 OA
ATOM     14  N   UNL     1       1.139  -0.030   0.000  0.00  0.00    -0.195 NA
ENDROOT
BRANCH   4  15
ATOM     15  C   UNL     1       0.884  -2.150   0.000  0.00  0.00    +0.141 C 
BRANCH  15  16
ATOM     16  C   UNL     1       1.436  -2.763   0.000  0.00  0.00    +0.167 C 
BRANCH  16  17
ATOM     17  O   UNL     1       1.181  -3.548   0.000  0.00  0.00    -0.349 OA
ATOM     18  C   UNL     1       1.733  -4.161   0.000  0.00  0.00    +0.174 C 
ENDBRANCH  16  17
ENDBRANCH  15  16
ENDBRANCH   4  15
TORSDOF 3
