REMARK  Name = 
REMARK  4 active torsions:
REMARK  status: ('A' for Active; 'I' for Inactive)
REMARK    1  A    between atoms: N_1  and  C_3
REMARK    2  A    between atoms: N_4  and  C_13
REMARK    3  A    between atoms: C_8  and  C_16
REMARK    4  A    between atoms: C_13  and  C_14
REMARK                            x       y       z     vdW  Elec       q    Type
REMARK                         _______ _______ _______ _____ _____    ______ ____
ROOT
ATOM      1  C   UNL     1       3.275   1.238   0.000  0.00  0.00    +0.154 A 
ATOM      2  N   UNL     1       3.992   0.825   0.000  0.00  0.00    -0.207 NA
ATOM      3  C   UNL     1       3.992   0.000   0.000  0.00  0.00    +0.201 A 
ATOM      4  N   UNL     1       3.275  -0.412   0.000  0.00  0.00    -0.205 NA
ATOM      5  C   UNL     1       2.562   0.000   0.000  0.00  0.00    +0.167 A 
ATOM      6  N   UNL     1       1.779  -0.254   0.000  0.00  0.00    -0.292 N 
ATOM      7  C   UNL     1       1.292   0.412   0.000  0.00  0.00    +0.180 A 
ATOM      8  N   UNL     1       1.779   1.083   0.000  0.00  0.00    -0.219 NA
ATOM      9  C   UNL     1       2.562   0.825   0.000  0.00  0.00    +0.149 A 
ENDROOT
BRANCH   1  10
ATOM     10  N   UNL     1       3.275   2.062   0.000  0.00  0.00    -0.291 N 
ATOM     11  C   UNL     1       3.858   2.650   0.000  0.00  0.00    +0.094 C 
ATOM     12  C   UNL     1       3.275   3.233   0.000  0.00  0.00    +0.037 C 
ATOM     13  C   UNL     1       2.692   3.817   0.000  0.00  0.00    +0.003 C 
ATOM     14  C   UNL     1       3.858   3.817   0.000  0.00  0.00    +0.003 C 
ATOM     15  C   UNL     1       2.692   2.650   0.000  0.00  0.00    +0.103 C 
BRANCH  15  16
ATOM     16  C   UNL     1       1.867   2.650   0.000  0.00  0.00    +0.133 C 
ATOM     17  C   UNL     1       1.383   1.979   0.000  0.00  0.00    +0.034 C 
ATOM     18  C   UNL     1       0.600   2.237   0.000  0.00  0.00    +0.035 C 
ATOM     19  C   UNL     1       0.600   3.062   0.000  0.00  0.00    +0.142 C 
ATOM     20  O   UNL     1       1.383   3.317   0.000  0.00  0.00    -0.355 OA
ENDBRANCH  15  16
ENDBRANCH   1  10
BRANCH   6  21
ATOM     21  C   UNL     1       1.521  -1.038   0.000  0.00  0.00    +0.142 C 
BRANCH  21  22
ATOM     22  C   UNL     1       2.075  -1.650   0.000  0.00  0.00    +0.177 C 
ATOM     23  C   UNL     1       2.487  -2.367   0.000  0.00  0.00    +0.174 C 
ATOM     24  O   UNL     1       3.296  -2.192   0.000  0.00  0.00    -0.351 OA
ATOM     25  C   UNL     1       3.379  -1.375   0.000  0.00  0.00    +0.145 C 
ATOM     26  O   UNL     1       1.408  -2.138   0.000  0.00  0.00    -0.221 OA
ATOM     27  C   UNL     1       2.625  -1.038   0.000  0.00  0.00    +0.067 C 
ENDBRANCH  21  22
ENDBRANCH   6  21
TORSDOF 4
