REMARK  Name = 
REMARK  6 active torsions:
REMARK  status: ('A' for Active; 'I' for Inactive)
REMARK    1  A    between atoms: C_2  and  C_3
REMARK    2  A    between atoms: C_2  and  N_10
REMARK    3  A    between atoms: C_3  and  O_4
REMARK    4  A    between atoms: O_4  and  C_5
REMARK    5  A    between atoms: C_14  and  O_15
REMARK    6  A    between atoms: O_15  and  C_16
REMARK                            x       y       z     vdW  Elec       q    Type
REMARK                         _______ _______ _______ _____ _____    ______ ____
ROOT
ATOM      1  N   UNL     1       2.858  -2.475   0.000  0.00  0.00    -0.219 NA
ATOM      2  C   UNL     1       3.572  -2.888   0.000  0.00  0.00    +0.148 A 
ATOM      3  N   UNL     1       3.572  -3.712   0.000  0.00  0.00    -0.225 NA
ATOM      4  C   UNL     1       4.287  -4.125   0.000  0.00  0.00    +0.137 A 
ATOM      5  C   UNL     1       5.001  -3.712   0.000  0.00  0.00    +0.163 A 
ATOM      6  C   UNL     1       5.001  -2.888   0.000  0.00  0.00    +0.042 A 
ATOM      7  C   UNL     1       4.287  -2.475   0.000  0.00  0.00    +0.039 A 
ENDROOT
BRANCH   1   9
ATOM      8  C   UNL     1       2.143  -3.712   0.000  0.00  0.00    +0.026 C 
ATOM      9  C   UNL     1       2.143  -2.888   0.000  0.00  0.00    +0.124 C 
BRANCH   9  10
ATOM     10  C   UNL     1       1.429  -2.475   0.000  0.00  0.00    +0.164 C 
BRANCH  10  11
ATOM     11  O   UNL     1       0.715  -2.888   0.000  0.00  0.00    -0.352 OA
BRANCH  11  12
ATOM     12  C   UNL     1       0.000  -2.475   0.000  0.00  0.00    +0.147 C 
ATOM     13  C   UNL     1      -0.086  -1.655   0.000  0.00  0.00    +0.172 C 
ATOM     14  O   UNL     1      -0.893  -1.483   0.000  0.00  0.00    -0.351 OA
ATOM     15  C   UNL     1      -1.306  -2.197   0.000  0.00  0.00    +0.145 C 
ATOM     16  C   UNL     1      -0.754  -2.811   0.000  0.00  0.00    +0.064 C 
ENDBRANCH  11  12
ENDBRANCH  10  11
ENDBRANCH   9  10
ENDBRANCH   1   9
BRANCH   5  17
ATOM     17  O   UNL     1       5.716  -4.125   0.000  0.00  0.00    -0.422 OA
BRANCH  17  18
ATOM     18  C   UNL     1       5.716  -4.950   0.000  0.00  0.00    +0.509 C 
ATOM     19  F   UNL     1       5.001  -5.362   0.000  0.00  0.00    -0.155 F 
ATOM     20  F   UNL     1       6.430  -5.362   0.000  0.00  0.00    -0.155 F 
ENDBRANCH  17  18
ENDBRANCH   5  17
TORSDOF 6
