REMARK  Name = 
REMARK  3 active torsions:
REMARK  status: ('A' for Active; 'I' for Inactive)
REMARK    1  A    between atoms: O_2  and  C_3
REMARK    2  A    between atoms: C_3  and  C_6
REMARK    3  A    between atoms: N_8  and  C_9
REMARK                            x       y       z     vdW  Elec       q    Type
REMARK                         _______ _______ _______ _____ _____    ______ ____
ROOT
ATOM      1  C   UNL     1       0.000   2.475   0.000  0.00  0.00    +0.270 C 
ATOM      2  N   UNL     1       0.715   2.062   0.000  0.00  0.00    -0.174 NA
ATOM      3  O   UNL     1      -0.715   2.062   0.000  0.00  0.00    -0.270 OA
ENDROOT
BRANCH   2   4
ATOM      4  C   UNL     1       0.715   1.238   0.000  0.00  0.00    +0.115 A 
ATOM      5  C   UNL     1       0.000   0.825   0.000  0.00  0.00    +0.230 A 
ATOM      6  O   UNL     1      -0.715   1.238   0.000  0.00  0.00    -0.284 OA
ATOM      7  C   UNL     1       0.000   0.000   0.000  0.00  0.00    +0.142 A 
ATOM      8  N   UNL     1       0.715  -0.412   0.000  0.00  0.00    -0.239 NA
ATOM      9  C   UNL     1       1.429   0.000   0.000  0.00  0.00    +0.100 A 
ATOM     10  C   UNL     1       1.429   0.825   0.000  0.00  0.00    +0.041 A 
ENDBRANCH   2   4
BRANCH   1  11
ATOM     11  C   UNL     1       0.000   3.300   0.000  0.00  0.00    +0.163 C 
ATOM     12  C   UNL     1       0.825   3.300   0.000  0.00  0.00    +0.039 C 
ATOM     13  C   UNL     1      -0.825   3.300   0.000  0.00  0.00    +0.039 C 
BRANCH  11  15
ATOM     14  C   UNL     1      -0.715   4.537   0.000  0.00  0.00    +0.175 C 
ATOM     15  O   UNL     1       0.000   4.125   0.000  0.00  0.00    -0.347 OA
ENDBRANCH  11  15
ENDBRANCH   1  11
TORSDOF 3
