REMARK  Name = 
REMARK  6 active torsions:
REMARK  status: ('A' for Active; 'I' for Inactive)
REMARK    1  A    between atoms: O_2  and  C_3
REMARK    2  A    between atoms: C_6  and  C_7
REMARK    3  A    between atoms: C_7  and  C_8
REMARK    4  A    between atoms: N_16  and  C_17
REMARK    5  A    between atoms: C_17  and  C_18
REMARK    6  A    between atoms: C_18  and  C_20
REMARK                            x       y       z     vdW  Elec       q    Type
REMARK                         _______ _______ _______ _____ _____    ______ ____
ROOT
ATOM      1  C   UNL     1       0.654  -0.698   0.000  0.00  0.00    +0.125 A 
ATOM      2  N   UNL     1       1.139  -1.365   0.000  0.00  0.00    -0.312 N 
ATOM      3  C   UNL     1       1.923  -1.110   0.000  0.00  0.00    +0.079 A 
ATOM      4  C   UNL     1       1.923  -0.285   0.000  0.00  0.00    +0.098 A 
ATOM      5  C   UNL     1       2.638   0.127   0.000  0.00  0.00    +0.021 A 
ATOM      6  C   UNL     1       3.352  -0.285   0.000  0.00  0.00    +0.002 A 
ATOM      7  C   UNL     1       3.352  -1.110   0.000  0.00  0.00    +0.002 A 
ATOM      8  C   UNL     1       2.638  -1.523   0.000  0.00  0.00    +0.019 A 
ATOM      9  N   UNL     1       1.139  -0.030   0.000  0.00  0.00    -0.231 NA
ENDROOT
BRANCH   1  10
ATOM     10  C   UNL     1      -0.171  -0.698   0.000  0.00  0.00    +0.090 C 
BRANCH  10  14
ATOM     11  C   UNL     1      -1.409   1.446   0.000  0.00  0.00    +0.139 A 
ATOM     12  C   UNL     1      -1.821   0.731   0.000  0.00  0.00    +0.037 A 
ATOM     13  C   UNL     1      -1.409   0.017   0.000  0.00  0.00    -0.001 A 
ATOM     14  C   UNL     1      -0.584   0.017   0.000  0.00  0.00    -0.014 A 
ATOM     15  C   UNL     1      -0.171   0.731   0.000  0.00  0.00    -0.001 A 
ATOM     16  C   UNL     1      -0.584   1.446   0.000  0.00  0.00    +0.037 A 
BRANCH  11  18
ATOM     17  C   UNL     1      -2.646   2.160   0.000  0.00  0.00    +0.252 C 
ATOM     18  O   UNL     1      -1.821   2.160   0.000  0.00  0.00    -0.471 OA
ENDBRANCH  11  18
ENDBRANCH  10  14
ENDBRANCH   1  10
BRANCH   2  19
ATOM     19  C   UNL     1       0.884  -2.150   0.000  0.00  0.00    +0.143 C 
BRANCH  19  20
ATOM     20  C   UNL     1       1.436  -2.763   0.000  0.00  0.00    +0.207 C 
ATOM     21  O   UNL     1       2.243  -2.592   0.000  0.00  0.00    -0.218 OA
BRANCH  20  22
ATOM     22  C   UNL     1       1.181  -3.548   0.000  0.00  0.00    +0.217 C 
ATOM     23  O   UNL     1       1.733  -4.161   0.000  0.00  0.00    -0.218 OA
ENDBRANCH  20  22
ENDBRANCH  19  20
ENDBRANCH   2  19
TORSDOF 6
