REMARK  Name = 
REMARK  4 active torsions:
REMARK  status: ('A' for Active; 'I' for Inactive)
REMARK    1  A    between atoms: C_5  and  N_8
REMARK    2  A    between atoms: C_16  and  O_17
REMARK    3  A    between atoms: O_17  and  C_18
REMARK    4  A    between atoms: C_18  and  C_19
REMARK                            x       y       z     vdW  Elec       q    Type
REMARK                         _______ _______ _______ _____ _____    ______ ____
ROOT
ATOM      1  N   UNL     1      -1.429  -4.950   0.000  0.00  0.00    -0.189 NA
ATOM      2  C   UNL     1      -0.715  -5.362   0.000  0.00  0.00    +0.345 C 
ATOM      3  N   UNL     1      -0.715  -6.188   0.000  0.00  0.00    -0.142 NA
ATOM      4  C   UNL     1       0.000  -6.600   0.000  0.00  0.00    +0.159 A 
ATOM      5  N   UNL     1       0.000  -7.425   0.000  0.00  0.00    -0.195 NA
ATOM      6  C   UNL     1       0.715  -7.838   0.000  0.00  0.00    +0.226 A 
ATOM      7  C   UNL     1       1.429  -7.425   0.000  0.00  0.00    +0.058 A 
ATOM      8  C   UNL     1       1.429  -6.600   0.000  0.00  0.00    +0.008 A 
ATOM      9  C   UNL     1       0.715  -6.188   0.000  0.00  0.00    +0.036 A 
ATOM     10  O   UNL     1       0.000  -4.950   0.000  0.00  0.00    -0.249 OA
ENDROOT
BRANCH   1  15
ATOM     11  C   UNL     1      -1.429  -1.650   0.000  0.00  0.00    +0.090 C 
ATOM     12  N   UNL     1      -1.429  -2.475   0.000  0.00  0.00    -0.271 NA
ATOM     13  C   UNL     1      -2.143  -2.888   0.000  0.00  0.00    +0.074 C 
ATOM     14  C   UNL     1      -2.143  -3.712   0.000  0.00  0.00    +0.039 C 
ATOM     15  C   UNL     1      -1.429  -4.125   0.000  0.00  0.00    +0.100 C 
ATOM     16  C   UNL     1      -0.715  -3.712   0.000  0.00  0.00    +0.039 C 
ATOM     17  C   UNL     1      -0.715  -2.888   0.000  0.00  0.00    +0.074 C 
ENDBRANCH   1  15
BRANCH   6  18
ATOM     18  O   UNL     1       0.715  -8.662   0.000  0.00  0.00    -0.454 OA
BRANCH  18  19
ATOM     19  C   UNL     1       1.429  -9.075   0.000  0.00  0.00    +0.279 C 
BRANCH  19  20
ATOM     20  C   UNL     1       1.429  -9.900   0.000  0.00  0.00    +0.362 C 
ATOM     21  F   UNL     1       0.715 -10.312   0.000  0.00  0.00    -0.194 F 
ATOM     22  F   UNL     1       2.143 -10.312   0.000  0.00  0.00    -0.194 F 
ENDBRANCH  19  20
ENDBRANCH  18  19
ENDBRANCH   6  18
TORSDOF 4
