REMARK  Name = 
REMARK  4 active torsions:
REMARK  status: ('A' for Active; 'I' for Inactive)
REMARK    1  A    between atoms: C_2  and  C_3
REMARK    2  A    between atoms: C_9  and  N_10
REMARK    3  A    between atoms: C_11  and  C_13
REMARK    4  A    between atoms: C_13  and  C_14
REMARK                            x       y       z     vdW  Elec       q    Type
REMARK                         _______ _______ _______ _____ _____    ______ ____
ROOT
ATOM      1  N   UNL     1       0.859  -1.037   0.000  0.00  0.00    -0.207 NA
ATOM      2  C   UNL     1       0.859  -1.862   0.000  0.00  0.00    +0.246 C 
ATOM      3  O   UNL     1       0.145  -2.275   0.000  0.00  0.00    -0.273 OA
ENDROOT
BRANCH   1   5
ATOM      4  C   UNL     1      -0.537  -1.089   0.000  0.00  0.00    +0.053 C 
ATOM      5  C   UNL     1       0.145  -0.625   0.000  0.00  0.00    +0.098 C 
ATOM      6  C   UNL     1       0.207   0.198   0.000  0.00  0.00    +0.022 C 
ATOM      7  C   UNL     1      -0.398   0.759   0.000  0.00  0.00    +0.002 C 
ATOM      8  C   UNL     1      -1.214   0.636   0.000  0.00  0.00    +0.000 C 
ATOM      9  C   UNL     1      -1.627  -0.078   0.000  0.00  0.00    +0.000 C 
ATOM     10  C   UNL     1      -1.325  -0.846   0.000  0.00  0.00    +0.004 C 
BRANCH   4  12
ATOM     11  O   UNL     1      -1.059  -2.420   0.000  0.00  0.00    -0.220 OA
ATOM     12  C   UNL     1      -0.414  -1.905   0.000  0.00  0.00    +0.184 C 
ENDBRANCH   4  12
ENDBRANCH   1   5
BRANCH   2  13
ATOM     13  C   UNL     1       1.574  -2.275   0.000  0.00  0.00    +0.115 C 
BRANCH  13  14
ATOM     14  C   UNL     1       1.574  -3.100   0.000  0.00  0.00    +0.006 A 
ATOM     15  C   UNL     1       0.859  -3.512   0.000  0.00  0.00    +0.095 A 
ATOM     16  N   UNL     1       0.859  -4.337   0.000  0.00  0.00    -0.243 NA
ATOM     17  C   UNL     1       1.574  -4.750   0.000  0.00  0.00    +0.099 A 
ATOM     18  C   UNL     1       2.288  -4.337   0.000  0.00  0.00    +0.020 A 
ATOM     19  C   UNL     1       2.288  -3.512   0.000  0.00  0.00    -0.001 A 
ENDBRANCH  13  14
ENDBRANCH   2  13
TORSDOF 4
