REMARK  Name = 
REMARK  6 active torsions:
REMARK  status: ('A' for Active; 'I' for Inactive)
REMARK    1  A    between atoms: O_2  and  C_3
REMARK    2  A    between atoms: C_3  and  C_4
REMARK    3  A    between atoms: C_9  and  N_11
REMARK    4  A    between atoms: C_15  and  O_17
REMARK    5  A    between atoms: O_17  and  C_18
REMARK    6  A    between atoms: C_18  and  C_19
REMARK                            x       y       z     vdW  Elec       q    Type
REMARK                         _______ _______ _______ _____ _____    ______ ____
ROOT
ATOM      1  C   UNL     1       0.715  -1.238   0.000  0.00  0.00    +0.170 A 
ATOM      2  N   UNL     1       0.000  -1.650   0.000  0.00  0.00    -0.213 NA
ATOM      3  C   UNL     1       0.000  -2.475   0.000  0.00  0.00    +0.134 A 
ATOM      4  C   UNL     1       0.715  -2.888   0.000  0.00  0.00    +0.049 A 
ATOM      5  C   UNL     1       1.429  -2.475   0.000  0.00  0.00    +0.064 A 
ATOM      6  C   UNL     1       2.143  -2.888   0.000  0.00  0.00    +0.052 C 
ATOM      7  N   UNL     1       1.429  -1.650   0.000  0.00  0.00    -0.232 NA
ENDROOT
BRANCH   3   8
ATOM      8  N   UNL     1      -0.715  -2.888   0.000  0.00  0.00    -0.291 N 
ATOM      9  C   UNL     1      -1.429  -2.475   0.000  0.00  0.00    +0.122 C 
ATOM     10  C   UNL     1      -2.143  -2.888   0.000  0.00  0.00    +0.135 C 
ATOM     11  C   UNL     1      -2.143  -3.712   0.000  0.00  0.00    +0.033 C 
ATOM     12  C   UNL     1      -1.429  -4.125   0.000  0.00  0.00    +0.024 C 
ATOM     13  C   UNL     1      -0.715  -3.712   0.000  0.00  0.00    +0.092 C 
BRANCH  10  14
ATOM     14  O   UNL     1      -2.858  -2.475   0.000  0.00  0.00    -0.352 OA
BRANCH  14  15
ATOM     15  C   UNL     1      -3.572  -2.888   0.000  0.00  0.00    +0.178 C 
BRANCH  15  16
ATOM     16  C   UNL     1      -4.287  -2.475   0.000  0.00  0.00    +0.214 C 
ATOM     17  O   UNL     1      -5.001  -2.888   0.000  0.00  0.00    -0.218 OA
ENDBRANCH  15  16
ENDBRANCH  14  15
ENDBRANCH  10  14
ENDBRANCH   3   8
BRANCH   1  18
ATOM     18  C   UNL     1       0.715  -0.412   0.000  0.00  0.00    +0.207 C 
BRANCH  18  20
ATOM     19  C   UNL     1       1.429   0.825   0.000  0.00  0.00    +0.175 C 
ATOM     20  O   UNL     1       1.429   0.000   0.000  0.00  0.00    -0.343 OA
ENDBRANCH  18  20
ENDBRANCH   1  18
TORSDOF 6
