REMARK  Name = 
REMARK  4 active torsions:
REMARK  status: ('A' for Active; 'I' for Inactive)
REMARK    1  A    between atoms: C_2  and  C_3
REMARK    2  A    between atoms: C_3  and  N_4
REMARK    3  A    between atoms: N_7  and  C_8
REMARK    4  A    between atoms: C_11  and  C_14
REMARK                            x       y       z     vdW  Elec       q    Type
REMARK                         _______ _______ _______ _____ _____    ______ ____
ROOT
ATOM      1  N   UNL     1       0.000  -2.475   0.000  0.00  0.00    -0.186 NA
ATOM      2  C   UNL     1       0.715  -2.062   0.000  0.00  0.00    +0.344 C 
ATOM      3  N   UNL     1       1.429  -2.475   0.000  0.00  0.00    -0.158 NA
ATOM      4  O   UNL     1       0.715  -1.238   0.000  0.00  0.00    -0.249 OA
ENDROOT
BRANCH   3   5
ATOM      5  C   UNL     1       2.143  -2.062   0.000  0.00  0.00    +0.113 A 
ATOM      6  C   UNL     1       2.858  -2.475   0.000  0.00  0.00    +0.118 A 
ATOM      7  N   UNL     1       3.572  -2.062   0.000  0.00  0.00    -0.228 NA
ATOM      8  C   UNL     1       3.572  -1.238   0.000  0.00  0.00    +0.139 A 
ATOM      9  N   UNL     1       2.858  -0.825   0.000  0.00  0.00    -0.228 NA
ATOM     10  C   UNL     1       2.143  -1.238   0.000  0.00  0.00    +0.118 A 
BRANCH   8  11
ATOM     11  C   UNL     1       4.287  -0.825   0.000  0.00  0.00    +0.059 C 
ATOM     12  C   UNL     1       5.112  -0.825   0.000  0.00  0.00    +0.008 C 
ATOM     13  C   UNL     1       4.699  -0.111   0.000  0.00  0.00    +0.008 C 
ENDBRANCH   8  11
ENDBRANCH   3   5
BRANCH   1  14
ATOM     14  C   UNL     1      -0.715  -2.062   0.000  0.00  0.00    +0.127 C 
BRANCH  14  16
ATOM     15  C   UNL     1      -0.944  -3.142   0.000  0.00  0.00    +0.013 C 
ATOM     16  C   UNL     1      -1.429  -2.475   0.000  0.00  0.00    +0.059 C 
ATOM     17  S   UNL     1      -1.764  -1.721   0.000  0.00  0.00    -0.140 S 
ATOM     18  C   UNL     1      -2.585  -1.808   0.000  0.00  0.00    +0.058 C 
ATOM     19  C   UNL     1      -2.756  -2.615   0.000  0.00  0.00    +0.013 C 
ATOM     20  C   UNL     1      -2.042  -3.027   0.000  0.00  0.00    +0.013 C 
ENDBRANCH  14  16
ENDBRANCH   1  14
TORSDOF 4
