REMARK  Name = 
REMARK  5 active torsions:
REMARK  status: ('A' for Active; 'I' for Inactive)
REMARK    1  A    between atoms: C_6  and  C_7
REMARK    2  A    between atoms: C_7  and  N_8
REMARK    3  A    between atoms: N_8  and  C_9
REMARK    4  A    between atoms: C_9  and  C_10
REMARK    5  A    between atoms: C_10  and  C_11
REMARK                            x       y       z     vdW  Elec       q    Type
REMARK                         _______ _______ _______ _____ _____    ______ ____
ROOT
ATOM      1  N   UNL     1       1.429  -2.475   0.000  0.00  0.00    -0.215 NA
ENDROOT
BRANCH   1   2
ATOM      2  C   UNL     1       0.715  -2.888   0.000  0.00  0.00    +0.120 C 
BRANCH   2   6
ATOM      3  C   UNL     1      -2.143  -2.888   0.000  0.00  0.00    +0.090 C 
ATOM      4  N   UNL     1      -1.429  -2.475   0.000  0.00  0.00    -0.267 NA
ATOM      5  C   UNL     1      -0.715  -2.888   0.000  0.00  0.00    +0.104 C 
ATOM      6  C   UNL     1       0.000  -2.475   0.000  0.00  0.00    +0.148 C 
ATOM      7  O   UNL     1       0.000  -1.650   0.000  0.00  0.00    -0.352 OA
ATOM      8  C   UNL     1      -0.715  -1.238   0.000  0.00  0.00    +0.159 C 
ATOM      9  C   UNL     1      -1.429  -1.650   0.000  0.00  0.00    +0.105 C 
ENDBRANCH   2   6
ENDBRANCH   1   2
BRANCH   1  10
ATOM     10  C   UNL     1       2.143  -2.888   0.000  0.00  0.00    +0.095 C 
BRANCH  10  11
ATOM     11  C   UNL     1       2.858  -2.475   0.000  0.00  0.00    +0.065 C 
BRANCH  11  12
ATOM     12  C   UNL     1       3.572  -2.888   0.000  0.00  0.00    +0.060 A 
ATOM     13  N   UNL     1       3.572  -3.712   0.000  0.00  0.00    -0.248 NA
ATOM     14  C   UNL     1       4.287  -4.125   0.000  0.00  0.00    +0.098 A 
ATOM     15  C   UNL     1       5.001  -3.712   0.000  0.00  0.00    +0.021 A 
ATOM     16  C   UNL     1       5.001  -2.888   0.000  0.00  0.00    +0.003 A 
ATOM     17  C   UNL     1       4.287  -2.475   0.000  0.00  0.00    +0.015 A 
ENDBRANCH  11  12
ENDBRANCH  10  11
ENDBRANCH   1  10
TORSDOF 5
