REMARK  Name = 
REMARK  3 active torsions:
REMARK  status: ('A' for Active; 'I' for Inactive)
REMARK    1  A    between atoms: C_2  and  N_3
REMARK    2  A    between atoms: C_2  and  C_16
REMARK    3  A    between atoms: N_6  and  C_7
REMARK                            x       y       z     vdW  Elec       q    Type
REMARK                         _______ _______ _______ _____ _____    ______ ____
ROOT
ATOM      1  N   UNL     1       1.429  -2.475   0.000  0.00  0.00    -0.186 NA
ATOM      2  C   UNL     1       2.143  -2.888   0.000  0.00  0.00    +0.344 C 
ATOM      3  N   UNL     1       2.858  -2.475   0.000  0.00  0.00    -0.160 NA
ATOM      4  O   UNL     1       2.143  -3.712   0.000  0.00  0.00    -0.249 OA
ENDROOT
BRANCH   3   5
ATOM      5  C   UNL     1       3.572  -2.888   0.000  0.00  0.00    +0.088 A 
ATOM      6  C   UNL     1       3.572  -3.712   0.000  0.00  0.00    -0.000 A 
ATOM      7  C   UNL     1       2.858  -4.125   0.000  0.00  0.00    +0.033 C 
ATOM      8  C   UNL     1       4.287  -4.125   0.000  0.00  0.00    +0.058 A 
ATOM      9  C   UNL     1       5.001  -3.712   0.000  0.00  0.00    +0.261 A 
ATOM     10  O   UNL     1       5.716  -4.125   0.000  0.00  0.00    -0.267 OA
ATOM     11  N   UNL     1       5.001  -2.888   0.000  0.00  0.00    -0.291 N 
ATOM     12  C   UNL     1       5.716  -2.475   0.000  0.00  0.00    +0.134 C 
ATOM     13  C   UNL     1       4.287  -2.475   0.000  0.00  0.00    +0.095 A 
ENDBRANCH   3   5
BRANCH   1  15
ATOM     14  C   UNL     1       0.715  -3.712   0.000  0.00  0.00    +0.026 C 
ATOM     15  C   UNL     1       0.715  -2.888   0.000  0.00  0.00    +0.124 C 
BRANCH  15  16
ATOM     16  C   UNL     1       0.000  -2.475   0.000  0.00  0.00    +0.135 C 
ATOM     17  O   UNL     1      -0.086  -1.655   0.000  0.00  0.00    -0.354 OA
ATOM     18  C   UNL     1      -0.893  -1.483   0.000  0.00  0.00    +0.142 C 
ATOM     19  C   UNL     1      -1.306  -2.197   0.000  0.00  0.00    +0.035 C 
ATOM     20  C   UNL     1      -0.754  -2.811   0.000  0.00  0.00    +0.034 C 
ENDBRANCH  15  16
ENDBRANCH   1  15
TORSDOF 3
