REMARK  Name = 
REMARK  3 active torsions:
REMARK  status: ('A' for Active; 'I' for Inactive)
REMARK    1  A    between atoms: N_3  and  C_4
REMARK    2  A    between atoms: C_4  and  C_5
REMARK    3  A    between atoms: N_12  and  C_13
REMARK                            x       y       z     vdW  Elec       q    Type
REMARK                         _______ _______ _______ _____ _____    ______ ____
ROOT
ATOM      1  O   UNL     1       2.143  -3.712   0.000  0.00  0.00    -0.249 OA
ATOM      2  C   UNL     1       2.143  -2.888   0.000  0.00  0.00    +0.343 C 
ATOM      3  N   UNL     1       2.858  -2.475   0.000  0.00  0.00    -0.161 NA
ATOM      4  N   UNL     1       1.429  -2.475   0.000  0.00  0.00    -0.187 NA
ENDROOT
BRANCH   3   5
ATOM      5  C   UNL     1       3.572  -2.888   0.000  0.00  0.00    +0.078 A 
ATOM      6  C   UNL     1       3.572  -3.712   0.000  0.00  0.00    +0.037 A 
ATOM      7  C   UNL     1       4.287  -4.125   0.000  0.00  0.00    +0.100 A 
ATOM      8  N   UNL     1       5.001  -3.712   0.000  0.00  0.00    -0.242 NA
ATOM      9  C   UNL     1       5.001  -2.888   0.000  0.00  0.00    +0.100 A 
ATOM     10  C   UNL     1       4.287  -2.475   0.000  0.00  0.00    +0.037 A 
ENDBRANCH   3   5
BRANCH   4  11
ATOM     11  C   UNL     1       0.715  -2.888   0.000  0.00  0.00    +0.119 C 
BRANCH  11  12
ATOM     12  C   UNL     1       0.000  -2.475   0.000  0.00  0.00    +0.047 C 
ATOM     13  C   UNL     1      -0.086  -1.655   0.000  0.00  0.00    +0.153 C 
ATOM     14  S   UNL     1      -0.893  -1.483   0.000  0.00  0.00    -0.010 S 
ATOM     15  O   UNL     1      -0.638  -0.698   0.000  0.00  0.00    -0.173 OA
ATOM     16  O   UNL     1      -1.647  -1.147   0.000  0.00  0.00    -0.173 OA
ATOM     17  C   UNL     1      -1.306  -2.197   0.000  0.00  0.00    +0.151 C 
ATOM     18  C   UNL     1      -0.754  -2.811   0.000  0.00  0.00    +0.029 C 
ENDBRANCH  11  12
ENDBRANCH   4  11
TORSDOF 3
