REMARK  Name = 
REMARK  6 active torsions:
REMARK  status: ('A' for Active; 'I' for Inactive)
REMARK    1  A    between atoms: N_5  and  C_6
REMARK    2  A    between atoms: C_6  and  C_7
REMARK    3  A    between atoms: C_7  and  C_9
REMARK    4  A    between atoms: C_9  and  O_10
REMARK    5  A    between atoms: O_10  and  C_11
REMARK    6  A    between atoms: C_11  and  C_12
REMARK                            x       y       z     vdW  Elec       q    Type
REMARK                         _______ _______ _______ _____ _____    ______ ____
ROOT
ATOM      1  C   UNL     1       0.334  -1.833   0.000  0.00  0.00    +0.146 C 
ENDROOT
BRANCH   1   9
ATOM      2  C   UNL     1      -1.609   0.326   0.000  0.00  0.00    +0.135 C 
ATOM      3  N   UNL     1      -1.274  -0.428   0.000  0.00  0.00    -0.278 N 
ATOM      4  C   UNL     1      -1.686  -1.143   0.000  0.00  0.00    +0.080 A 
ATOM      5  C   UNL     1      -1.134  -1.756   0.000  0.00  0.00    +0.080 A 
ATOM      6  C   UNL     1      -1.389  -2.540   0.000  0.00  0.00    +0.019 A 
ATOM      7  C   UNL     1      -2.196  -2.712   0.000  0.00  0.00    +0.002 A 
ATOM      8  C   UNL     1      -2.748  -2.099   0.000  0.00  0.00    +0.002 A 
ATOM      9  N   UNL     1      -0.381  -1.420   0.000  0.00  0.00    -0.277 N 
ATOM     10  C   UNL     1      -2.493  -1.314   0.000  0.00  0.00    +0.019 A 
ATOM     11  C   UNL     1      -0.467  -0.600   0.000  0.00  0.00    +0.332 A 
ATOM     12  O   UNL     1       0.146  -0.048   0.000  0.00  0.00    -0.246 OA
ENDBRANCH   1   9
BRANCH   1  13
ATOM     13  C   UNL     1       1.048  -1.420   0.000  0.00  0.00    +0.204 C 
ATOM     14  O   UNL     1       1.048  -0.595   0.000  0.00  0.00    -0.218 OA
BRANCH  13  15
ATOM     15  C   UNL     1       1.763  -1.833   0.000  0.00  0.00    +0.177 C 
BRANCH  15  16
ATOM     16  O   UNL     1       2.477  -1.420   0.000  0.00  0.00    -0.346 OA
BRANCH  16  17
ATOM     17  C   UNL     1       3.192  -1.833   0.000  0.00  0.00    +0.171 C 
BRANCH  17  18
ATOM     18  C   UNL     1       3.906  -1.420   0.000  0.00  0.00    +0.035 A 
ATOM     19  C   UNL     1       4.621  -1.833   0.000  0.00  0.00    +0.138 A 
ATOM     20  F   UNL     1       4.621  -2.658   0.000  0.00  0.00    -0.204 F 
ATOM     21  C   UNL     1       5.335  -1.420   0.000  0.00  0.00    +0.029 A 
ATOM     22  C   UNL     1       5.335  -0.595   0.000  0.00  0.00    +0.002 A 
ATOM     23  C   UNL     1       4.621  -0.183   0.000  0.00  0.00    -0.000 A 
ATOM     24  C   UNL     1       3.906  -0.595   0.000  0.00  0.00    +0.000 A 
ENDBRANCH  17  18
ENDBRANCH  16  17
ENDBRANCH  15  16
ENDBRANCH  13  15
ENDBRANCH   1  13
TORSDOF 6
