REMARK  Name = 
REMARK  7 active torsions:
REMARK  status: ('A' for Active; 'I' for Inactive)
REMARK    1  A    between atoms: O_2  and  C_3
REMARK    2  A    between atoms: C_3  and  C_4
REMARK    3  A    between atoms: C_4  and  N_5
REMARK    4  A    between atoms: C_8  and  C_9
REMARK    5  A    between atoms: C_9  and  N_10
REMARK    6  A    between atoms: C_11  and  C_13
REMARK    7  A    between atoms: C_13  and  N_14
REMARK                            x       y       z     vdW  Elec       q    Type
REMARK                         _______ _______ _______ _____ _____    ______ ____
ROOT
ATOM      1  C   UNL     1       0.715  -2.888   0.000  0.00  0.00    +0.115 C 
ENDROOT
BRANCH   1   5
ATOM      2  N   UNL     1      -1.429  -1.650   0.000  0.00  0.00    -0.271 NA
ATOM      3  C   UNL     1      -1.429  -2.475   0.000  0.00  0.00    +0.072 C 
ATOM      4  C   UNL     1      -0.715  -2.888   0.000  0.00  0.00    +0.019 C 
ATOM      5  C   UNL     1       0.000  -2.475   0.000  0.00  0.00    +0.024 C 
ATOM      6  C   UNL     1       0.000  -1.650   0.000  0.00  0.00    +0.019 C 
ATOM      7  C   UNL     1      -0.715  -1.238   0.000  0.00  0.00    +0.072 C 
BRANCH   2   8
ATOM      8  C   UNL     1      -2.143  -1.238   0.000  0.00  0.00    +0.105 C 
BRANCH   8   9
ATOM      9  C   UNL     1      -2.858  -1.650   0.000  0.00  0.00    +0.160 C 
BRANCH   9  11
ATOM     10  C   UNL     1      -4.287  -1.650   0.000  0.00  0.00    +0.174 C 
ATOM     11  O   UNL     1      -3.572  -1.238   0.000  0.00  0.00    -0.350 OA
ENDBRANCH   9  11
ENDBRANCH   8   9
ENDBRANCH   2   8
ENDBRANCH   1   5
BRANCH   1  12
ATOM     12  N   UNL     1       1.429  -2.475   0.000  0.00  0.00    -0.204 NA
ATOM     13  C   UNL     1       2.143  -2.888   0.000  0.00  0.00    +0.265 C 
ATOM     14  O   UNL     1       2.143  -3.712   0.000  0.00  0.00    -0.271 OA
BRANCH  13  15
ATOM     15  C   UNL     1       2.858  -2.475   0.000  0.00  0.00    +0.197 C 
BRANCH  15  16
ATOM     16  N   UNL     1       3.572  -2.888   0.000  0.00  0.00    -0.269 N 
ATOM     17  C   UNL     1       3.572  -3.712   0.000  0.00  0.00    +0.351 A 
ATOM     18  O   UNL     1       2.858  -4.125   0.000  0.00  0.00    -0.244 OA
ATOM     19  N   UNL     1       4.287  -4.125   0.000  0.00  0.00    -0.191 NA
ATOM     20  C   UNL     1       5.001  -3.712   0.000  0.00  0.00    +0.105 A 
ATOM     21  C   UNL     1       5.001  -2.888   0.000  0.00  0.00    +0.040 A 
ATOM     22  C   UNL     1       4.287  -2.475   0.000  0.00  0.00    +0.082 A 
ENDBRANCH  15  16
ENDBRANCH  13  15
ENDBRANCH   1  12
TORSDOF 7
