REMARK  Name = 
REMARK  5 active torsions:
REMARK  status: ('A' for Active; 'I' for Inactive)
REMARK    1  A    between atoms: C_2  and  N_3
REMARK    2  A    between atoms: N_3  and  C_4
REMARK    3  A    between atoms: C_9  and  N_10
REMARK    4  A    between atoms: C_11  and  C_13
REMARK    5  A    between atoms: N_15  and  C_16
REMARK                            x       y       z     vdW  Elec       q    Type
REMARK                         _______ _______ _______ _____ _____    ______ ____
ROOT
ATOM      1  N   UNL     1       1.429  -1.650   0.000  0.00  0.00    -0.293 N 
ATOM      2  C   UNL     1       1.429  -2.475   0.000  0.00  0.00    +0.132 A 
ATOM      3  N   UNL     1       0.715  -2.888   0.000  0.00  0.00    -0.228 NA
ATOM      4  C   UNL     1       0.715  -3.712   0.000  0.00  0.00    +0.117 A 
ATOM      5  C   UNL     1       1.429  -4.125   0.000  0.00  0.00    +0.093 A 
ATOM      6  C   UNL     1       2.143  -3.712   0.000  0.00  0.00    +0.021 A 
ATOM      7  C   UNL     1       2.143  -2.888   0.000  0.00  0.00    +0.036 A 
ENDROOT
BRANCH   5   8
ATOM      8  N   UNL     1       1.429  -4.950   0.000  0.00  0.00    -0.176 NA
ATOM      9  C   UNL     1       2.143  -5.362   0.000  0.00  0.00    +0.274 C 
ATOM     10  O   UNL     1       2.858  -4.950   0.000  0.00  0.00    -0.270 OA
BRANCH   9  11
ATOM     11  C   UNL     1       2.143  -6.188   0.000  0.00  0.00    +0.209 C 
ATOM     12  O   UNL     1       1.429  -6.600   0.000  0.00  0.00    -0.344 OA
ATOM     13  C   UNL     1       1.429  -7.425   0.000  0.00  0.00    +0.160 C 
ATOM     14  C   UNL     1       2.143  -7.838   0.000  0.00  0.00    +0.105 C 
ATOM     15  N   UNL     1       2.858  -7.425   0.000  0.00  0.00    -0.268 NA
ATOM     16  C   UNL     1       2.858  -6.600   0.000  0.00  0.00    +0.112 C 
BRANCH  15  17
ATOM     17  C   UNL     1       3.572  -7.838   0.000  0.00  0.00    +0.072 C 
ATOM     18  C   UNL     1       4.287  -7.425   0.000  0.00  0.00    +0.019 C 
ENDBRANCH  15  17
ENDBRANCH   9  11
ENDBRANCH   5   8
BRANCH   1  20
ATOM     19  C   UNL     1       0.715  -0.412   0.000  0.00  0.00    +0.023 C 
ATOM     20  C   UNL     1       0.715  -1.238   0.000  0.00  0.00    +0.092 C 
ENDBRANCH   1  20
BRANCH   1  21
ATOM     21  C   UNL     1       2.143  -1.238   0.000  0.00  0.00    +0.092 C 
ATOM     22  C   UNL     1       2.858  -1.650   0.000  0.00  0.00    +0.023 C 
ENDBRANCH   1  21
TORSDOF 5
