REMARK  Name = 
REMARK  3 active torsions:
REMARK  status: ('A' for Active; 'I' for Inactive)
REMARK    1  A    between atoms: N_5  and  C_6
REMARK    2  A    between atoms: C_6  and  C_7
REMARK    3  A    between atoms: N_9  and  C_10
REMARK                            x       y       z     vdW  Elec       q    Type
REMARK                         _______ _______ _______ _____ _____    ______ ____
ROOT
ATOM      1  C   UNL     1       1.033  -4.387   0.000  0.00  0.00    +0.266 C 
ATOM      2  N   UNL     1       0.548  -5.055   0.000  0.00  0.00    -0.206 NA
ATOM      3  O   UNL     1       0.698  -3.634   0.000  0.00  0.00    -0.271 OA
ENDROOT
BRANCH   2   4
ATOM      4  C   UNL     1      -0.272  -4.969   0.000  0.00  0.00    +0.095 C 
ATOM      5  C   UNL     1      -0.608  -4.215   0.000  0.00  0.00    +0.022 C 
ATOM      6  C   UNL     1      -1.428  -4.129   0.000  0.00  0.00    +0.002 C 
ATOM      7  C   UNL     1      -1.913  -4.796   0.000  0.00  0.00    +0.000 C 
ATOM      8  C   UNL     1      -1.577  -5.550   0.000  0.00  0.00    +0.002 C 
ATOM      9  C   UNL     1      -0.757  -5.636   0.000  0.00  0.00    +0.022 C 
ENDBRANCH   2   4
BRANCH   1  10
ATOM     10  C   UNL     1       1.854  -4.474   0.000  0.00  0.00    +0.214 C 
BRANCH  10  14
ATOM     11 BR   UNL     1       2.751  -1.712   0.000  0.00  0.00    -0.046 Br
ATOM     12  C   UNL     1       2.751  -2.537   0.000  0.00  0.00    +0.074 A 
ATOM     13  C   UNL     1       2.084  -3.022   0.000  0.00  0.00    +0.104 A 
ATOM     14  N   UNL     1       2.339  -3.806   0.000  0.00  0.00    -0.239 N 
ATOM     15  N   UNL     1       3.164  -3.806   0.000  0.00  0.00    -0.167 NA
ATOM     16  C   UNL     1       3.419  -3.022   0.000  0.00  0.00    +0.128 A 
ENDBRANCH  10  14
ENDBRANCH   1  10
TORSDOF 3
