REMARK  Name = 
REMARK  3 active torsions:
REMARK  status: ('A' for Active; 'I' for Inactive)
REMARK    1  A    between atoms: C_2  and  C_5
REMARK    2  A    between atoms: N_10  and  C_11
REMARK    3  A    between atoms: C_11  and  C_12
REMARK                            x       y       z     vdW  Elec       q    Type
REMARK                         _______ _______ _______ _____ _____    ______ ____
ROOT
ATOM      1  C   UNL     1       1.429  -2.475   0.000  0.00  0.00    +0.076 A 
ATOM      2  C   UNL     1       0.715  -2.888   0.000  0.00  0.00    +0.040 A 
ATOM      3  C   UNL     1       0.715  -3.712   0.000  0.00  0.00    +0.148 A 
ATOM      4  N   UNL     1       0.000  -4.125   0.000  0.00  0.00    -0.212 NA
ATOM      5  N   UNL     1       1.429  -4.125   0.000  0.00  0.00    -0.228 NA
ATOM      6  C   UNL     1       2.143  -3.712   0.000  0.00  0.00    +0.100 A 
ATOM      7  C   UNL     1       2.143  -2.888   0.000  0.00  0.00    +0.025 A 
ENDROOT
BRANCH   1   9
ATOM      8  F   UNL     1       1.429  -0.825   0.000  0.00  0.00    -0.166 F 
ATOM      9  C   UNL     1       1.429  -1.650   0.000  0.00  0.00    +0.419 C 
ATOM     10  F   UNL     1       2.254  -1.650   0.000  0.00  0.00    -0.166 F 
ATOM     11  F   UNL     1       0.604  -1.650   0.000  0.00  0.00    -0.166 F 
ENDBRANCH   1   9
BRANCH   4  12
ATOM     12  C   UNL     1       0.000  -4.950   0.000  0.00  0.00    +0.181 C 
BRANCH  12  13
ATOM     13  C   UNL     1      -0.715  -5.362   0.000  0.00  0.00    +0.175 C 
ATOM     14  O   UNL     1      -1.429  -4.950   0.000  0.00  0.00    -0.471 OA
ATOM     15  C   UNL     1      -2.143  -5.362   0.000  0.00  0.00    +0.252 C 
ATOM     16  C   UNL     1      -2.143  -6.188   0.000  0.00  0.00    +0.253 C 
ATOM     17  O   UNL     1      -1.429  -6.600   0.000  0.00  0.00    -0.466 OA
ATOM     18  C   UNL     1      -0.715  -6.188   0.000  0.00  0.00    +0.206 C 
ENDBRANCH  12  13
ENDBRANCH   4  12
TORSDOF 3
