REMARK  Name = 
REMARK  2 active torsions:
REMARK  status: ('A' for Active; 'I' for Inactive)
REMARK    1  A    between atoms: C_5  and  C_8
REMARK    2  A    between atoms: C_10  and  C_13
REMARK                            x       y       z     vdW  Elec       q    Type
REMARK                         _______ _______ _______ _____ _____    ______ ____
ROOT
ATOM      1 CL   UNL     1       0.000   0.000   0.000  0.00  0.00    +0.000 Cl
ENDROOT
TORSDOF 0
REMARK  Name = 
REMARK  2 active torsions:
REMARK  status: ('A' for Active; 'I' for Inactive)
REMARK    1  A    between atoms: C_5  and  C_8
REMARK    2  A    between atoms: C_10  and  C_13
REMARK                            x       y       z     vdW  Elec       q    Type
REMARK                         _______ _______ _______ _____ _____    ______ ____
ROOT
ATOM      1  C   UNL     1       3.072   0.697   0.000  0.00  0.00    +0.265 A 
ATOM      2  O   UNL     1       2.404   0.212   0.000  0.00  0.00    -0.335 OA
ATOM      3  N   UNL     1       2.659  -0.572   0.000  0.00  0.00    -0.061 NA
ATOM      4  C   UNL     1       3.484  -0.572   0.000  0.00  0.00    +0.180 A 
ATOM      5  N   UNL     1       3.739   0.212   0.000  0.00  0.00    -0.193 NA
ENDROOT
BRANCH   4   6
ATOM      6  C   UNL     1       3.969  -1.240   0.000  0.00  0.00    +0.062 C 
ATOM      7  C   UNL     1       3.578  -1.966   0.000  0.00  0.00    +0.008 C 
ATOM      8  C   UNL     1       3.902  -2.725   0.000  0.00  0.00    +0.000 C 
ATOM      9  C   UNL     1       4.698  -2.944   0.000  0.00  0.00    +0.000 C 
ATOM     10  C   UNL     1       5.365  -2.459   0.000  0.00  0.00    +0.000 C 
ATOM     11  C   UNL     1       5.402  -1.635   0.000  0.00  0.00    +0.000 C 
ATOM     12  C   UNL     1       4.781  -1.092   0.000  0.00  0.00    +0.008 C 
ENDBRANCH   4   6
BRANCH   1  16
ATOM     13  C   UNL     1       3.072   3.172   0.000  0.00  0.00    +0.121 C 
ATOM     14  N   UNL     1       2.357   2.760   0.000  0.00  0.00    -0.212 NA
ATOM     15  C   UNL     1       2.357   1.935   0.000  0.00  0.00    +0.128 C 
ATOM     16  C   UNL     1       3.072   1.522   0.000  0.00  0.00    +0.211 C 
ATOM     17  O   UNL     1       3.786   1.935   0.000  0.00  0.00    -0.344 OA
ATOM     18  C   UNL     1       3.786   2.760   0.000  0.00  0.00    +0.162 C 
ENDBRANCH   1  16
TORSDOF 2
