REMARK  Name = 
REMARK  5 active torsions:
REMARK  status: ('A' for Active; 'I' for Inactive)
REMARK    1  A    between atoms: O_2  and  C_3
REMARK    2  A    between atoms: C_3  and  C_4
REMARK    3  A    between atoms: C_4  and  N_5
REMARK    4  A    between atoms: C_7  and  C_12
REMARK    5  A    between atoms: N_14  and  C_15
REMARK                            x       y       z     vdW  Elec       q    Type
REMARK                         _______ _______ _______ _____ _____    ______ ____
ROOT
ATOM      1  N   UNL     1       0.138  -2.700   0.000  0.00  0.00    -0.214 N 
ATOM      2  C   UNL     1      -0.576  -3.112   0.000  0.00  0.00    +0.277 A 
ATOM      3  O   UNL     1      -1.290  -2.700   0.000  0.00  0.00    -0.266 OA
ATOM      4  C   UNL     1      -0.576  -3.937   0.000  0.00  0.00    +0.064 A 
ATOM      5  C   UNL     1       0.138  -4.349   0.000  0.00  0.00    +0.030 A 
ATOM      6  C   UNL     1       0.853  -3.937   0.000  0.00  0.00    +0.156 A 
ATOM      7  N   UNL     1       0.853  -3.112   0.000  0.00  0.00    -0.162 NA
ENDROOT
BRANCH   6   8
ATOM      8  C   UNL     1       1.567  -4.349   0.000  0.00  0.00    +0.284 C 
ATOM      9  N   UNL     1       2.282  -3.937   0.000  0.00  0.00    -0.202 NA
ATOM     10  O   UNL     1       1.567  -5.175   0.000  0.00  0.00    -0.267 OA
BRANCH   9  11
ATOM     11  C   UNL     1       2.996  -4.349   0.000  0.00  0.00    +0.096 C 
ATOM     12  C   UNL     1       2.889  -5.167   0.000  0.00  0.00    +0.022 C 
ATOM     13  C   UNL     1       3.391  -5.822   0.000  0.00  0.00    +0.002 C 
ATOM     14  C   UNL     1       4.209  -5.930   0.000  0.00  0.00    +0.000 C 
ATOM     15  C   UNL     1       4.863  -5.427   0.000  0.00  0.00    +0.000 C 
ATOM     16  C   UNL     1       4.971  -4.609   0.000  0.00  0.00    +0.000 C 
ATOM     17  C   UNL     1       4.469  -3.955   0.000  0.00  0.00    +0.002 C 
ATOM     18  C   UNL     1       3.651  -3.847   0.000  0.00  0.00    +0.022 C 
ENDBRANCH   9  11
ENDBRANCH   6   8
BRANCH   1  19
ATOM     19  C   UNL     1       0.138  -1.875   0.000  0.00  0.00    +0.163 C 
BRANCH  19  20
ATOM     20  C   UNL     1      -0.576  -1.462   0.000  0.00  0.00    +0.169 C 
BRANCH  20  22
ATOM     21  C   UNL     1      -1.290  -0.225   0.000  0.00  0.00    +0.174 C 
ATOM     22  O   UNL     1      -0.576  -0.637   0.000  0.00  0.00    -0.349 OA
ENDBRANCH  20  22
ENDBRANCH  19  20
ENDBRANCH   1  19
TORSDOF 5
