REMARK  Name = 
REMARK  4 active torsions:
REMARK  status: ('A' for Active; 'I' for Inactive)
REMARK    1  A    between atoms: C_2  and  C_7
REMARK    2  A    between atoms: N_3  and  C_4
REMARK    3  A    between atoms: C_4  and  C_5
REMARK    4  A    between atoms: C_12  and  N_13
REMARK                            x       y       z     vdW  Elec       q    Type
REMARK                         _______ _______ _______ _____ _____    ______ ____
ROOT
ATOM      1  C   UNL     1       1.429  -1.650   0.000  0.00  0.00    +0.087 A 
ATOM      2  C   UNL     1       0.715  -1.238   0.000  0.00  0.00    +0.136 A 
ATOM      3  N   UNL     1       0.000  -1.650   0.000  0.00  0.00    -0.229 NA
ATOM      4  C   UNL     1       0.000  -2.475   0.000  0.00  0.00    +0.100 A 
ATOM      5  C   UNL     1       0.715  -2.888   0.000  0.00  0.00    +0.021 A 
ATOM      6  C   UNL     1       1.429  -2.475   0.000  0.00  0.00    +0.009 A 
ENDROOT
BRANCH   2   7
ATOM      7  N   UNL     1       0.715  -0.412   0.000  0.00  0.00    -0.288 N 
ATOM      8  C   UNL     1       1.429   0.000   0.000  0.00  0.00    +0.124 C 
ATOM      9  C   UNL     1       1.429   0.825   0.000  0.00  0.00    +0.164 C 
ATOM     10  O   UNL     1       0.715   1.238   0.000  0.00  0.00    -0.350 OA
ATOM     11  C   UNL     1       0.000   0.825   0.000  0.00  0.00    +0.164 C 
ATOM     12  C   UNL     1       0.000   0.000   0.000  0.00  0.00    +0.124 C 
ENDBRANCH   2   7
BRANCH   1  14
ATOM     13  O   UNL     1       2.143  -0.412   0.000  0.00  0.00    -0.268 OA
ATOM     14  C   UNL     1       2.143  -1.238   0.000  0.00  0.00    +0.268 C 
ATOM     15  N   UNL     1       2.858  -1.650   0.000  0.00  0.00    -0.187 NA
BRANCH  15  16
ATOM     16  C   UNL     1       3.572  -1.238   0.000  0.00  0.00    +0.192 C 
BRANCH  16  17
ATOM     17  C   UNL     1       4.287  -1.650   0.000  0.00  0.00    -0.054 C 
ATOM     18  C   UNL     1       5.001  -2.062   0.000  0.00  0.00    -0.012 C 
ENDBRANCH  16  17
ENDBRANCH  15  16
ENDBRANCH   1  14
TORSDOF 4
