REMARK  Name = 
REMARK  5 active torsions:
REMARK  status: ('A' for Active; 'I' for Inactive)
REMARK    1  A    between atoms: N_5  and  C_6
REMARK    2  A    between atoms: C_6  and  C_7
REMARK    3  A    between atoms: C_7  and  N_8
REMARK    4  A    between atoms: C_9  and  C_11
REMARK    5  A    between atoms: C_11  and  C_12
REMARK                            x       y       z     vdW  Elec       q    Type
REMARK                         _______ _______ _______ _____ _____    ______ ____
ROOT
ATOM      1  N   UNL     1       2.143   2.062   0.000  0.00  0.00    -0.204 NA
ATOM      2  C   UNL     1       2.858   2.475   0.000  0.00  0.00    +0.246 C 
ATOM      3  O   UNL     1       2.858   3.300   0.000  0.00  0.00    -0.273 OA
ENDROOT
BRANCH   1   4
ATOM      4  C   UNL     1       1.429   2.475   0.000  0.00  0.00    +0.132 C 
BRANCH   4   5
ATOM      5  C   UNL     1       0.715   2.062   0.000  0.00  0.00    +0.096 C 
BRANCH   5  10
ATOM      6  C   UNL     1      -2.143   3.712   0.000  0.00  0.00    +0.000 C 
ATOM      7  C   UNL     1      -1.429   3.300   0.000  0.00  0.00    +0.003 C 
ATOM      8  C   UNL     1      -1.429   2.475   0.000  0.00  0.00    +0.017 C 
ATOM      9  C   UNL     1      -0.715   2.062   0.000  0.00  0.00    +0.072 C 
ATOM     10  N   UNL     1       0.000   2.475   0.000  0.00  0.00    -0.271 NA
ATOM     11  C   UNL     1       0.000   3.300   0.000  0.00  0.00    +0.072 C 
ATOM     12  C   UNL     1      -0.715   3.712   0.000  0.00  0.00    +0.017 C 
ENDBRANCH   5  10
ENDBRANCH   4   5
ENDBRANCH   1   4
BRANCH   2  13
ATOM     13  C   UNL     1       3.572   2.062   0.000  0.00  0.00    +0.115 C 
BRANCH  13  14
ATOM     14  C   UNL     1       4.287   2.475   0.000  0.00  0.00    +0.015 A 
ATOM     15  C   UNL     1       5.040   2.139   0.000  0.00  0.00    +0.054 A 
ATOM     16  C   UNL     1       5.212   1.333   0.000  0.00  0.00    +0.051 C 
ATOM     17  N   UNL     1       5.593   2.752   0.000  0.00  0.00    -0.253 N 
ATOM     18  C   UNL     1       6.413   2.666   0.000  0.00  0.00    +0.153 C 
ATOM     19  N   UNL     1       5.180   3.467   0.000  0.00  0.00    -0.174 NA
ATOM     20  C   UNL     1       4.373   3.296   0.000  0.00  0.00    +0.077 A 
ATOM     21  C   UNL     1       3.760   3.848   0.000  0.00  0.00    +0.054 C 
ENDBRANCH  13  14
ENDBRANCH   2  13
TORSDOF 5
