REMARK  Name = 
REMARK  4 active torsions:
REMARK  status: ('A' for Active; 'I' for Inactive)
REMARK    1  A    between atoms: N_6  and  C_7
REMARK    2  A    between atoms: C_7  and  C_8
REMARK    3  A    between atoms: N_10  and  C_11
REMARK    4  A    between atoms: C_11  and  C_12
REMARK                            x       y       z     vdW  Elec       q    Type
REMARK                         _______ _______ _______ _____ _____    ______ ____
ROOT
ATOM      1  C   UNL     1       2.102  -1.996   0.000  0.00  0.00    +0.266 C 
ATOM      2  N   UNL     1       2.816  -2.408   0.000  0.00  0.00    -0.201 NA
ATOM      3  O   UNL     1       2.102  -1.171   0.000  0.00  0.00    -0.271 OA
ENDROOT
BRANCH   1   4
ATOM      4  C   UNL     1       1.387  -2.408   0.000  0.00  0.00    +0.213 C 
BRANCH   4   8
ATOM      5  C   UNL     1      -1.454  -1.804   0.000  0.00  0.00    +0.054 C 
ATOM      6  C   UNL     1      -0.633  -1.718   0.000  0.00  0.00    +0.080 A 
ATOM      7  N   UNL     1      -0.081  -2.331   0.000  0.00  0.00    -0.174 NA
ATOM      8  N   UNL     1       0.672  -1.996   0.000  0.00  0.00    -0.246 N 
ATOM      9  C   UNL     1       0.586  -1.175   0.000  0.00  0.00    +0.058 A 
ATOM     10  C   UNL     1       1.199  -0.623   0.000  0.00  0.00    +0.052 C 
ATOM     11  C   UNL     1      -0.221  -1.004   0.000  0.00  0.00    +0.031 A 
ENDBRANCH   4   8
ENDBRANCH   1   4
BRANCH   2  12
ATOM     12  C   UNL     1       3.530  -1.996   0.000  0.00  0.00    +0.145 C 
BRANCH  12  13
ATOM     13  C   UNL     1       4.245  -2.408   0.000  0.00  0.00    +0.137 C 
ATOM     14  O   UNL     1       4.331  -3.229   0.000  0.00  0.00    -0.354 OA
ATOM     15  C   UNL     1       5.138  -3.400   0.000  0.00  0.00    +0.142 C 
ATOM     16  C   UNL     1       5.551  -2.686   0.000  0.00  0.00    +0.035 C 
ATOM     17  C   UNL     1       4.999  -2.073   0.000  0.00  0.00    +0.034 C 
ENDBRANCH  12  13
ENDBRANCH   2  12
TORSDOF 4
