REMARK  Name = 
REMARK  6 active torsions:
REMARK  status: ('A' for Active; 'I' for Inactive)
REMARK    1  A    between atoms: N_1  and  C_11
REMARK    2  A    between atoms: N_2  and  C_10
REMARK    3  A    between atoms: S_4  and  C_8
REMARK    4  A    between atoms: S_4  and  N_9
REMARK    5  A    between atoms: C_11  and  C_12
REMARK    6  A    between atoms: N_17  and  C_20
REMARK                            x       y       z     vdW  Elec       q    Type
REMARK                         _______ _______ _______ _____ _____    ______ ____
ROOT
ATOM      1  C   UNL     1      -4.896  -3.771   0.000  0.00  0.00    +0.269 C 
ATOM      2  O   UNL     1      -4.183  -3.358   0.000  0.00  0.00    -0.271 OA
ATOM      3  N   UNL     1      -5.612  -3.358   0.000  0.00  0.00    -0.178 NA
ENDROOT
BRANCH   3   4
ATOM      4  C   UNL     1      -5.612  -2.533   0.000  0.00  0.00    +0.075 A 
ATOM      5  C   UNL     1      -4.896  -2.121   0.000  0.00  0.00    +0.016 A 
ATOM      6  C   UNL     1      -4.896  -1.296   0.000  0.00  0.00    -0.002 A 
ATOM      7  C   UNL     1      -5.612  -0.883   0.000  0.00  0.00    -0.003 A 
ATOM      8  C   UNL     1      -5.612  -0.058   0.000  0.00  0.00    +0.032 C 
ATOM      9  C   UNL     1      -6.321  -1.296   0.000  0.00  0.00    +0.120 A 
ATOM     10  C   UNL     1      -6.321  -2.121   0.000  0.00  0.00    +0.036 A 
BRANCH   9  11
ATOM     11  S   UNL     1      -7.037  -0.883   0.000  0.00  0.00    +0.063 S 
ATOM     12  O   UNL     1      -6.625  -0.171   0.000  0.00  0.00    -0.153 OA
ATOM     13  O   UNL     1      -7.450  -1.600   0.000  0.00  0.00    -0.153 OA
BRANCH  11  14
ATOM     14  N   UNL     1      -7.750  -0.471   0.000  0.00  0.00    -0.150 NA
ATOM     15  C   UNL     1      -7.750   0.354   0.000  0.00  0.00    +0.128 C 
ATOM     16  C   UNL     1      -8.467   0.767   0.000  0.00  0.00    +0.161 C 
ATOM     17  O   UNL     1      -9.179   0.354   0.000  0.00  0.00    -0.351 OA
ATOM     18  C   UNL     1      -9.179  -0.471   0.000  0.00  0.00    +0.161 C 
ATOM     19  C   UNL     1      -8.467  -0.883   0.000  0.00  0.00    +0.128 C 
ENDBRANCH  11  14
ENDBRANCH   9  11
ENDBRANCH   3   4
BRANCH   1  20
ATOM     20  C   UNL     1      -4.896  -4.596   0.000  0.00  0.00    +0.201 C 
BRANCH  20  21
ATOM     21  N   UNL     1      -4.183  -5.008   0.000  0.00  0.00    -0.238 N 
ATOM     22  C   UNL     1      -3.467  -4.596   0.000  0.00  0.00    +0.294 A 
ATOM     23  O   UNL     1      -3.467  -3.771   0.000  0.00  0.00    -0.264 OA
ATOM     24  C   UNL     1      -2.754  -5.008   0.000  0.00  0.00    +0.213 A 
ATOM     25  C   UNL     1      -2.754  -5.833   0.000  0.00  0.00    +0.116 A 
ATOM     26  N   UNL     1      -3.467  -6.246   0.000  0.00  0.00    -0.255 N 
ATOM     27  F   UNL     1      -2.038  -4.596   0.000  0.00  0.00    -0.198 F 
ATOM     28  C   UNL     1      -4.183  -5.833   0.000  0.00  0.00    +0.336 A 
ATOM     29  O   UNL     1      -4.896  -6.246   0.000  0.00  0.00    -0.246 OA
BRANCH  26  30
ATOM     30  C   UNL     1      -3.467  -7.071   0.000  0.00  0.00    +0.208 C 
ATOM     31  C   UNL     1      -2.800  -7.558   0.000  0.00  0.00    +0.057 C 
ATOM     32  C   UNL     1      -3.054  -8.342   0.000  0.00  0.00    +0.037 C 
ATOM     33  C   UNL     1      -3.879  -8.342   0.000  0.00  0.00    +0.144 C 
ATOM     34  O   UNL     1      -4.133  -7.558   0.000  0.00  0.00    -0.335 OA
ENDBRANCH  26  30
ENDBRANCH  20  21
ENDBRANCH   1  20
TORSDOF 6
