REMARK  Name = 
REMARK  4 active torsions:
REMARK  status: ('A' for Active; 'I' for Inactive)
REMARK    1  A    between atoms: N_3  and  C_4
REMARK    2  A    between atoms: C_4  and  C_5
REMARK    3  A    between atoms: C_5  and  N_10
REMARK    4  A    between atoms: N_16  and  C_17
REMARK                            x       y       z     vdW  Elec       q    Type
REMARK                         _______ _______ _______ _____ _____    ______ ____
ROOT
ATOM      1  C   UNL     1       0.715  -2.888   0.000  0.00  0.00    +0.132 C 
ENDROOT
BRANCH   1   2
ATOM      2  C   UNL     1       0.000  -2.475   0.000  0.00  0.00    +0.076 C 
ATOM      3  C   UNL     1       0.485  -1.808   0.000  0.00  0.00    +0.074 C 
ATOM      4  S   UNL     1       0.000  -1.140   0.000  0.00  0.00    -0.139 S 
ATOM      5  C   UNL     1      -0.785  -1.395   0.000  0.00  0.00    +0.059 C 
ATOM      6  C   UNL     1      -0.785  -2.220   0.000  0.00  0.00    +0.029 C 
BRANCH   2   7
ATOM      7  N   UNL     1      -0.336  -3.229   0.000  0.00  0.00    -0.268 NA
ATOM      8  C   UNL     1      -1.156  -3.315   0.000  0.00  0.00    +0.105 C 
ATOM      9  C   UNL     1      -1.492  -4.069   0.000  0.00  0.00    +0.159 C 
ATOM     10  O   UNL     1      -1.007  -4.736   0.000  0.00  0.00    -0.351 OA
ATOM     11  C   UNL     1      -0.186  -4.650   0.000  0.00  0.00    +0.159 C 
ATOM     12  C   UNL     1       0.149  -3.896   0.000  0.00  0.00    +0.105 C 
ENDBRANCH   2   7
ENDBRANCH   1   2
BRANCH   1  16
ATOM     13  O   UNL     1       2.143  -3.712   0.000  0.00  0.00    -0.249 OA
ATOM     14  C   UNL     1       2.143  -2.888   0.000  0.00  0.00    +0.344 C 
ATOM     15  N   UNL     1       2.858  -2.475   0.000  0.00  0.00    -0.159 NA
ATOM     16  N   UNL     1       1.429  -2.475   0.000  0.00  0.00    -0.186 NA
BRANCH  15  17
ATOM     17  C   UNL     1       3.572  -2.888   0.000  0.00  0.00    +0.094 A 
ATOM     18  C   UNL     1       3.572  -3.712   0.000  0.00  0.00    +0.115 A 
ATOM     19  N   UNL     1       4.287  -4.125   0.000  0.00  0.00    -0.241 NA
ATOM     20  C   UNL     1       5.001  -3.712   0.000  0.00  0.00    +0.099 A 
ATOM     21  C   UNL     1       5.001  -2.888   0.000  0.00  0.00    +0.022 A 
ATOM     22  C   UNL     1       4.287  -2.475   0.000  0.00  0.00    +0.020 A 
ENDBRANCH  15  17
ENDBRANCH   1  16
TORSDOF 4
