REMARK  Name = 
REMARK  3 active torsions:
REMARK  status: ('A' for Active; 'I' for Inactive)
REMARK    1  A    between atoms: C_4  and  N_5
REMARK    2  A    between atoms: N_8  and  C_9
REMARK    3  A    between atoms: C_9  and  C_10
REMARK                            x       y       z     vdW  Elec       q    Type
REMARK                         _______ _______ _______ _____ _____    ______ ____
ROOT
ATOM      1  N   UNL     1       3.163  -2.952   0.000  0.00  0.00    -0.153 NA
ATOM      2  C   UNL     1       3.878  -3.364   0.000  0.00  0.00    +0.344 C 
ATOM      3  N   UNL     1       4.592  -2.952   0.000  0.00  0.00    -0.177 NA
ATOM      4  O   UNL     1       3.878  -4.189   0.000  0.00  0.00    -0.249 OA
ENDROOT
BRANCH   1   9
ATOM      5  C   UNL     1       0.323  -3.556   0.000  0.00  0.00    +0.053 C 
ATOM      6  C   UNL     1       1.143  -3.642   0.000  0.00  0.00    +0.069 A 
ATOM      7  N   UNL     1       1.556  -4.356   0.000  0.00  0.00    -0.212 NA
ATOM      8  S   UNL     1       2.363  -4.185   0.000  0.00  0.00    +0.030 S 
ATOM      9  C   UNL     1       2.449  -3.364   0.000  0.00  0.00    +0.123 A 
ATOM     10  C   UNL     1       1.695  -3.029   0.000  0.00  0.00    +0.040 A 
ENDBRANCH   1   9
BRANCH   3  11
ATOM     11  C   UNL     1       5.307  -3.364   0.000  0.00  0.00    +0.201 C 
BRANCH  11  12
ATOM     12  C   UNL     1       6.021  -2.952   0.000  0.00  0.00    +0.248 C 
ATOM     13  N   UNL     1       6.736  -3.364   0.000  0.00  0.00    -0.278 N 
ATOM     14  C   UNL     1       6.822  -4.185   0.000  0.00  0.00    +0.094 C 
ATOM     15  C   UNL     1       7.629  -4.356   0.000  0.00  0.00    +0.023 C 
ATOM     16  C   UNL     1       8.041  -3.642   0.000  0.00  0.00    +0.023 C 
ATOM     17  C   UNL     1       7.489  -3.029   0.000  0.00  0.00    +0.094 C 
ATOM     18  O   UNL     1       6.021  -2.127   0.000  0.00  0.00    -0.273 OA
ENDBRANCH  11  12
ENDBRANCH   3  11
TORSDOF 3
