REMARK  Name = 
REMARK  2 active torsions:
REMARK  status: ('A' for Active; 'I' for Inactive)
REMARK    1  A    between atoms: C_2  and  CA_4
REMARK    2  A    between atoms: C_6  and  N_10
REMARK                            x       y       z     vdW  Elec       q    Type
REMARK                         _______ _______ _______ _____ _____    ______ ____
ROOT
ATOM      1  CA  UNL     1       0.715  -1.238   0.000  0.00  0.00    +0.162 A 
ATOM      2  N   UNL     1       0.000  -1.650   0.000  0.00  0.00    -0.237 NA
ATOM      3  C   UNL     1       0.000  -2.475   0.000  0.00  0.00    +0.100 A 
ATOM      4  C   UNL     1       0.715  -2.888   0.000  0.00  0.00    +0.035 A 
ATOM      5  C   UNL     1       1.429  -2.475   0.000  0.00  0.00    +0.051 A 
ATOM      6  C   UNL     1       1.429  -1.650   0.000  0.00  0.00    +0.040 A 
ENDROOT
BRANCH   5   7
ATOM      7  N   UNL     1       2.143  -2.888   0.000  0.00  0.00    -0.303 N 
ATOM      8  C   UNL     1       2.143  -3.712   0.000  0.00  0.00    +0.123 C 
ATOM      9  C   UNL     1       2.858  -4.125   0.000  0.00  0.00    +0.164 C 
ATOM     10  O   UNL     1       3.572  -3.712   0.000  0.00  0.00    -0.350 OA
ATOM     11  C   UNL     1       3.572  -2.888   0.000  0.00  0.00    +0.164 C 
ATOM     12  C   UNL     1       2.858  -2.475   0.000  0.00  0.00    +0.123 C 
ENDBRANCH   5   7
BRANCH   1  14
ATOM     13  O   UNL     1       0.000   0.000   0.000  0.00  0.00    -0.239 OA
ATOM     14  C   UNL     1       0.715  -0.412   0.000  0.00  0.00    +0.405 C 
ATOM     15  OXT UNL     1       1.429   0.000   0.000  0.00  0.00    -0.239 OA
ENDBRANCH   1  14
TORSDOF 2
