REMARK  Name = 
REMARK  5 active torsions:
REMARK  status: ('A' for Active; 'I' for Inactive)
REMARK    1  A    between atoms: C_3  and  C_5
REMARK    2  A    between atoms: C_5  and  N_6
REMARK    3  A    between atoms: C_9  and  N_12
REMARK    4  A    between atoms: C_13  and  C_15
REMARK    5  A    between atoms: C_15  and  N_16
REMARK                            x       y       z     vdW  Elec       q    Type
REMARK                         _______ _______ _______ _____ _____    ______ ____
ROOT
ATOM      1  N   UNL     1      -2.143  -1.238   0.000  0.00  0.00    -0.265 NA
ATOM      2  C   UNL     1      -2.858  -1.650   0.000  0.00  0.00    +0.074 C 
ATOM      3  C   UNL     1      -2.858  -2.475   0.000  0.00  0.00    +0.039 C 
ATOM      4  C   UNL     1      -2.143  -2.888   0.000  0.00  0.00    +0.098 C 
ATOM      5  C   UNL     1      -1.429  -2.475   0.000  0.00  0.00    +0.039 C 
ATOM      6  C   UNL     1      -1.429  -1.650   0.000  0.00  0.00    +0.074 C 
ENDROOT
BRANCH   4   7
ATOM      7  N   UNL     1      -2.143  -3.712   0.000  0.00  0.00    -0.205 NA
ATOM      8  C   UNL     1      -2.858  -4.125   0.000  0.00  0.00    +0.264 C 
ATOM      9  O   UNL     1      -3.572  -3.712   0.000  0.00  0.00    -0.271 OA
BRANCH   8  10
ATOM     10  C   UNL     1      -2.858  -4.950   0.000  0.00  0.00    +0.196 C 
BRANCH  10  11
ATOM     11  N   UNL     1      -2.143  -5.362   0.000  0.00  0.00    -0.285 N 
ATOM     12  C   UNL     1      -2.143  -6.188   0.000  0.00  0.00    +0.261 A 
ATOM     13  O   UNL     1      -2.858  -6.600   0.000  0.00  0.00    -0.267 OA
ATOM     14  C   UNL     1      -1.429  -6.600   0.000  0.00  0.00    +0.061 A 
ATOM     15  C   UNL     1      -0.715  -6.188   0.000  0.00  0.00    +0.006 A 
ATOM     16  C   UNL     1      -0.715  -5.362   0.000  0.00  0.00    +0.019 A 
ATOM     17  C   UNL     1      -1.429  -4.950   0.000  0.00  0.00    +0.079 A 
ENDBRANCH  10  11
ENDBRANCH   8  10
ENDBRANCH   4   7
BRANCH   1  18
ATOM     18  C   UNL     1      -2.143  -0.412   0.000  0.00  0.00    +0.160 C 
BRANCH  18  21
ATOM     19  C   UNL     1      -3.572   1.238   0.000  0.00  0.00    +0.139 C 
ATOM     20  N   UNL     1      -2.858   0.825   0.000  0.00  0.00    -0.202 NA
ATOM     21  C   UNL     1      -2.858   0.000   0.000  0.00  0.00    +0.258 C 
ATOM     22  O   UNL     1      -3.572  -0.412   0.000  0.00  0.00    -0.272 OA
ENDBRANCH  18  21
ENDBRANCH   1  18
TORSDOF 5
