REMARK  Name = 
REMARK  5 active torsions:
REMARK  status: ('A' for Active; 'I' for Inactive)
REMARK    1  A    between atoms: C_2  and  C_3
REMARK    2  A    between atoms: C_2  and  N_9
REMARK    3  A    between atoms: C_3  and  N_4
REMARK    4  A    between atoms: N_9  and  C_10
REMARK    5  A    between atoms: C_10  and  C_11
REMARK                            x       y       z     vdW  Elec       q    Type
REMARK                         _______ _______ _______ _____ _____    ______ ____
ROOT
ATOM      1  C   UNL     1       1.429  -1.650   0.000  0.00  0.00    +0.021 C 
ATOM      2  C   UNL     1       1.429  -2.475   0.000  0.00  0.00    +0.097 C 
ENDROOT
BRANCH   2   3
ATOM      3  N   UNL     1       2.143  -2.888   0.000  0.00  0.00    -0.215 NA
BRANCH   3   4
ATOM      4  C   UNL     1       2.858  -2.475   0.000  0.00  0.00    +0.118 C 
BRANCH   4   5
ATOM      5  C   UNL     1       3.572  -2.888   0.000  0.00  0.00    +0.133 C 
ATOM      6  O   UNL     1       3.572  -3.712   0.000  0.00  0.00    -0.355 OA
ATOM      7  C   UNL     1       4.287  -4.125   0.000  0.00  0.00    +0.142 C 
ATOM      8  C   UNL     1       5.001  -3.712   0.000  0.00  0.00    +0.032 C 
ATOM      9  C   UNL     1       5.001  -2.888   0.000  0.00  0.00    +0.005 C 
ATOM     10  C   UNL     1       4.287  -2.475   0.000  0.00  0.00    +0.031 C 
ENDBRANCH   4   5
ENDBRANCH   3   4
ENDBRANCH   2   3
BRANCH   2  11
ATOM     11  C   UNL     1       0.715  -2.888   0.000  0.00  0.00    +0.145 C 
BRANCH  11  12
ATOM     12  N   UNL     1       0.000  -2.475   0.000  0.00  0.00    -0.248 N 
ATOM     13  N   UNL     1      -0.086  -1.655   0.000  0.00  0.00    -0.168 NA
ATOM     14  C   UNL     1      -0.893  -1.483   0.000  0.00  0.00    +0.122 A 
ATOM     15  C   UNL     1      -1.306  -2.197   0.000  0.00  0.00    +0.043 A 
ATOM     16  C   UNL     1      -0.754  -2.811   0.000  0.00  0.00    +0.097 A 
ENDBRANCH  11  12
ENDBRANCH   2  11
TORSDOF 5
