REMARK  Name = 
REMARK  4 active torsions:
REMARK  status: ('A' for Active; 'I' for Inactive)
REMARK    1  A    between atoms: C_2  and  N_3
REMARK    2  A    between atoms: N_6  and  C_9
REMARK    3  A    between atoms: C_9  and  C_11
REMARK    4  A    between atoms: C_11  and  N_12
REMARK                            x       y       z     vdW  Elec       q    Type
REMARK                         _______ _______ _______ _____ _____    ______ ____
ROOT
ATOM      1  C   UNL     1       1.429   1.650   0.000  0.00  0.00    +0.133 C 
ENDROOT
BRANCH   1   2
ATOM      2  N   UNL     1       2.143   2.062   0.000  0.00  0.00    -0.185 NA
ATOM      3  C   UNL     1       2.858   1.650   0.000  0.00  0.00    +0.345 C 
ATOM      4  N   UNL     1       3.572   2.062   0.000  0.00  0.00    -0.139 NA
ATOM      5  C   UNL     1       4.287   1.650   0.000  0.00  0.00    +0.197 A 
ATOM      6  N   UNL     1       4.373   0.830   0.000  0.00  0.00    -0.060 NA
ATOM      7  O   UNL     1       5.180   0.658   0.000  0.00  0.00    -0.356 OA
ATOM      8  C   UNL     1       5.593   1.373   0.000  0.00  0.00    +0.156 A 
ATOM      9  C   UNL     1       6.413   1.459   0.000  0.00  0.00    +0.075 C 
ATOM     10  C   UNL     1       5.040   1.986   0.000  0.00  0.00    +0.075 A 
ATOM     11  O   UNL     1       2.858   0.825   0.000  0.00  0.00    -0.249 OA
ENDBRANCH   1   2
BRANCH   1  12
ATOM     12  C   UNL     1       0.715   2.062   0.000  0.00  0.00    +0.079 C 
ATOM     13  C   UNL     1       0.715   2.888   0.000  0.00  0.00    +0.019 C 
BRANCH  12  17
ATOM     14  N   UNL     1      -1.429   0.825   0.000  0.00  0.00    -0.270 NA
ATOM     15  C   UNL     1      -0.715   0.412   0.000  0.00  0.00    +0.090 C 
ATOM     16  C   UNL     1       0.000   0.825   0.000  0.00  0.00    +0.090 C 
ATOM     17  N   UNL     1       0.000   1.650   0.000  0.00  0.00    -0.270 NA
ATOM     18  C   UNL     1      -0.715   2.062   0.000  0.00  0.00    +0.090 C 
ATOM     19  C   UNL     1      -1.429   1.650   0.000  0.00  0.00    +0.090 C 
BRANCH  14  21
ATOM     20  C   UNL     1      -2.143  -0.412   0.000  0.00  0.00    +0.019 C 
ATOM     21  C   UNL     1      -2.143   0.412   0.000  0.00  0.00    +0.072 C 
ENDBRANCH  14  21
ENDBRANCH  12  17
ENDBRANCH   1  12
TORSDOF 4
