REMARK  Name = 
REMARK  7 active torsions:
REMARK  status: ('A' for Active; 'I' for Inactive)
REMARK    1  A    between atoms: C_2  and  C_3
REMARK    2  A    between atoms: C_3  and  C_4
REMARK    3  A    between atoms: C_4  and  S_5
REMARK    4  A    between atoms: S_5  and  N_8
REMARK    5  A    between atoms: N_8  and  C_9
REMARK    6  A    between atoms: C_9  and  C_10
REMARK    7  A    between atoms: C_10  and  C_13
REMARK                            x       y       z     vdW  Elec       q    Type
REMARK                         _______ _______ _______ _____ _____    ______ ____
ROOT
ATOM      1  C   UNL     1       0.447  -0.537   0.000  0.00  0.00    +0.121 C 
ENDROOT
BRANCH   1   2
ATOM      2  C   UNL     1       1.079  -1.067   0.000  0.00  0.00    +0.053 C 
ATOM      3  C   UNL     1       0.667  -1.782   0.000  0.00  0.00    +0.007 C 
ATOM      4  C   UNL     1       1.492  -1.782   0.000  0.00  0.00    +0.007 C 
BRANCH   2   5
ATOM      5  C   UNL     1       1.711  -0.537   0.000  0.00  0.00    +0.060 A 
ATOM      6  N   UNL     1       2.487  -0.819   0.000  0.00  0.00    -0.248 NA
ATOM      7  C   UNL     1       3.119  -0.289   0.000  0.00  0.00    +0.098 A 
ATOM      8  C   UNL     1       2.975   0.523   0.000  0.00  0.00    +0.021 A 
ATOM      9  C   UNL     1       2.200   0.806   0.000  0.00  0.00    +0.003 A 
ATOM     10  C   UNL     1       1.568   0.275   0.000  0.00  0.00    +0.015 A 
ENDBRANCH   2   5
ENDBRANCH   1   2
BRANCH   1  11
ATOM     11  N   UNL     1      -0.328  -0.819   0.000  0.00  0.00    -0.082 NA
BRANCH  11  12
ATOM     12  S   UNL     1      -0.960  -0.289   0.000  0.00  0.00    +0.057 S 
ATOM     13  O   UNL     1      -0.430   0.343   0.000  0.00  0.00    -0.156 OA
ATOM     14  O   UNL     1      -1.490  -0.921   0.000  0.00  0.00    -0.156 OA
BRANCH  12  15
ATOM     15  C   UNL     1      -1.592   0.241   0.000  0.00  0.00    +0.171 C 
BRANCH  15  16
ATOM     16  C   UNL     1      -2.367  -0.041   0.000  0.00  0.00    +0.027 C 
BRANCH  16  18
ATOM     17  C   UNL     1      -3.774   0.207   0.000  0.00  0.00    +0.000 C 
ATOM     18  C   UNL     1      -2.999   0.489   0.000  0.00  0.00    +0.002 C 
ENDBRANCH  16  18
ENDBRANCH  15  16
ENDBRANCH  12  15
ENDBRANCH  11  12
ENDBRANCH   1  11
TORSDOF 7
