REMARK  Name = 
REMARK  6 active torsions:
REMARK  status: ('A' for Active; 'I' for Inactive)
REMARK    1  A    between atoms: C_2  and  C_3
REMARK    2  A    between atoms: N_7  and  C_8
REMARK    3  A    between atoms: C_8  and  C_9
REMARK    4  A    between atoms: C_9  and  N_10
REMARK    5  A    between atoms: N_10  and  C_11
REMARK    6  A    between atoms: C_11  and  C_12
REMARK                            x       y       z     vdW  Elec       q    Type
REMARK                         _______ _______ _______ _____ _____    ______ ____
ROOT
ATOM      1  C   UNL     1       1.429  -2.475   0.000  0.00  0.00    +0.113 C 
ENDROOT
BRANCH   1   2
ATOM      2  C   UNL     1       0.715  -2.888   0.000  0.00  0.00    +0.128 C 
BRANCH   2   4
ATOM      3  C   UNL     1      -0.754  -2.811   0.000  0.00  0.00    +0.143 A 
ATOM      4  N   UNL     1       0.000  -2.475   0.000  0.00  0.00    -0.295 N 
ATOM      5  C   UNL     1      -0.086  -1.655   0.000  0.00  0.00    +0.202 A 
ATOM      6  N   UNL     1      -0.893  -1.483   0.000  0.00  0.00    -0.126 NA
ATOM      7  N   UNL     1      -1.306  -2.197   0.000  0.00  0.00    -0.133 NA
BRANCH   3   9
ATOM      8  C   UNL     1      -1.710  -3.873   0.000  0.00  0.00    +0.008 C 
ATOM      9  C   UNL     1      -0.925  -3.618   0.000  0.00  0.00    +0.066 C 
ENDBRANCH   3   9
ENDBRANCH   2   4
ENDBRANCH   1   2
BRANCH   1  10
ATOM     10  N   UNL     1       2.143  -2.888   0.000  0.00  0.00    -0.216 NA
BRANCH  10  11
ATOM     11  C   UNL     1       2.858  -2.475   0.000  0.00  0.00    +0.089 C 
BRANCH  11  12
ATOM     12  C   UNL     1       3.572  -2.888   0.000  0.00  0.00    +0.017 C 
ATOM     13  C   UNL     1       3.572  -3.712   0.000  0.00  0.00    +0.001 C 
ATOM     14  C   UNL     1       4.287  -4.125   0.000  0.00  0.00    +0.000 C 
ATOM     15  C   UNL     1       5.001  -3.712   0.000  0.00  0.00    +0.000 C 
ATOM     16  C   UNL     1       5.716  -4.125   0.000  0.00  0.00    +0.000 C 
ATOM     17  C   UNL     1       5.001  -2.888   0.000  0.00  0.00    +0.000 C 
ATOM     18  C   UNL     1       4.287  -2.475   0.000  0.00  0.00    +0.001 C 
ENDBRANCH  11  12
ENDBRANCH  10  11
ENDBRANCH   1  10
TORSDOF 6
