REMARK  Name = 
REMARK  7 active torsions:
REMARK  status: ('A' for Active; 'I' for Inactive)
REMARK    1  A    between atoms: N_1  and  C_8
REMARK    2  A    between atoms: N_2  and  C_7
REMARK    3  A    between atoms: C_8  and  C_9
REMARK    4  A    between atoms: N_12  and  C_16
REMARK    5  A    between atoms: O_17  and  C_18
REMARK    6  A    between atoms: O_17  and  C_19
REMARK    7  A    between atoms: C_19  and  C_24
REMARK                            x       y       z     vdW  Elec       q    Type
REMARK                         _______ _______ _______ _____ _____    ______ ____
ROOT
ATOM      1  C   UNL     1       2.142  -5.362   0.000  0.00  0.00    +0.269 C 
ATOM      2  O   UNL     1       2.854  -4.950   0.000  0.00  0.00    -0.271 OA
ATOM      3  N   UNL     1       1.425  -4.950   0.000  0.00  0.00    -0.178 NA
ENDROOT
BRANCH   3   4
ATOM      4  C   UNL     1       1.425  -4.125   0.000  0.00  0.00    +0.074 A 
ATOM      5  C   UNL     1       2.142  -3.712   0.000  0.00  0.00    +0.020 A 
ATOM      6  C   UNL     1       2.142  -2.888   0.000  0.00  0.00    +0.038 A 
ATOM      7  C   UNL     1       1.425  -2.475   0.000  0.00  0.00    +0.139 A 
ATOM      8  C   UNL     1       0.713  -2.888   0.000  0.00  0.00    +0.038 A 
ATOM      9  C   UNL     1       0.713  -3.712   0.000  0.00  0.00    +0.020 A 
BRANCH   7  10
ATOM     10  O   UNL     1       1.425  -1.650   0.000  0.00  0.00    -0.471 OA
BRANCH  10  11
ATOM     11  C   UNL     1       0.713  -1.238   0.000  0.00  0.00    +0.232 C 
BRANCH  11  12
ATOM     12  C   UNL     1       0.713  -0.412   0.000  0.00  0.00    +0.021 A 
ATOM     13  C   UNL     1       1.425   0.000   0.000  0.00  0.00    -0.001 A 
ATOM     14  C   UNL     1       1.425   0.825   0.000  0.00  0.00    -0.000 A 
ATOM     15  C   UNL     1       0.713   1.238   0.000  0.00  0.00    -0.000 A 
ATOM     16  C   UNL     1       0.000   0.825   0.000  0.00  0.00    -0.000 A 
ATOM     17  C   UNL     1       0.000   0.000   0.000  0.00  0.00    -0.001 A 
ENDBRANCH  11  12
ENDBRANCH  10  11
ENDBRANCH   7  10
ENDBRANCH   3   4
BRANCH   1  18
ATOM     18  C   UNL     1       2.142  -6.188   0.000  0.00  0.00    +0.201 C 
BRANCH  18  19
ATOM     19  N   UNL     1       2.854  -6.600   0.000  0.00  0.00    -0.238 N 
ATOM     20  C   UNL     1       3.571  -6.188   0.000  0.00  0.00    +0.294 A 
ATOM     21  O   UNL     1       3.571  -5.362   0.000  0.00  0.00    -0.264 OA
ATOM     22  C   UNL     1       4.283  -6.600   0.000  0.00  0.00    +0.213 A 
ATOM     23  F   UNL     1       5.000  -6.188   0.000  0.00  0.00    -0.198 F 
ATOM     24  C   UNL     1       4.283  -7.425   0.000  0.00  0.00    +0.116 A 
ATOM     25  N   UNL     1       3.571  -7.838   0.000  0.00  0.00    -0.255 N 
ATOM     26  C   UNL     1       2.854  -7.425   0.000  0.00  0.00    +0.336 A 
ATOM     27  O   UNL     1       2.142  -7.838   0.000  0.00  0.00    -0.246 OA
BRANCH  25  28
ATOM     28  C   UNL     1       3.571  -8.662   0.000  0.00  0.00    +0.208 C 
ATOM     29  C   UNL     1       4.237  -9.146   0.000  0.00  0.00    +0.057 C 
ATOM     30  C   UNL     1       3.983  -9.929   0.000  0.00  0.00    +0.037 C 
ATOM     31  C   UNL     1       3.158  -9.929   0.000  0.00  0.00    +0.144 C 
ATOM     32  O   UNL     1       2.904  -9.146   0.000  0.00  0.00    -0.335 OA
ENDBRANCH  25  28
ENDBRANCH  18  19
ENDBRANCH   1  18
TORSDOF 7
