REMARK  Name = 
REMARK  5 active torsions:
REMARK  status: ('A' for Active; 'I' for Inactive)
REMARK    1  A    between atoms: C_7  and  C_8
REMARK    2  A    between atoms: C_8  and  C_9
REMARK    3  A    between atoms: N_11  and  S_12
REMARK    4  A    between atoms: S_12  and  C_15
REMARK    5  A    between atoms: C_15  and  C_16
REMARK                            x       y       z     vdW  Elec       q    Type
REMARK                         _______ _______ _______ _____ _____    ______ ____
ROOT
ATOM      1  C   UNL     1       4.029   5.507   0.000  0.00  0.00    +0.267 C 
ATOM      2  N   UNL     1       4.029   4.682   0.000  0.00  0.00    -0.063 NA
ATOM      3  O   UNL     1       4.744   5.920   0.000  0.00  0.00    -0.271 OA
ENDROOT
BRANCH   2   4
ATOM      4  S   UNL     1       4.744   4.270   0.000  0.00  0.00    +0.076 S 
ATOM      5  O   UNL     1       5.156   4.984   0.000  0.00  0.00    -0.153 OA
ATOM      6  O   UNL     1       4.331   3.555   0.000  0.00  0.00    -0.153 OA
BRANCH   4   7
ATOM      7  C   UNL     1       5.458   3.857   0.000  0.00  0.00    +0.174 C 
BRANCH   7   8
ATOM      8  C   UNL     1       5.458   3.032   0.000  0.00  0.00    +0.026 C 
ATOM      9  C   UNL     1       5.046   2.318   0.000  0.00  0.00    +0.002 C 
ATOM     10  C   UNL     1       5.871   2.318   0.000  0.00  0.00    +0.002 C 
ENDBRANCH   7   8
ENDBRANCH   4   7
ENDBRANCH   2   4
BRANCH   1  11
ATOM     11  C   UNL     1       3.315   5.920   0.000  0.00  0.00    +0.119 C 
BRANCH  11  14
ATOM     12  C   UNL     1       1.863   6.975   0.000  0.00  0.00    +0.055 C 
ATOM     13  C   UNL     1       2.647   7.230   0.000  0.00  0.00    +0.097 A 
ATOM     14  C   UNL     1       3.315   6.745   0.000  0.00  0.00    +0.037 A 
ATOM     15  C   UNL     1       3.982   7.230   0.000  0.00  0.00    +0.151 A 
ATOM     16  C   UNL     1       4.767   6.975   0.000  0.00  0.00    +0.075 C 
ATOM     17  O   UNL     1       3.727   8.014   0.000  0.00  0.00    -0.358 OA
ATOM     18  N   UNL     1       2.902   8.014   0.000  0.00  0.00    -0.082 NA
ENDBRANCH  11  14
ENDBRANCH   1  11
TORSDOF 5
