REMARK  Name = 
REMARK  2 active torsions:
REMARK  status: ('A' for Active; 'I' for Inactive)
REMARK    1  A    between atoms: C_5  and  C_6
REMARK    2  A    between atoms: C_9  and  C_11
REMARK                            x       y       z     vdW  Elec       q    Type
REMARK                         _______ _______ _______ _____ _____    ______ ____
ROOT
ATOM      1 CL   UNL     1       0.000   0.000   0.000  0.00  0.00    +0.000 Cl
ENDROOT
TORSDOF 0
REMARK  Name = 
REMARK  2 active torsions:
REMARK  status: ('A' for Active; 'I' for Inactive)
REMARK    1  A    between atoms: C_5  and  C_6
REMARK    2  A    between atoms: C_9  and  C_11
REMARK                            x       y       z     vdW  Elec       q    Type
REMARK                         _______ _______ _______ _____ _____    ______ ____
ROOT
ATOM      1  C   UNL     1       4.224   2.478   0.000  0.00  0.00    +0.154 C 
ATOM      2  N   UNL     1       4.224   1.653   0.000  0.00  0.00    -0.248 N 
ATOM      3  N   UNL     1       3.557   1.168   0.000  0.00  0.00    -0.173 NA
ATOM      4  C   UNL     1       3.812   0.383   0.000  0.00  0.00    +0.086 A 
ATOM      5  C   UNL     1       4.637   0.383   0.000  0.00  0.00    +0.091 A 
ATOM      6  C   UNL     1       4.892   1.168   0.000  0.00  0.00    +0.101 A 
ENDROOT
BRANCH   4   7
ATOM      7  C   UNL     1       3.327  -0.284   0.000  0.00  0.00    +0.060 C 
ATOM      8  C   UNL     1       2.506  -0.198   0.000  0.00  0.00    +0.095 C 
ATOM      9  N   UNL     1       2.022  -0.866   0.000  0.00  0.00    -0.218 NA
ATOM     10  C   UNL     1       2.357  -1.619   0.000  0.00  0.00    +0.089 C 
ATOM     11  C   UNL     1       3.178  -1.706   0.000  0.00  0.00    +0.019 C 
ATOM     12  C   UNL     1       3.663  -1.038   0.000  0.00  0.00    +0.009 C 
ENDBRANCH   4   7
BRANCH   5  13
ATOM     13  C   UNL     1       5.122  -0.284   0.000  0.00  0.00    +0.287 C 
ATOM     14  N   UNL     1       5.942  -0.198   0.000  0.00  0.00    -0.084 NA
ATOM     15  O   UNL     1       4.786  -1.038   0.000  0.00  0.00    -0.267 OA
ENDBRANCH   5  13
TORSDOF 2
