REMARK  Name = 
REMARK  4 active torsions:
REMARK  status: ('A' for Active; 'I' for Inactive)
REMARK    1  A    between atoms: N_9  and  C_10
REMARK    2  A    between atoms: C_10  and  C_11
REMARK    3  A    between atoms: N_13  and  C_14
REMARK    4  A    between atoms: C_14  and  C_15
REMARK                            x       y       z     vdW  Elec       q    Type
REMARK                         _______ _______ _______ _____ _____    ______ ____
ROOT
ATOM      1  C   UNL     1      -2.143   0.412   0.000  0.00  0.00    +0.033 C 
ATOM      2  C   UNL     1      -1.429   0.825   0.000  0.00  0.00    -0.003 A 
ATOM      3  C   UNL     1      -0.715   0.412   0.000  0.00  0.00    +0.096 A 
ATOM      4  N   UNL     1       0.000   0.825   0.000  0.00  0.00    -0.228 NA
ATOM      5  C   UNL     1       0.000   1.650   0.000  0.00  0.00    +0.156 A 
ATOM      6  N   UNL     1       0.715   2.062   0.000  0.00  0.00    -0.142 NA
ATOM      7  C   UNL     1       1.429   1.650   0.000  0.00  0.00    +0.345 C 
ATOM      8  N   UNL     1       2.143   2.062   0.000  0.00  0.00    -0.177 NA
ATOM      9  O   UNL     1       1.429   0.825   0.000  0.00  0.00    -0.249 OA
ATOM     10  C   UNL     1      -0.715   2.062   0.000  0.00  0.00    +0.036 A 
ATOM     11  C   UNL     1      -1.429   1.650   0.000  0.00  0.00    +0.000 A 
ENDROOT
BRANCH   8  12
ATOM     12  C   UNL     1       2.858   1.650   0.000  0.00  0.00    +0.203 C 
BRANCH  12  13
ATOM     13  C   UNL     1       3.572   2.062   0.000  0.00  0.00    +0.264 C 
ATOM     14  N   UNL     1       4.287   1.650   0.000  0.00  0.00    -0.204 NA
ATOM     15  O   UNL     1       3.572   2.888   0.000  0.00  0.00    -0.271 OA
BRANCH  14  16
ATOM     16  C   UNL     1       5.001   2.062   0.000  0.00  0.00    +0.115 C 
BRANCH  16  17
ATOM     17  C   UNL     1       5.716   1.650   0.000  0.00  0.00    +0.022 C 
ATOM     18  C   UNL     1       6.128   0.935   0.000  0.00  0.00    +0.002 C 
ATOM     19  C   UNL     1       6.541   1.650   0.000  0.00  0.00    +0.002 C 
ENDBRANCH  16  17
ENDBRANCH  14  16
ENDBRANCH  12  13
ENDBRANCH   8  12
TORSDOF 4
