REMARK  Name = 
REMARK  3 active torsions:
REMARK  status: ('A' for Active; 'I' for Inactive)
REMARK    1  A    between atoms: N_2  and  C_14
REMARK    2  A    between atoms: C_12  and  C_14
REMARK    3  A    between atoms: C_12  and  C_24
REMARK                            x       y       z     vdW  Elec       q    Type
REMARK                         _______ _______ _______ _____ _____    ______ ____
ROOT
ATOM      1  C   UNL     1      -0.588   0.017   0.000  0.00  0.00    +0.149 A 
ATOM      2  N   UNL     1      -0.330   0.805   0.000  0.00  0.00    -0.219 NA
ATOM      3  C   UNL     1      -1.001   1.289   0.000  0.00  0.00    +0.180 A 
ATOM      4  N   UNL     1      -1.668   0.805   0.000  0.00  0.00    -0.294 N 
ATOM      5  C   UNL     1      -0.175  -0.696   0.000  0.00  0.00    +0.154 A 
ATOM      6  N   UNL     1      -0.588  -1.409   0.000  0.00  0.00    -0.207 NA
ATOM      7  C   UNL     1      -1.414  -1.409   0.000  0.00  0.00    +0.201 A 
ATOM      8  N   UNL     1      -1.827  -0.696   0.000  0.00  0.00    -0.205 NA
ATOM      9  N   UNL     1       0.651  -0.696   0.000  0.00  0.00    -0.292 N 
ATOM     10  C   UNL     1       1.139  -0.029   0.000  0.00  0.00    +0.092 C 
ATOM     11  C   UNL     1       1.923  -0.283   0.000  0.00  0.00    +0.022 C 
ATOM     12  C   UNL     1       1.923  -1.109   0.000  0.00  0.00    +0.024 C 
ATOM     13  C   UNL     1       2.640  -1.522   0.000  0.00  0.00    +0.035 C 
ATOM     14  C   UNL     1       3.353  -1.109   0.000  0.00  0.00    +0.152 C 
ATOM     15  C   UNL     1       3.353  -0.283   0.000  0.00  0.00    +0.033 C 
ATOM     16  O   UNL     1       4.070  -1.522   0.000  0.00  0.00    -0.223 OA
ATOM     17  C   UNL     1       2.640   0.129   0.000  0.00  0.00    +0.004 C 
ATOM     18  C   UNL     1       1.139  -1.364   0.000  0.00  0.00    +0.092 C 
ATOM     19  C   UNL     1      -1.414   0.017   0.000  0.00  0.00    +0.167 A 
ENDROOT
BRANCH   4  20
ATOM     20  C   UNL     1      -2.452   1.059   0.000  0.00  0.00    +0.116 C 
BRANCH  20  21
ATOM     21  C   UNL     1      -2.623   1.868   0.000  0.00  0.00    +0.106 C 
ATOM     22  C   UNL     1      -1.818   2.039   0.000  0.00  0.00    +0.149 C 
ATOM     23  O   UNL     1      -1.989   2.844   0.000  0.00  0.00    -0.353 OA
ATOM     24  C   UNL     1      -2.794   2.673   0.000  0.00  0.00    +0.149 C 
BRANCH  21  25
ATOM     25  C   UNL     1      -3.432   1.693   0.000  0.00  0.00    +0.189 C 
ATOM     26  O   UNL     1      -3.687   0.909   0.000  0.00  0.00    -0.220 OA
ENDBRANCH  21  25
ENDBRANCH  20  21
ENDBRANCH   4  20
TORSDOF 3
