REMARK  Name = 
REMARK  5 active torsions:
REMARK  status: ('A' for Active; 'I' for Inactive)
REMARK    1  A    between atoms: N_3  and  C_4
REMARK    2  A    between atoms: C_4  and  C_5
REMARK    3  A    between atoms: C_5  and  C_6
REMARK    4  A    between atoms: C_6  and  N_7
REMARK    5  A    between atoms: N_18  and  C_19
REMARK                            x       y       z     vdW  Elec       q    Type
REMARK                         _______ _______ _______ _____ _____    ______ ____
ROOT
ATOM      1  C   UNL     1       1.847  -1.211   0.000  0.00  0.00    +0.045 C 
ENDROOT
BRANCH   1   2
ATOM      2  C   UNL     1       2.561  -1.624   0.000  0.00  0.00    +0.119 C 
BRANCH   2   6
ATOM      3  O   UNL     1       3.990  -2.449   0.000  0.00  0.00    -0.249 OA
ATOM      4  C   UNL     1       3.990  -1.624   0.000  0.00  0.00    +0.344 C 
ATOM      5  N   UNL     1       4.704  -1.211   0.000  0.00  0.00    -0.159 NA
ATOM      6  N   UNL     1       3.276  -1.211   0.000  0.00  0.00    -0.187 NA
BRANCH   5   7
ATOM      7  C   UNL     1       5.419  -1.624   0.000  0.00  0.00    +0.094 A 
ATOM      8  C   UNL     1       5.419  -2.449   0.000  0.00  0.00    +0.115 A 
ATOM      9  N   UNL     1       6.133  -2.861   0.000  0.00  0.00    -0.241 NA
ATOM     10  C   UNL     1       6.848  -2.449   0.000  0.00  0.00    +0.099 A 
ATOM     11  C   UNL     1       6.848  -1.624   0.000  0.00  0.00    +0.022 A 
ATOM     12  C   UNL     1       6.133  -1.211   0.000  0.00  0.00    +0.020 A 
ENDBRANCH   5   7
ENDBRANCH   2   6
ENDBRANCH   1   2
BRANCH   1  13
ATOM     13  C   UNL     1       1.132  -1.624   0.000  0.00  0.00    +0.104 C 
BRANCH  13  14
ATOM     14  N   UNL     1       0.418  -1.211   0.000  0.00  0.00    -0.212 N 
ATOM     15  C   UNL     1       0.331  -0.391   0.000  0.00  0.00    +0.250 C 
ATOM     16  O   UNL     1       0.944   0.161   0.000  0.00  0.00    -0.273 OA
ATOM     17  C   UNL     1      -0.476  -0.219   0.000  0.00  0.00    +0.149 C 
ATOM     18  C   UNL     1      -0.063   0.495   0.000  0.00  0.00    +0.029 C 
ATOM     19  C   UNL     1      -0.615   1.109   0.000  0.00  0.00    +0.002 C 
ATOM     20  C   UNL     1      -1.369   0.773   0.000  0.00  0.00    +0.002 C 
ATOM     21  C   UNL     1      -1.283  -0.048   0.000  0.00  0.00    +0.029 C 
ATOM     22  N   UNL     1      -0.888  -0.934   0.000  0.00  0.00    -0.183 NA
ATOM     23  C   UNL     1      -0.336  -1.547   0.000  0.00  0.00    +0.329 C 
ATOM     24  O   UNL     1      -0.508  -2.354   0.000  0.00  0.00    -0.250 OA
ENDBRANCH  13  14
ENDBRANCH   1  13
TORSDOF 5
