REMARK  Name = 
REMARK  4 active torsions:
REMARK  status: ('A' for Active; 'I' for Inactive)
REMARK    1  A    between atoms: C_2  and  C_5
REMARK    2  A    between atoms: N_10  and  C_11
REMARK    3  A    between atoms: C_11  and  C_12
REMARK    4  A    between atoms: N_17  and  C_18
REMARK                            x       y       z     vdW  Elec       q    Type
REMARK                         _______ _______ _______ _____ _____    ______ ____
ROOT
ATOM      1  C   UNL     1       2.143   1.238   0.000  0.00  0.00    +0.196 C 
ENDROOT
BRANCH   1   4
ATOM      2  C   UNL     1       0.715  -0.412   0.000  0.00  0.00    +0.089 A 
ATOM      3  C   UNL     1       1.429   0.000   0.000  0.00  0.00    +0.083 A 
ATOM      4  N   UNL     1       1.429   0.825   0.000  0.00  0.00    -0.285 N 
ATOM      5  C   UNL     1       0.715   1.238   0.000  0.00  0.00    +0.261 A 
ATOM      6  O   UNL     1       0.715   2.062   0.000  0.00  0.00    -0.267 OA
ATOM      7  C   UNL     1       0.000   0.825   0.000  0.00  0.00    +0.061 A 
ATOM      8  C   UNL     1       0.000   0.000   0.000  0.00  0.00    +0.010 A 
BRANCH   2  10
ATOM      9  F   UNL     1       0.715  -2.062   0.000  0.00  0.00    -0.166 F 
ATOM     10  C   UNL     1       0.715  -1.238   0.000  0.00  0.00    +0.420 C 
ATOM     11  F   UNL     1      -0.111  -1.238   0.000  0.00  0.00    -0.166 F 
ATOM     12  F   UNL     1       1.540  -1.238   0.000  0.00  0.00    -0.166 F 
ENDBRANCH   2  10
ENDBRANCH   1   4
BRANCH   1  13
ATOM     13  C   UNL     1       2.858   0.825   0.000  0.00  0.00    +0.272 C 
ATOM     14  N   UNL     1       3.572   1.238   0.000  0.00  0.00    -0.125 NA
ATOM     15  C   UNL     1       4.287   0.825   0.000  0.00  0.00    +0.346 C 
ATOM     16  N   UNL     1       5.001   1.238   0.000  0.00  0.00    -0.189 NA
ATOM     17  O   UNL     1       4.287   0.000   0.000  0.00  0.00    -0.249 OA
ATOM     18  O   UNL     1       2.858   0.000   0.000  0.00  0.00    -0.271 OA
BRANCH  16  19
ATOM     19  C   UNL     1       5.716   0.825   0.000  0.00  0.00    +0.097 C 
ATOM     20  C   UNL     1       5.802   0.004   0.000  0.00  0.00    +0.022 C 
ATOM     21  C   UNL     1       6.609  -0.167   0.000  0.00  0.00    +0.002 C 
ATOM     22  C   UNL     1       7.021   0.547   0.000  0.00  0.00    +0.002 C 
ATOM     23  C   UNL     1       6.469   1.161   0.000  0.00  0.00    +0.022 C 
ENDBRANCH  16  19
ENDBRANCH   1  13
TORSDOF 4
