REMARK  Name = 
REMARK  4 active torsions:
REMARK  status: ('A' for Active; 'I' for Inactive)
REMARK    1  A    between atoms: C_4  and  C_5
REMARK    2  A    between atoms: C_5  and  C_6
REMARK    3  A    between atoms: C_6  and  N_7
REMARK    4  A    between atoms: C_8  and  C_10
REMARK                            x       y       z     vdW  Elec       q    Type
REMARK                         _______ _______ _______ _____ _____    ______ ____
ROOT
ATOM      1  N   UNL     1       1.457  -2.025   0.000  0.00  0.00    -0.204 NA
ATOM      2  C   UNL     1       2.171  -2.437   0.000  0.00  0.00    +0.263 C 
ATOM      3  O   UNL     1       2.171  -3.262   0.000  0.00  0.00    -0.271 OA
ENDROOT
BRANCH   2   4
ATOM      4  C   UNL     1       2.886  -2.025   0.000  0.00  0.00    +0.196 C 
ATOM      5  N   UNL     1       3.640  -2.360   0.000  0.00  0.00    -0.178 NA
ATOM      6  C   UNL     1       4.192  -1.747   0.000  0.00  0.00    +0.340 C 
ATOM      7  O   UNL     1       5.012  -1.833   0.000  0.00  0.00    -0.249 OA
ATOM      8  N   UNL     1       3.779  -1.033   0.000  0.00  0.00    -0.185 NA
ATOM      9  C   UNL     1       2.972  -1.204   0.000  0.00  0.00    +0.148 C 
ENDBRANCH   2   4
BRANCH   1  10
ATOM     10  C   UNL     1       0.743  -2.437   0.000  0.00  0.00    +0.122 C 
BRANCH  10  11
ATOM     11  C   UNL     1       0.028  -2.025   0.000  0.00  0.00    +0.070 C 
BRANCH  11  16
ATOM     12  C   UNL     1      -2.813  -2.629   0.000  0.00  0.00    +0.059 C 
ATOM     13  C   UNL     1      -1.992  -2.715   0.000  0.00  0.00    +0.088 A 
ATOM     14  S   UNL     1      -1.580  -3.429   0.000  0.00  0.00    -0.071 S 
ATOM     15  C   UNL     1      -0.773  -3.258   0.000  0.00  0.00    +0.051 A 
ATOM     16  C   UNL     1      -0.686  -2.437   0.000  0.00  0.00    +0.067 A 
ATOM     17  N   UNL     1      -1.440  -2.102   0.000  0.00  0.00    -0.247 NA
ENDBRANCH  11  16
ENDBRANCH  10  11
ENDBRANCH   1  10
TORSDOF 4
