REMARK  Name = 
REMARK  4 active torsions:
REMARK  status: ('A' for Active; 'I' for Inactive)
REMARK    1  A    between atoms: S_2  and  N_5
REMARK    2  A    between atoms: C_14  and  N_15
REMARK    3  A    between atoms: N_18  and  C_19
REMARK    4  A    between atoms: C_19  and  C_20
REMARK                            x       y       z     vdW  Elec       q    Type
REMARK                         _______ _______ _______ _____ _____    ______ ____
ROOT
ATOM      1  N   UNL     1      -3.572   4.537   0.000  0.00  0.00    -0.156 NA
ATOM      2  C   UNL     1      -3.572   3.712   0.000  0.00  0.00    +0.117 C 
ATOM      3  C   UNL     1      -2.858   3.300   0.000  0.00  0.00    +0.111 C 
ATOM      4  N   UNL     1      -2.143   3.712   0.000  0.00  0.00    -0.290 N 
ATOM      5  C   UNL     1      -1.429   3.300   0.000  0.00  0.00    +0.132 A 
ATOM      6  N   UNL     1      -1.429   2.475   0.000  0.00  0.00    -0.228 NA
ATOM      7  C   UNL     1      -0.715   2.062   0.000  0.00  0.00    +0.117 A 
ATOM      8  C   UNL     1       0.000   2.475   0.000  0.00  0.00    +0.094 A 
ATOM      9  C   UNL     1       0.000   3.300   0.000  0.00  0.00    +0.021 A 
ATOM     10  C   UNL     1      -0.715   3.712   0.000  0.00  0.00    +0.036 A 
ATOM     11  C   UNL     1      -2.143   4.537   0.000  0.00  0.00    +0.111 C 
ATOM     12  C   UNL     1      -2.858   4.950   0.000  0.00  0.00    +0.117 C 
ENDROOT
BRANCH   1  14
ATOM     13  C   UNL     1      -5.001   5.362   0.000  0.00  0.00    +0.196 C 
ATOM     14  S   UNL     1      -4.287   4.950   0.000  0.00  0.00    +0.046 S 
ATOM     15  O   UNL     1      -3.874   5.665   0.000  0.00  0.00    -0.157 OA
ATOM     16  O   UNL     1      -4.699   4.236   0.000  0.00  0.00    -0.157 OA
ENDBRANCH   1  14
BRANCH   8  17
ATOM     17  N   UNL     1       0.715   2.062   0.000  0.00  0.00    -0.159 NA
ATOM     18  C   UNL     1       1.429   2.475   0.000  0.00  0.00    +0.344 C 
ATOM     19  N   UNL     1       2.143   2.062   0.000  0.00  0.00    -0.182 NA
ATOM     20  O   UNL     1       1.429   3.300   0.000  0.00  0.00    -0.249 OA
BRANCH  19  21
ATOM     21  C   UNL     1       2.858   2.475   0.000  0.00  0.00    +0.143 C 
BRANCH  21  22
ATOM     22  C   UNL     1       3.572   2.062   0.000  0.00  0.00    -0.003 C 
ATOM     23  C   UNL     1       4.287   2.475   0.000  0.00  0.00    -0.003 C 
ENDBRANCH  21  22
ENDBRANCH  19  21
ENDBRANCH   8  17
TORSDOF 4
