REMARK  Name = 
REMARK  1 active torsions:
REMARK  status: ('A' for Active; 'I' for Inactive)
REMARK    1  A    between atoms: C_8  and  C_9
REMARK                            x       y       z     vdW  Elec       q    Type
REMARK                         _______ _______ _______ _____ _____    ______ ____
ROOT
ATOM      1 CL   UNL     1       0.000   0.000   0.000  0.00  0.00    +0.000 Cl
ENDROOT
TORSDOF 0
REMARK  Name = 
REMARK  1 active torsions:
REMARK  status: ('A' for Active; 'I' for Inactive)
REMARK    1  A    between atoms: C_8  and  C_9
REMARK                            x       y       z     vdW  Elec       q    Type
REMARK                         _______ _______ _______ _____ _____    ______ ____
ROOT
ATOM      1 CL   UNL     1       2.004   0.000   0.000  0.00  0.00    +0.000 Cl
ENDROOT
TORSDOF 0
REMARK  Name = 
REMARK  1 active torsions:
REMARK  status: ('A' for Active; 'I' for Inactive)
REMARK    1  A    between atoms: C_8  and  C_9
REMARK                            x       y       z     vdW  Elec       q    Type
REMARK                         _______ _______ _______ _____ _____    ______ ____
ROOT
ATOM      1  C   UNL     1       1.118  -1.657   0.000  0.00  0.00    +0.133 C 
ATOM      2  N   UNL     1       1.118  -2.482   0.000  0.00  0.00    -0.292 N 
ATOM      3  C   UNL     1       0.451  -2.967   0.000  0.00  0.00    +0.172 A 
ATOM      4  N   UNL     1       0.706  -3.752   0.000  0.00  0.00    -0.131 NA
ATOM      5  N   UNL     1       1.531  -3.752   0.000  0.00  0.00    -0.126 NA
ATOM      6  C   UNL     1       1.786  -2.967   0.000  0.00  0.00    +0.203 A 
ENDROOT
BRANCH   3   7
ATOM      7  C   UNL     1      -0.334  -2.712   0.000  0.00  0.00    +0.190 C 
ATOM      8  O   UNL     1      -0.505  -1.905   0.000  0.00  0.00    -0.346 OA
ATOM      9  C   UNL     1      -1.290  -1.650   0.000  0.00  0.00    +0.161 C 
ATOM     10  C   UNL     1      -1.903  -2.202   0.000  0.00  0.00    +0.121 C 
ATOM     11  N   UNL     1      -1.731  -3.009   0.000  0.00  0.00    -0.212 NA
ATOM     12  C   UNL     1      -0.947  -3.264   0.000  0.00  0.00    +0.126 C 
ENDBRANCH   3   7
TORSDOF 1
