REMARK  Name = 
REMARK  5 active torsions:
REMARK  status: ('A' for Active; 'I' for Inactive)
REMARK    1  A    between atoms: C_7  and  O_8
REMARK    2  A    between atoms: O_8  and  C_9
REMARK    3  A    between atoms: C_9  and  C_10
REMARK    4  A    between atoms: C_10  and  N_11
REMARK    5  A    between atoms: C_13  and  C_14
REMARK                            x       y       z     vdW  Elec       q    Type
REMARK                         _______ _______ _______ _____ _____    ______ ____
ROOT
ATOM      1  C   UNL     1       0.715  -1.238   0.000  0.00  0.00    +0.143 C 
ENDROOT
BRANCH   1   2
ATOM      2  N   UNL     1       0.715  -0.412   0.000  0.00  0.00    -0.275 N 
ATOM      3  C   UNL     1       1.429   0.000   0.000  0.00  0.00    +0.353 A 
ATOM      4  O   UNL     1       2.143  -0.412   0.000  0.00  0.00    -0.244 OA
ATOM      5  N   UNL     1       1.429   0.825   0.000  0.00  0.00    -0.153 NA
ATOM      6  C   UNL     1       0.715   1.238   0.000  0.00  0.00    +0.294 A 
ATOM      7  O   UNL     1       0.715   2.062   0.000  0.00  0.00    -0.264 OA
ATOM      8  C   UNL     1       0.000   0.825   0.000  0.00  0.00    +0.143 A 
ATOM      9  C   UNL     1       0.000   0.000   0.000  0.00  0.00    +0.095 A 
BRANCH   8  10
ATOM     10  C   UNL     1      -0.715   1.238   0.000  0.00  0.00    +0.107 C 
ATOM     11  N   UNL     1      -1.429   1.650   0.000  0.00  0.00    -0.191 NA
ENDBRANCH   8  10
ENDBRANCH   1   2
BRANCH   1  12
ATOM     12  C   UNL     1       1.429  -1.650   0.000  0.00  0.00    +0.167 C 
BRANCH  12  13
ATOM     13  O   UNL     1       1.429  -2.475   0.000  0.00  0.00    -0.354 OA
BRANCH  13  16
ATOM     14  C   UNL     1       2.858  -1.650   0.000  0.00  0.00    +0.002 C 
ATOM     15  C   UNL     1       2.858  -2.475   0.000  0.00  0.00    +0.027 C 
ATOM     16  C   UNL     1       2.143  -2.888   0.000  0.00  0.00    +0.115 C 
ATOM     17  C   UNL     1       2.143  -3.712   0.000  0.00  0.00    +0.030 C 
ATOM     18  C   UNL     1       2.858  -4.125   0.000  0.00  0.00    +0.002 C 
ATOM     19  C   UNL     1       3.572  -3.712   0.000  0.00  0.00    +0.000 C 
ATOM     20  C   UNL     1       3.572  -2.888   0.000  0.00  0.00    +0.002 C 
ENDBRANCH  13  16
ENDBRANCH  12  13
ENDBRANCH   1  12
TORSDOF 5
