REMARK  Name = 
REMARK  5 active torsions:
REMARK  status: ('A' for Active; 'I' for Inactive)
REMARK    1  A    between atoms: O_2  and  C_3
REMARK    2  A    between atoms: C_3  and  C_4
REMARK    3  A    between atoms: C_4  and  O_5
REMARK    4  A    between atoms: O_5  and  C_6
REMARK    5  A    between atoms: C_9  and  N_10
REMARK                            x       y       z     vdW  Elec       q    Type
REMARK                         _______ _______ _______ _____ _____    ______ ____
ROOT
ATOM      1  C   UNL     1       2.897  -6.875   0.000  0.00  0.00    +0.225 A 
ATOM      2  N   UNL     1       2.897  -7.700   0.000  0.00  0.00    -0.209 NA
ATOM      3  C   UNL     1       3.611  -8.113   0.000  0.00  0.00    +0.119 A 
ATOM      4  C   UNL     1       4.325  -7.700   0.000  0.00  0.00    +0.094 A 
ATOM      5  C   UNL     1       4.325  -6.875   0.000  0.00  0.00    +0.023 A 
ATOM      6  C   UNL     1       3.611  -6.463   0.000  0.00  0.00    +0.059 A 
ENDROOT
BRANCH   4   7
ATOM      7  N   UNL     1       5.040  -8.113   0.000  0.00  0.00    -0.161 NA
ATOM      8  C   UNL     1       5.754  -7.700   0.000  0.00  0.00    +0.328 C 
ATOM      9  N   UNL     1       6.469  -8.113   0.000  0.00  0.00    -0.263 N 
ATOM     10  C   UNL     1       6.407  -8.935   0.000  0.00  0.00    +0.095 C 
ATOM     11  C   UNL     1       7.012  -9.496   0.000  0.00  0.00    +0.022 C 
ATOM     12  C   UNL     1       7.828  -9.373   0.000  0.00  0.00    +0.002 C 
ATOM     13  C   UNL     1       8.240  -8.659   0.000  0.00  0.00    +0.002 C 
ATOM     14  C   UNL     1       7.939  -7.891   0.000  0.00  0.00    +0.022 C 
ATOM     15  C   UNL     1       7.151  -7.648   0.000  0.00  0.00    +0.095 C 
ATOM     16  O   UNL     1       5.754  -6.875   0.000  0.00  0.00    -0.250 OA
ENDBRANCH   4   7
BRANCH   1  17
ATOM     17  O   UNL     1       2.182  -6.463   0.000  0.00  0.00    -0.457 OA
BRANCH  17  18
ATOM     18  C   UNL     1       1.468  -6.875   0.000  0.00  0.00    +0.239 C 
BRANCH  18  19
ATOM     19  C   UNL     1       0.753  -6.463   0.000  0.00  0.00    +0.189 C 
BRANCH  19  21
ATOM     20  C   UNL     1      -0.676  -6.463   0.000  0.00  0.00    +0.174 C 
ATOM     21  O   UNL     1       0.039  -6.875   0.000  0.00  0.00    -0.347 OA
ENDBRANCH  19  21
ENDBRANCH  18  19
ENDBRANCH  17  18
ENDBRANCH   1  17
TORSDOF 5
