REMARK  Name = 
REMARK  2 active torsions:
REMARK  status: ('A' for Active; 'I' for Inactive)
REMARK    1  A    between atoms: C_4  and  C_7
REMARK    2  A    between atoms: C_7  and  C_9
REMARK                            x       y       z     vdW  Elec       q    Type
REMARK                         _______ _______ _______ _____ _____    ______ ____
ROOT
ATOM      1  C   UNL     1       0.568   1.939   0.000  0.00  0.00    +0.154 C 
ATOM      2  N   UNL     1       0.568   1.114   0.000  0.00  0.00    -0.248 N 
ATOM      3  N   UNL     1      -0.100   0.629   0.000  0.00  0.00    -0.168 NA
ATOM      4  C   UNL     1       0.155  -0.155   0.000  0.00  0.00    +0.120 A 
ATOM      5  C   UNL     1       0.980  -0.155   0.000  0.00  0.00    +0.049 A 
ATOM      6  C   UNL     1       1.235   0.629   0.000  0.00  0.00    +0.095 A 
ENDROOT
BRANCH   5   7
ATOM      7  C   UNL     1       1.465  -0.823   0.000  0.00  0.00    +0.196 C 
ATOM      8  O   UNL     1       2.286  -0.737   0.000  0.00  0.00    -0.217 OA
BRANCH   7   9
ATOM      9  C   UNL     1       1.130  -1.576   0.000  0.00  0.00    +0.147 C 
ATOM     10  N   UNL     1       1.615  -2.244   0.000  0.00  0.00    -0.128 NA
ENDBRANCH   7   9
ENDBRANCH   5   7
TORSDOF 2
