REMARK  Name = 
REMARK  4 active torsions:
REMARK  status: ('A' for Active; 'I' for Inactive)
REMARK    1  A    between atoms: C_2  and  C_3
REMARK    2  A    between atoms: C_3  and  N_4
REMARK    3  A    between atoms: N_12  and  C_13
REMARK    4  A    between atoms: C_13  and  C_14
REMARK                            x       y       z     vdW  Elec       q    Type
REMARK                         _______ _______ _______ _____ _____    ______ ____
ROOT
ATOM      1  O   UNL     1       0.852  -4.133   0.000  0.00  0.00    -0.271 OA
ATOM      2  C   UNL     1       0.137  -3.721   0.000  0.00  0.00    +0.265 C 
ATOM      3  N   UNL     1       0.137  -2.896   0.000  0.00  0.00    -0.204 NA
ENDROOT
BRANCH   3   4
ATOM      4  C   UNL     1       0.852  -2.483   0.000  0.00  0.00    +0.115 C 
BRANCH   4   5
ATOM      5  C   UNL     1       0.852  -1.659   0.000  0.00  0.00    +0.020 C 
ATOM      6  C   UNL     1       0.852  -0.911   0.000  0.00  0.00    +0.002 C 
ATOM      7  C   UNL     1       1.301  -0.121   0.000  0.00  0.00    +0.000 C 
ATOM      8  C   UNL     1       2.037  -0.494   0.000  0.00  0.00    +0.000 C 
ATOM      9  C   UNL     1       2.037  -1.242   0.000  0.00  0.00    +0.000 C 
ATOM     10  C   UNL     1       1.301  -1.616   0.000  0.00  0.00    +0.000 C 
ATOM     11  C   UNL     1       0.566  -1.242   0.000  0.00  0.00    +0.000 C 
ATOM     12  C   UNL     1       0.566  -0.494   0.000  0.00  0.00    +0.000 C 
ATOM     13  C   UNL     1       1.587  -2.032   0.000  0.00  0.00    +0.002 C 
ATOM     14  C   UNL     1       0.116  -2.032   0.000  0.00  0.00    +0.002 C 
ENDBRANCH   4   5
ENDBRANCH   3   4
BRANCH   2  15
ATOM     15  C   UNL     1      -0.577  -4.134   0.000  0.00  0.00    +0.197 C 
BRANCH  15  16
ATOM     16  N   UNL     1      -0.577  -4.959   0.000  0.00  0.00    -0.269 N 
ATOM     17  C   UNL     1      -1.292  -5.371   0.000  0.00  0.00    +0.353 A 
ATOM     18  O   UNL     1      -2.006  -4.959   0.000  0.00  0.00    -0.244 OA
ATOM     19  N   UNL     1      -1.292  -6.196   0.000  0.00  0.00    -0.153 NA
ATOM     20  C   UNL     1      -0.577  -6.609   0.000  0.00  0.00    +0.285 A 
ATOM     21  O   UNL     1      -0.577  -7.434   0.000  0.00  0.00    -0.265 OA
ATOM     22  C   UNL     1       0.138  -6.196   0.000  0.00  0.00    +0.081 A 
ATOM     23  C   UNL     1       0.137  -5.371   0.000  0.00  0.00    +0.085 A 
ENDBRANCH  15  16
ENDBRANCH   2  15
TORSDOF 4
