REMARK  Name = 
REMARK  4 active torsions:
REMARK  status: ('A' for Active; 'I' for Inactive)
REMARK    1  A    between atoms: O_2  and  C_3
REMARK    2  A    between atoms: C_5  and  N_6
REMARK    3  A    between atoms: N_9  and  C_10
REMARK    4  A    between atoms: C_10  and  C_12
REMARK                            x       y       z     vdW  Elec       q    Type
REMARK                         _______ _______ _______ _____ _____    ______ ____
ROOT
ATOM      1  N   UNL     1      -2.143   0.412   0.000  0.00  0.00    -0.142 NA
ATOM      2  C   UNL     1      -1.429   0.825   0.000  0.00  0.00    +0.345 C 
ATOM      3  N   UNL     1      -0.715   0.412   0.000  0.00  0.00    -0.189 NA
ATOM      4  O   UNL     1      -1.429   1.650   0.000  0.00  0.00    -0.249 OA
ENDROOT
BRANCH   1   9
ATOM      5  C   UNL     1      -3.572   2.062   0.000  0.00  0.00    +0.229 A 
ATOM      6  N   UNL     1      -4.287   1.650   0.000  0.00  0.00    -0.189 NA
ATOM      7  C   UNL     1      -4.287   0.825   0.000  0.00  0.00    +0.203 A 
ATOM      8  N   UNL     1      -3.572   0.412   0.000  0.00  0.00    -0.207 NA
ATOM      9  C   UNL     1      -2.858   0.825   0.000  0.00  0.00    +0.162 A 
ATOM     10  C   UNL     1      -2.858   1.650   0.000  0.00  0.00    +0.094 A 
BRANCH   5  12
ATOM     11  C   UNL     1      -4.287   3.300   0.000  0.00  0.00    +0.254 C 
ATOM     12  O   UNL     1      -3.572   2.888   0.000  0.00  0.00    -0.456 OA
ENDBRANCH   5  12
ENDBRANCH   1   9
BRANCH   3  13
ATOM     13  C   UNL     1       0.000   0.825   0.000  0.00  0.00    +0.097 C 
ATOM     14  C   UNL     1       0.000   1.650   0.000  0.00  0.00    +0.023 C 
BRANCH  13  15
ATOM     15  C   UNL     1       0.715   0.412   0.000  0.00  0.00    +0.020 C 
ATOM     16  C   UNL     1       0.928  -0.384   0.000  0.00  0.00    +0.002 C 
ATOM     17  C   UNL     1       1.725  -0.171   0.000  0.00  0.00    +0.000 C 
ATOM     18  C   UNL     1       1.511   0.626   0.000  0.00  0.00    +0.002 C 
ENDBRANCH  13  15
ENDBRANCH   3  13
TORSDOF 4
