REMARK  Name = 
REMARK  4 active torsions:
REMARK  status: ('A' for Active; 'I' for Inactive)
REMARK    1  A    between atoms: C_2  and  C_5
REMARK    2  A    between atoms: C_5  and  N_6
REMARK    3  A    between atoms: N_9  and  C_10
REMARK    4  A    between atoms: C_15  and  N_16
REMARK                            x       y       z     vdW  Elec       q    Type
REMARK                         _______ _______ _______ _____ _____    ______ ____
ROOT
ATOM      1  C   UNL     1       2.037   1.176   0.000  0.00  0.00    +0.119 C 
ATOM      2  C   UNL     1       2.751   0.763   0.000  0.00  0.00    +0.125 C 
ATOM      3  C   UNL     1       3.466   1.176   0.000  0.00  0.00    +0.026 C 
ATOM      4  C   UNL     1       3.466   2.001   0.000  0.00  0.00    +0.002 C 
ATOM      5  C   UNL     1       2.751   2.413   0.000  0.00  0.00    +0.002 C 
ATOM      6  C   UNL     1       2.037   2.001   0.000  0.00  0.00    +0.024 C 
ENDROOT
BRANCH   2   7
ATOM      7  N   UNL     1       2.751  -0.062   0.000  0.00  0.00    -0.250 N 
ATOM      8  N   UNL     1       2.084  -0.546   0.000  0.00  0.00    -0.168 NA
ATOM      9  C   UNL     1       2.339  -1.331   0.000  0.00  0.00    +0.122 A 
ATOM     10  C   UNL     1       3.164  -1.331   0.000  0.00  0.00    +0.043 A 
ATOM     11  C   UNL     1       3.419  -0.546   0.000  0.00  0.00    +0.097 A 
ENDBRANCH   2   7
BRANCH   1  14
ATOM     12  N   UNL     1      -0.107   0.763   0.000  0.00  0.00    -0.185 NA
ATOM     13  C   UNL     1       0.608   1.176   0.000  0.00  0.00    +0.339 C 
ATOM     14  N   UNL     1       1.322   0.763   0.000  0.00  0.00    -0.187 NA
ATOM     15  O   UNL     1       0.608   2.001   0.000  0.00  0.00    -0.249 OA
BRANCH  12  16
ATOM     16  C   UNL     1      -0.821   1.176   0.000  0.00  0.00    +0.147 C 
BRANCH  16  18
ATOM     17  C   UNL     1      -2.250   0.351   0.000  0.00  0.00    +0.035 C 
ATOM     18  C   UNL     1      -1.536   0.763   0.000  0.00  0.00    +0.147 C 
ATOM     19  O   UNL     1      -1.948   1.478   0.000  0.00  0.00    -0.224 OA
ATOM     20  C   UNL     1      -1.123   0.049   0.000  0.00  0.00    +0.035 C 
ENDBRANCH  16  18
ENDBRANCH  12  16
ENDBRANCH   1  14
TORSDOF 4
