REMARK  Name = 
REMARK  2 active torsions:
REMARK  status: ('A' for Active; 'I' for Inactive)
REMARK    1  A    between atoms: N_4  and  C_15
REMARK    2  A    between atoms: C_15  and  C_17
REMARK                            x       y       z     vdW  Elec       q    Type
REMARK                         _______ _______ _______ _____ _____    ______ ____
ROOT
ATOM      1  C   UNL     1       0.150  -0.742   0.000  0.00  0.00    +0.149 A 
ATOM      2  N   UNL     1       0.404  -1.525   0.000  0.00  0.00    -0.219 NA
ATOM      3  C   UNL     1      -0.263  -2.012   0.000  0.00  0.00    +0.180 A 
ATOM      4  N   UNL     1      -0.933  -1.525   0.000  0.00  0.00    -0.292 N 
ATOM      5  C   UNL     1      -0.675  -0.742   0.000  0.00  0.00    +0.167 A 
ATOM      6  N   UNL     1      -1.087  -0.029   0.000  0.00  0.00    -0.205 NA
ATOM      7  C   UNL     1      -0.675   0.687   0.000  0.00  0.00    +0.201 A 
ATOM      8  N   UNL     1       0.150   0.687   0.000  0.00  0.00    -0.207 NA
ATOM      9  C   UNL     1       0.237  -0.163   0.000  0.00  0.00    +0.154 A 
ATOM     10  N   UNL     1       1.387  -0.029   0.000  0.00  0.00    -0.295 N 
ATOM     11  C   UNL     1       1.654  -1.104   0.000  0.00  0.00    +0.080 C 
ATOM     12  C   UNL     1       0.891  -0.792   0.000  0.00  0.00    +0.020 C 
ATOM     13  C   UNL     1       0.579  -0.029   0.000  0.00  0.00    +0.003 C 
ATOM     14  C   UNL     1       0.891   0.733   0.000  0.00  0.00    +0.020 C 
ATOM     15  C   UNL     1       2.416  -0.792   0.000  0.00  0.00    +0.086 C 
ATOM     16  C   UNL     1       2.733  -0.029   0.000  0.00  0.00    +0.267 C 
ATOM     17  C   UNL     1       2.416   0.733   0.000  0.00  0.00    +0.086 C 
ATOM     18  F   UNL     1       3.495   0.450   0.000  0.00  0.00    -0.204 F 
ATOM     19  F   UNL     1       3.512  -0.442   0.000  0.00  0.00    -0.204 F 
ATOM     20  C   UNL     1       1.654   1.050   0.000  0.00  0.00    +0.080 C 
ENDROOT
BRANCH   4  21
ATOM     21  C   UNL     1      -1.716  -1.783   0.000  0.00  0.00    +0.139 C 
BRANCH  21  22
ATOM     22  C   UNL     1      -1.887  -2.587   0.000  0.00  0.00    +0.152 C 
ATOM     23  O   UNL     1      -1.062  -2.616   0.000  0.00  0.00    -0.223 OA
ATOM     24  C   UNL     1      -2.654  -2.279   0.000  0.00  0.00    +0.064 C 
ATOM     25  C   UNL     1      -3.304  -2.787   0.000  0.00  0.00    +0.145 C 
ATOM     26  O   UNL     1      -3.187  -3.604   0.000  0.00  0.00    -0.354 OA
ATOM     27  C   UNL     1      -2.420  -3.912   0.000  0.00  0.00    +0.145 C 
ATOM     28  C   UNL     1      -1.770  -3.404   0.000  0.00  0.00    +0.064 C 
ENDBRANCH  21  22
ENDBRANCH   4  21
TORSDOF 2
