REMARK  Name = 
REMARK  3 active torsions:
REMARK  status: ('A' for Active; 'I' for Inactive)
REMARK    1  A    between atoms: C_2  and  C_3
REMARK    2  A    between atoms: C_2  and  N_9
REMARK    3  A    between atoms: C_3  and  N_4
REMARK                            x       y       z     vdW  Elec       q    Type
REMARK                         _______ _______ _______ _____ _____    ______ ____
ROOT
ATOM      1  N   UNL     1       2.143  -2.888   0.000  0.00  0.00    -0.188 NA
ATOM      2  C   UNL     1       2.858  -2.475   0.000  0.00  0.00    +0.323 C 
ATOM      3  N   UNL     1       3.572  -2.888   0.000  0.00  0.00    -0.259 N 
ATOM      4  C   UNL     1       3.572  -3.712   0.000  0.00  0.00    +0.117 C 
ATOM      5  C   UNL     1       4.287  -4.125   0.000  0.00  0.00    +0.115 C 
ATOM      6  N   UNL     1       5.001  -3.712   0.000  0.00  0.00    -0.276 N 
ATOM      7  C   UNL     1       5.716  -4.125   0.000  0.00  0.00    +0.226 C 
ATOM      8  C   UNL     1       5.716  -4.950   0.000  0.00  0.00    +0.095 C 
ATOM      9  O   UNL     1       6.430  -3.712   0.000  0.00  0.00    -0.275 OA
ATOM     10  C   UNL     1       5.001  -2.888   0.000  0.00  0.00    +0.115 C 
ATOM     11  C   UNL     1       4.287  -2.475   0.000  0.00  0.00    +0.117 C 
ATOM     12  O   UNL     1       2.858  -1.650   0.000  0.00  0.00    -0.251 OA
ENDROOT
BRANCH   1  14
ATOM     13  C   UNL     1       1.429  -1.650   0.000  0.00  0.00    +0.026 C 
ATOM     14  C   UNL     1       1.429  -2.475   0.000  0.00  0.00    +0.121 C 
BRANCH  14  15
ATOM     15  C   UNL     1       0.715  -2.888   0.000  0.00  0.00    +0.149 C 
BRANCH  15  16
ATOM     16  N   UNL     1       0.000  -2.475   0.000  0.00  0.00    -0.248 N 
ATOM     17  N   UNL     1      -0.086  -1.655   0.000  0.00  0.00    -0.168 NA
ATOM     18  C   UNL     1      -0.893  -1.483   0.000  0.00  0.00    +0.122 A 
ATOM     19  C   UNL     1      -1.306  -2.197   0.000  0.00  0.00    +0.043 A 
ATOM     20  C   UNL     1      -0.754  -2.811   0.000  0.00  0.00    +0.097 A 
ENDBRANCH  15  16
ENDBRANCH  14  15
ENDBRANCH   1  14
TORSDOF 3
