REMARK  Name = 
REMARK  4 active torsions:
REMARK  status: ('A' for Active; 'I' for Inactive)
REMARK    1  A    between atoms: N_5  and  C_6
REMARK    2  A    between atoms: C_6  and  C_7
REMARK    3  A    between atoms: C_7  and  C_9
REMARK    4  A    between atoms: C_9  and  N_10
REMARK                            x       y       z     vdW  Elec       q    Type
REMARK                         _______ _______ _______ _____ _____    ______ ____
ROOT
ATOM      1  C   UNL     1       2.143  -5.362   0.000  0.00  0.00    +0.190 C 
ATOM      2  O   UNL     1       1.429  -4.950   0.000  0.00  0.00    -0.220 OA
ENDROOT
BRANCH   1   3
ATOM      3  C   UNL     1       2.858  -4.950   0.000  0.00  0.00    +0.107 C 
BRANCH   3   8
ATOM      4  C   UNL     1       2.858  -1.650   0.000  0.00  0.00    +0.000 C 
ATOM      5  C   UNL     1       2.858  -2.475   0.000  0.00  0.00    +0.003 C 
ATOM      6  C   UNL     1       2.143  -2.888   0.000  0.00  0.00    +0.017 C 
ATOM      7  C   UNL     1       2.143  -3.712   0.000  0.00  0.00    +0.072 C 
ATOM      8  N   UNL     1       2.858  -4.125   0.000  0.00  0.00    -0.271 NA
ATOM      9  C   UNL     1       3.572  -3.712   0.000  0.00  0.00    +0.072 C 
ATOM     10  C   UNL     1       3.572  -2.888   0.000  0.00  0.00    +0.017 C 
ENDBRANCH   3   8
ENDBRANCH   1   3
BRANCH   1  11
ATOM     11  C   UNL     1       2.143  -6.188   0.000  0.00  0.00    +0.145 C 
BRANCH  11  12
ATOM     12  N   UNL     1       1.429  -6.600   0.000  0.00  0.00    -0.276 N 
ATOM     13  C   UNL     1       0.715  -6.188   0.000  0.00  0.00    +0.259 A 
ATOM     14  O   UNL     1       0.715  -5.362   0.000  0.00  0.00    -0.267 OA
ATOM     15  C   UNL     1       0.000  -6.600   0.000  0.00  0.00    +0.048 A 
ATOM     16  C   UNL     1      -0.715  -6.188   0.000  0.00  0.00    +0.037 C 
ATOM     17  C   UNL     1       0.000  -7.425   0.000  0.00  0.00    +0.062 A 
ATOM     18  C   UNL     1      -0.715  -7.838   0.000  0.00  0.00    +0.052 C 
ATOM     19  N   UNL     1       0.715  -7.838   0.000  0.00  0.00    -0.230 NA
ATOM     20  C   UNL     1       1.429  -7.425   0.000  0.00  0.00    +0.181 A 
ENDBRANCH  11  12
ENDBRANCH   1  11
TORSDOF 4
