REMARK  Name = 
REMARK  3 active torsions:
REMARK  status: ('A' for Active; 'I' for Inactive)
REMARK    1  A    between atoms: C_2  and  N_3
REMARK    2  A    between atoms: C_2  and  C_14
REMARK    3  A    between atoms: N_6  and  C_7
REMARK                            x       y       z     vdW  Elec       q    Type
REMARK                         _______ _______ _______ _____ _____    ______ ____
ROOT
ATOM      1  N   UNL     1       2.102  -1.996   0.000  0.00  0.00    -0.189 NA
ATOM      2  C   UNL     1       2.816  -2.408   0.000  0.00  0.00    +0.345 C 
ATOM      3  N   UNL     1       3.530  -1.996   0.000  0.00  0.00    -0.142 NA
ATOM      4  O   UNL     1       2.816  -3.233   0.000  0.00  0.00    -0.249 OA
ENDROOT
BRANCH   3   5
ATOM      5  C   UNL     1       4.245  -2.408   0.000  0.00  0.00    +0.154 A 
ATOM      6  N   UNL     1       4.331  -3.229   0.000  0.00  0.00    -0.234 N 
ATOM      7  C   UNL     1       3.718  -3.781   0.000  0.00  0.00    +0.155 C 
ATOM      8  N   UNL     1       5.138  -3.400   0.000  0.00  0.00    -0.172 NA
ATOM      9  C   UNL     1       5.551  -2.686   0.000  0.00  0.00    +0.082 A 
ATOM     10  C   UNL     1       6.371  -2.599   0.000  0.00  0.00    +0.054 C 
ATOM     11  C   UNL     1       4.999  -2.073   0.000  0.00  0.00    +0.052 A 
ENDBRANCH   3   5
BRANCH   1  13
ATOM     12  C   UNL     1       1.387  -3.233   0.000  0.00  0.00    +0.023 C 
ATOM     13  C   UNL     1       1.387  -2.408   0.000  0.00  0.00    +0.097 C 
BRANCH  13  14
ATOM     14  C   UNL     1       0.672  -1.996   0.000  0.00  0.00    +0.020 C 
ATOM     15  C   UNL     1       0.260  -1.281   0.000  0.00  0.00    +0.002 C 
ATOM     16  C   UNL     1      -0.152  -1.996   0.000  0.00  0.00    +0.002 C 
ENDBRANCH  13  14
ENDBRANCH   1  13
TORSDOF 3
