REMARK  Name = 
REMARK  5 active torsions:
REMARK  status: ('A' for Active; 'I' for Inactive)
REMARK    1  A    between atoms: C_2  and  O_3
REMARK    2  A    between atoms: O_3  and  C_4
REMARK    3  A    between atoms: C_6  and  N_7
REMARK    4  A    between atoms: C_8  and  C_10
REMARK    5  A    between atoms: C_10  and  N_11
REMARK                            x       y       z     vdW  Elec       q    Type
REMARK                         _______ _______ _______ _____ _____    ______ ____
ROOT
ATOM      1  N   UNL     1       0.412   1.821   0.000  0.00  0.00    -0.205 NA
ATOM      2  C   UNL     1       1.127   2.233   0.000  0.00  0.00    +0.266 C 
ATOM      3  O   UNL     1       1.841   1.821   0.000  0.00  0.00    -0.271 OA
ENDROOT
BRANCH   1  10
ATOM      4  C   UNL     1       0.412  -0.171   0.000  0.00  0.00    +0.118 C 
ATOM      5  C   UNL     1       0.996   0.412   0.000  0.00  0.00    +0.044 C 
ATOM      6  C   UNL     1       1.481  -0.255   0.000  0.00  0.00    +0.004 C 
ATOM      7  C   UNL     1       2.265   0.000   0.000  0.00  0.00    +0.000 C 
ATOM      8  C   UNL     1       2.265   0.825   0.000  0.00  0.00    +0.000 C 
ATOM      9  C   UNL     1       1.481   1.080   0.000  0.00  0.00    +0.004 C 
ATOM     10  C   UNL     1       0.412   0.996   0.000  0.00  0.00    +0.100 C 
ATOM     11  C   UNL     1      -0.171   0.412   0.000  0.00  0.00    +0.051 C 
BRANCH   4  12
ATOM     12  O   UNL     1       0.412  -0.996   0.000  0.00  0.00    -0.356 OA
BRANCH  12  14
ATOM     13  C   UNL     1       1.127  -2.233   0.000  0.00  0.00    +0.035 C 
ATOM     14  C   UNL     1       1.127  -1.408   0.000  0.00  0.00    +0.142 C 
ENDBRANCH  12  14
ENDBRANCH   4  12
ENDBRANCH   1  10
BRANCH   2  15
ATOM     15  C   UNL     1       1.127   3.058   0.000  0.00  0.00    +0.217 C 
BRANCH  15  16
ATOM     16  N   UNL     1       1.841   3.471   0.000  0.00  0.00    -0.207 N 
ATOM     17  C   UNL     1       2.556   3.058   0.000  0.00  0.00    +0.277 A 
ATOM     18  O   UNL     1       2.556   2.233   0.000  0.00  0.00    -0.265 OA
ATOM     19  C   UNL     1       3.270   3.471   0.000  0.00  0.00    +0.063 A 
ATOM     20  C   UNL     1       3.270   4.296   0.000  0.00  0.00    +0.021 A 
ATOM     21  C   UNL     1       2.556   4.708   0.000  0.00  0.00    +0.079 A 
ATOM     22  C   UNL     1       2.556   5.533   0.000  0.00  0.00    +0.054 C 
ATOM     23  N   UNL     1       1.841   4.296   0.000  0.00  0.00    -0.171 NA
ENDBRANCH  15  16
ENDBRANCH   2  15
TORSDOF 5
