REMARK  Name = 
REMARK  2 active torsions:
REMARK  status: ('A' for Active; 'I' for Inactive)
REMARK    1  A    between atoms: C_6  and  N_7
REMARK    2  A    between atoms: N_10  and  C_11
REMARK                            x       y       z     vdW  Elec       q    Type
REMARK                         _______ _______ _______ _____ _____    ______ ____
ROOT
ATOM      1  N   UNL     1       1.429  -4.125   0.000  0.00  0.00    -0.142 NA
ATOM      2  C   UNL     1       0.715  -3.712   0.000  0.00  0.00    +0.345 C 
ATOM      3  N   UNL     1       0.000  -4.125   0.000  0.00  0.00    -0.184 NA
ATOM      4  O   UNL     1       0.715  -2.888   0.000  0.00  0.00    -0.249 OA
ENDROOT
BRANCH   1   8
ATOM      5  C   UNL     1       2.858  -1.650   0.000  0.00  0.00    +0.052 C 
ATOM      6  C   UNL     1       2.858  -2.475   0.000  0.00  0.00    +0.061 A 
ATOM      7  N   UNL     1       2.143  -2.888   0.000  0.00  0.00    -0.233 NA
ATOM      8  C   UNL     1       2.143  -3.712   0.000  0.00  0.00    +0.156 A 
ATOM      9  C   UNL     1       2.858  -4.125   0.000  0.00  0.00    +0.036 A 
ATOM     10  C   UNL     1       3.572  -3.712   0.000  0.00  0.00    +0.004 A 
ATOM     11  C   UNL     1       3.572  -2.888   0.000  0.00  0.00    +0.015 A 
ENDBRANCH   1   8
BRANCH   3  12
ATOM     12  C   UNL     1      -0.715  -3.712   0.000  0.00  0.00    +0.119 C 
ATOM     13  C   UNL     1      -0.715  -2.888   0.000  0.00  0.00    -0.009 C 
ATOM     14  C   UNL     1      -1.429  -2.475   0.000  0.00  0.00    -0.029 C 
ATOM     15  C   UNL     1      -2.143  -2.888   0.000  0.00  0.00    +0.026 C 
ATOM     16  C   UNL     1      -2.143  -3.712   0.000  0.00  0.00    +0.007 C 
ATOM     17  C   UNL     1      -1.429  -4.125   0.000  0.00  0.00    +0.027 C 
ENDBRANCH   3  12
TORSDOF 2
