REMARK  Name = 
REMARK  5 active torsions:
REMARK  status: ('A' for Active; 'I' for Inactive)
REMARK    1  A    between atoms: N_7  and  C_8
REMARK    2  A    between atoms: C_8  and  C_9
REMARK    3  A    between atoms: N_15  and  C_16
REMARK    4  A    between atoms: C_16  and  C_17
REMARK    5  A    between atoms: C_17  and  C_18
REMARK                            x       y       z     vdW  Elec       q    Type
REMARK                         _______ _______ _______ _____ _____    ______ ____
ROOT
ATOM      1  C   UNL     1      -0.715  -0.412   0.000  0.00  0.00    +0.019 C 
ATOM      2  C   UNL     1      -0.715  -1.238   0.000  0.00  0.00    +0.078 C 
ATOM      3  N   UNL     1      -1.429  -1.650   0.000  0.00  0.00    -0.264 NA
ATOM      4  C   UNL     1      -1.429  -2.475   0.000  0.00  0.00    +0.094 C 
ATOM      5  C   UNL     1      -0.715  -2.888   0.000  0.00  0.00    +0.112 C 
ATOM      6  N   UNL     1       0.000  -2.475   0.000  0.00  0.00    -0.260 N 
ATOM      7  C   UNL     1       0.715  -2.888   0.000  0.00  0.00    +0.323 C 
ATOM      8  N   UNL     1       1.429  -2.475   0.000  0.00  0.00    -0.188 NA
ATOM      9  O   UNL     1       0.715  -3.712   0.000  0.00  0.00    -0.251 OA
ATOM     10  C   UNL     1       0.000  -1.650   0.000  0.00  0.00    +0.111 C 
ENDROOT
BRANCH   3  11
ATOM     11  C   UNL     1      -2.143  -1.238   0.000  0.00  0.00    +0.177 C 
BRANCH  11  12
ATOM     12  C   UNL     1      -2.143  -0.412   0.000  0.00  0.00    +0.412 C 
ATOM     13  F   UNL     1      -1.318  -0.412   0.000  0.00  0.00    -0.168 F 
ATOM     14  F   UNL     1      -2.968  -0.412   0.000  0.00  0.00    -0.168 F 
ATOM     15  F   UNL     1      -2.143   0.412   0.000  0.00  0.00    -0.168 F 
ENDBRANCH  11  12
ENDBRANCH   3  11
BRANCH   8  16
ATOM     16  C   UNL     1       2.143  -2.888   0.000  0.00  0.00    +0.122 C 
BRANCH  16  17
ATOM     17  C   UNL     1       2.858  -2.475   0.000  0.00  0.00    +0.051 C 
BRANCH  17  18
ATOM     18  C   UNL     1       3.572  -2.888   0.000  0.00  0.00    -0.001 A 
ATOM     19  C   UNL     1       3.572  -3.712   0.000  0.00  0.00    +0.095 A 
ATOM     20  N   UNL     1       4.287  -4.125   0.000  0.00  0.00    -0.243 NA
ATOM     21  C   UNL     1       5.001  -3.712   0.000  0.00  0.00    +0.099 A 
ATOM     22  C   UNL     1       5.001  -2.888   0.000  0.00  0.00    +0.020 A 
ATOM     23  C   UNL     1       4.287  -2.475   0.000  0.00  0.00    -0.001 A 
ENDBRANCH  17  18
ENDBRANCH  16  17
ENDBRANCH   8  16
TORSDOF 5
