REMARK  Name = 
REMARK  4 active torsions:
REMARK  status: ('A' for Active; 'I' for Inactive)
REMARK    1  A    between atoms: C_7  and  N_8
REMARK    2  A    between atoms: N_11  and  C_12
REMARK    3  A    between atoms: N_15  and  C_16
REMARK    4  A    between atoms: C_16  and  C_17
REMARK                            x       y       z     vdW  Elec       q    Type
REMARK                         _______ _______ _______ _____ _____    ______ ____
ROOT
ATOM      1  C   UNL     1      -0.107   5.590   0.000  0.00  0.00    +0.100 C 
ATOM      2  C   UNL     1      -0.107   4.765   0.000  0.00  0.00    +0.039 C 
ATOM      3  C   UNL     1       0.608   4.353   0.000  0.00  0.00    +0.074 C 
ATOM      4  N   UNL     1       1.322   4.765   0.000  0.00  0.00    -0.272 NA
ATOM      5  C   UNL     1       1.322   5.590   0.000  0.00  0.00    +0.074 C 
ATOM      6  C   UNL     1       0.608   6.003   0.000  0.00  0.00    +0.039 C 
ENDROOT
BRANCH   1   9
ATOM      7  N   UNL     1      -2.250   6.003   0.000  0.00  0.00    -0.159 NA
ATOM      8  C   UNL     1      -1.536   5.590   0.000  0.00  0.00    +0.344 C 
ATOM      9  N   UNL     1      -0.821   6.003   0.000  0.00  0.00    -0.189 NA
ATOM     10  O   UNL     1      -1.536   4.765   0.000  0.00  0.00    -0.249 OA
BRANCH   7  13
ATOM     11  F   UNL     1      -2.250   4.353   0.000  0.00  0.00    -0.201 F 
ATOM     12  C   UNL     1      -2.965   4.765   0.000  0.00  0.00    +0.174 A 
ATOM     13  C   UNL     1      -2.965   5.590   0.000  0.00  0.00    +0.105 A 
ATOM     14  C   UNL     1      -3.679   6.003   0.000  0.00  0.00    +0.040 A 
ATOM     15  C   UNL     1      -4.394   5.590   0.000  0.00  0.00    +0.100 A 
ATOM     16  N   UNL     1      -4.394   4.765   0.000  0.00  0.00    -0.240 NA
ATOM     17  C   UNL     1      -3.679   4.353   0.000  0.00  0.00    +0.130 A 
ENDBRANCH   7  13
ENDBRANCH   1   9
BRANCH   4  18
ATOM     18  C   UNL     1       2.037   4.353   0.000  0.00  0.00    +0.075 C 
BRANCH  18  19
ATOM     19  C   UNL     1       2.037   3.528   0.000  0.00  0.00    +0.048 C 
ATOM     20  C   UNL     1       1.369   3.043   0.000  0.00  0.00    +0.144 C 
ATOM     21  O   UNL     1       1.624   2.258   0.000  0.00  0.00    -0.354 OA
ATOM     22  C   UNL     1       2.449   2.258   0.000  0.00  0.00    +0.142 C 
ATOM     23  C   UNL     1       2.704   3.043   0.000  0.00  0.00    +0.036 C 
ENDBRANCH  18  19
ENDBRANCH   4  18
TORSDOF 4
