REMARK  Name = 
REMARK  3 active torsions:
REMARK  status: ('A' for Active; 'I' for Inactive)
REMARK    1  A    between atoms: C_2  and  N_4
REMARK    2  A    between atoms: C_7  and  C_8
REMARK    3  A    between atoms: C_8  and  N_9
REMARK                            x       y       z     vdW  Elec       q    Type
REMARK                         _______ _______ _______ _____ _____    ______ ____
ROOT
ATOM      1  N   UNL     1       2.102  -1.996   0.000  0.00  0.00    -0.187 NA
ATOM      2  C   UNL     1       2.816  -2.408   0.000  0.00  0.00    +0.345 C 
ATOM      3  N   UNL     1       3.530  -1.996   0.000  0.00  0.00    -0.139 NA
ATOM      4  C   UNL     1       4.245  -2.408   0.000  0.00  0.00    +0.197 A 
ATOM      5  N   UNL     1       4.331  -3.229   0.000  0.00  0.00    -0.060 NA
ATOM      6  O   UNL     1       5.138  -3.400   0.000  0.00  0.00    -0.356 OA
ATOM      7  C   UNL     1       5.551  -2.686   0.000  0.00  0.00    +0.156 A 
ATOM      8  C   UNL     1       6.371  -2.599   0.000  0.00  0.00    +0.075 C 
ATOM      9  C   UNL     1       4.999  -2.073   0.000  0.00  0.00    +0.075 A 
ATOM     10  O   UNL     1       2.816  -3.233   0.000  0.00  0.00    -0.249 OA
ENDROOT
BRANCH   1  11
ATOM     11  C   UNL     1       1.387  -2.408   0.000  0.00  0.00    +0.118 C 
BRANCH  11  14
ATOM     12  N   UNL     1      -0.633  -1.718   0.000  0.00  0.00    -0.274 NA
ATOM     13  C   UNL     1      -0.081  -2.331   0.000  0.00  0.00    +0.074 C 
ATOM     14  C   UNL     1       0.672  -1.996   0.000  0.00  0.00    +0.039 C 
ATOM     15  C   UNL     1       0.586  -1.175   0.000  0.00  0.00    +0.020 C 
ATOM     16  C   UNL     1      -0.221  -1.004   0.000  0.00  0.00    +0.072 C 
BRANCH  12  18
ATOM     17  C   UNL     1      -1.939  -1.137   0.000  0.00  0.00    +0.017 C 
ATOM     18  C   UNL     1      -1.454  -1.804   0.000  0.00  0.00    +0.058 C 
ATOM     19  C   UNL     1      -1.789  -2.558   0.000  0.00  0.00    +0.017 C 
ENDBRANCH  12  18
ENDBRANCH  11  14
ENDBRANCH   1  11
TORSDOF 3
