REMARK  Name = 
REMARK  3 active torsions:
REMARK  status: ('A' for Active; 'I' for Inactive)
REMARK    1  A    between atoms: N_11  and  C_12
REMARK    2  A    between atoms: C_12  and  C_13
REMARK    3  A    between atoms: C_13  and  C_14
REMARK                            x       y       z     vdW  Elec       q    Type
REMARK                         _______ _______ _______ _____ _____    ______ ____
ROOT
ATOM      1  C   UNL     1      -1.429   1.650   0.000  0.00  0.00    +0.002 C 
ATOM      2  C   UNL     1      -0.715   2.062   0.000  0.00  0.00    +0.020 C 
ATOM      3  C   UNL     1       0.000   1.650   0.000  0.00  0.00    +0.095 C 
ATOM      4  N   UNL     1       0.715   2.062   0.000  0.00  0.00    -0.263 N 
ATOM      5  C   UNL     1       1.429   1.650   0.000  0.00  0.00    +0.323 C 
ATOM      6  N   UNL     1       2.143   2.062   0.000  0.00  0.00    -0.188 NA
ATOM      7  O   UNL     1       1.429   0.825   0.000  0.00  0.00    -0.251 OA
ATOM      8  C   UNL     1       0.715   2.888   0.000  0.00  0.00    +0.095 C 
ATOM      9  C   UNL     1       0.000   3.300   0.000  0.00  0.00    +0.020 C 
ATOM     10  C   UNL     1       0.000   4.125   0.000  0.00  0.00    +0.002 C 
ATOM     11  C   UNL     1      -0.715   2.888   0.000  0.00  0.00    +0.003 C 
ENDROOT
BRANCH   6  12
ATOM     12  C   UNL     1       2.858   1.650   0.000  0.00  0.00    +0.127 C 
BRANCH  12  13
ATOM     13  C   UNL     1       3.572   2.062   0.000  0.00  0.00    +0.111 C 
BRANCH  13  14
ATOM     14  C   UNL     1       4.287   1.650   0.000  0.00  0.00    +0.238 A 
ATOM     15  O   UNL     1       4.373   0.830   0.000  0.00  0.00    -0.337 OA
ATOM     16  N   UNL     1       5.180   0.658   0.000  0.00  0.00    -0.061 NA
ATOM     17  C   UNL     1       5.593   1.373   0.000  0.00  0.00    +0.181 A 
ATOM     18  C   UNL     1       6.413   1.459   0.000  0.00  0.00    +0.077 C 
ATOM     19  N   UNL     1       5.040   1.986   0.000  0.00  0.00    -0.195 NA
ENDBRANCH  13  14
ENDBRANCH  12  13
ENDBRANCH   6  12
TORSDOF 3
