REMARK  Name = 
REMARK  5 active torsions:
REMARK  status: ('A' for Active; 'I' for Inactive)
REMARK    1  A    between atoms: C_8  and  C_9
REMARK    2  A    between atoms: C_8  and  N_12
REMARK    3  A    between atoms: N_12  and  C_13
REMARK    4  A    between atoms: C_13  and  C_14
REMARK    5  A    between atoms: C_14  and  N_15
REMARK                            x       y       z     vdW  Elec       q    Type
REMARK                         _______ _______ _______ _____ _____    ______ ____
ROOT
ATOM      1  C   UNL     1       1.052  -0.188   0.000  0.00  0.00    +0.000 C 
ATOM      2  C   UNL     1       1.335   0.587   0.000  0.00  0.00    +0.001 C 
ATOM      3  C   UNL     1       2.147   0.730   0.000  0.00  0.00    +0.019 C 
ATOM      4  C   UNL     1       2.429   1.505   0.000  0.00  0.00    +0.090 C 
ATOM      5  C   UNL     1       1.899   2.137   0.000  0.00  0.00    +0.019 C 
ATOM      6  C   UNL     1       1.087   1.994   0.000  0.00  0.00    +0.001 C 
ATOM      7  C   UNL     1       1.087   2.819   0.000  0.00  0.00    +0.000 C 
ATOM      8  C   UNL     1       0.274   2.137   0.000  0.00  0.00    +0.000 C 
ATOM      9  C   UNL     1       0.804   1.219   0.000  0.00  0.00    +0.000 C 
ENDROOT
BRANCH   4  10
ATOM     10  C   UNL     1       2.960   2.137   0.000  0.00  0.00    +0.198 C 
ATOM     11  O   UNL     1       3.772   1.994   0.000  0.00  0.00    -0.219 OA
ENDBRANCH   4  10
BRANCH   4  12
ATOM     12  N   UNL     1       3.144   1.093   0.000  0.00  0.00    -0.216 NA
BRANCH  12  13
ATOM     13  C   UNL     1       3.144   0.268   0.000  0.00  0.00    +0.115 C 
BRANCH  13  14
ATOM     14  C   UNL     1       3.858  -0.145   0.000  0.00  0.00    +0.148 C 
BRANCH  14  15
ATOM     15  N   UNL     1       3.858  -0.970   0.000  0.00  0.00    -0.229 N 
ATOM     16  N   UNL     1       3.191  -1.455   0.000  0.00  0.00    -0.145 NA
ATOM     17  C   UNL     1       3.446  -2.239   0.000  0.00  0.00    +0.221 A 
ATOM     18  N   UNL     1       4.271  -2.239   0.000  0.00  0.00    -0.201 NA
ATOM     19  C   UNL     1       4.526  -1.455   0.000  0.00  0.00    +0.197 A 
ENDBRANCH  14  15
ENDBRANCH  13  14
ENDBRANCH  12  13
ENDBRANCH   4  12
TORSDOF 5
