REMARK  Name = 
REMARK  4 active torsions:
REMARK  status: ('A' for Active; 'I' for Inactive)
REMARK    1  A    between atoms: C_2  and  C_3
REMARK    2  A    between atoms: C_3  and  N_4
REMARK    3  A    between atoms: C_6  and  C_15
REMARK    4  A    between atoms: C_8  and  C_11
REMARK                            x       y       z     vdW  Elec       q    Type
REMARK                         _______ _______ _______ _____ _____    ______ ____
ROOT
ATOM      1  N   UNL     1      -0.412   4.014   0.000  0.00  0.00    -0.214 N 
ATOM      2  C   UNL     1      -1.127   4.427   0.000  0.00  0.00    +0.280 A 
ATOM      3  O   UNL     1      -1.127   5.252   0.000  0.00  0.00    -0.266 OA
ATOM      4  C   UNL     1      -1.841   4.014   0.000  0.00  0.00    +0.130 A 
ATOM      5  C   UNL     1      -1.841   3.189   0.000  0.00  0.00    +0.025 A 
ATOM      6  C   UNL     1      -1.127   2.777   0.000  0.00  0.00    +0.078 A 
ATOM      7  N   UNL     1      -0.412   3.189   0.000  0.00  0.00    -0.171 NA
ENDROOT
BRANCH   4   8
ATOM      8  C   UNL     1      -2.556   4.427   0.000  0.00  0.00    +0.423 C 
ATOM      9  F   UNL     1      -2.143   5.141   0.000  0.00  0.00    -0.166 F 
ATOM     10  F   UNL     1      -2.968   3.712   0.000  0.00  0.00    -0.166 F 
ATOM     11  F   UNL     1      -3.270   4.840   0.000  0.00  0.00    -0.166 F 
ENDBRANCH   4   8
BRANCH   6  12
ATOM     12  C   UNL     1      -1.127   1.952   0.000  0.00  0.00    +0.042 C 
ATOM     13  C   UNL     1      -1.540   1.238   0.000  0.00  0.00    +0.006 C 
ATOM     14  C   UNL     1      -0.715   1.238   0.000  0.00  0.00    +0.006 C 
ENDBRANCH   6  12
BRANCH   1  15
ATOM     15  C   UNL     1       0.302   4.427   0.000  0.00  0.00    +0.161 C 
BRANCH  15  17
ATOM     16  O   UNL     1      -0.510   5.109   0.000  0.00  0.00    -0.224 OA
ATOM     17  C   UNL     1       0.302   5.252   0.000  0.00  0.00    +0.149 C 
ATOM     18  C   UNL     1       1.114   5.109   0.000  0.00  0.00    +0.032 C 
ATOM     19  C   UNL     1       1.645   5.741   0.000  0.00  0.00    +0.003 C 
ATOM     20  C   UNL     1       1.363   6.516   0.000  0.00  0.00    +0.000 C 
ATOM     21  C   UNL     1       0.550   6.659   0.000  0.00  0.00    +0.003 C 
ATOM     22  C   UNL     1       0.020   6.027   0.000  0.00  0.00    +0.032 C 
ENDBRANCH  15  17
ENDBRANCH   1  15
TORSDOF 4
