REMARK  Name = 
REMARK  4 active torsions:
REMARK  status: ('A' for Active; 'I' for Inactive)
REMARK    1  A    between atoms: N_7  and  C_8
REMARK    2  A    between atoms: C_8  and  C_9
REMARK    3  A    between atoms: N_11  and  C_12
REMARK    4  A    between atoms: C_12  and  C_18
REMARK                            x       y       z     vdW  Elec       q    Type
REMARK                         _______ _______ _______ _____ _____    ______ ____
ROOT
ATOM      1  C   UNL     1       0.594  -4.734   0.000  0.00  0.00    +0.267 C 
ATOM      2  N   UNL     1       1.309  -5.146   0.000  0.00  0.00    -0.196 NA
ATOM      3  O   UNL     1      -0.120  -5.146   0.000  0.00  0.00    -0.271 OA
ENDROOT
BRANCH   2   4
ATOM      4  C   UNL     1       1.309  -5.971   0.000  0.00  0.00    +0.171 C 
ATOM      5  C   UNL     1       0.496  -5.828   0.000  0.00  0.00    +0.031 C 
ATOM      6  C   UNL     1      -0.034  -6.460   0.000  0.00  0.00    +0.002 C 
ATOM      7  C   UNL     1       0.248  -7.235   0.000  0.00  0.00    +0.000 C 
ATOM      8  C   UNL     1       1.061  -7.378   0.000  0.00  0.00    +0.002 C 
ATOM      9  C   UNL     1       1.591  -6.747   0.000  0.00  0.00    +0.031 C 
BRANCH   4  10
ATOM     10  C   UNL     1       2.121  -5.828   0.000  0.00  0.00    +0.382 C 
ATOM     11  O   UNL     1       2.403  -5.053   0.000  0.00  0.00    -0.244 OA
ATOM     12  O   UNL     1       2.651  -6.460   0.000  0.00  0.00    -0.244 OA
ENDBRANCH   4  10
ENDBRANCH   2   4
BRANCH   1  13
ATOM     13  C   UNL     1       0.594  -3.909   0.000  0.00  0.00    +0.217 C 
BRANCH  13  17
ATOM     14  C   UNL     1       2.023  -1.434   0.000  0.00  0.00    +0.054 C 
ATOM     15  C   UNL     1       2.023  -2.259   0.000  0.00  0.00    +0.079 A 
ATOM     16  N   UNL     1       1.309  -2.671   0.000  0.00  0.00    -0.171 NA
ATOM     17  N   UNL     1       1.309  -3.496   0.000  0.00  0.00    -0.207 N 
ATOM     18  C   UNL     1       2.023  -3.909   0.000  0.00  0.00    +0.277 A 
ATOM     19  O   UNL     1       2.023  -4.734   0.000  0.00  0.00    -0.265 OA
ATOM     20  C   UNL     1       2.738  -3.496   0.000  0.00  0.00    +0.063 A 
ATOM     21  C   UNL     1       2.738  -2.671   0.000  0.00  0.00    +0.021 A 
ENDBRANCH  13  17
ENDBRANCH   1  13
TORSDOF 4
