REMARK  Name = 
REMARK  3 active torsions:
REMARK  status: ('A' for Active; 'I' for Inactive)
REMARK    1  A    between atoms: O_2  and  C_3
REMARK    2  A    between atoms: C_3  and  C_4
REMARK    3  A    between atoms: C_4  and  N_5
REMARK                            x       y       z     vdW  Elec       q    Type
REMARK                         _______ _______ _______ _____ _____    ______ ____
ROOT
ATOM      1  N   UNL     1       1.429  -2.475   0.000  0.00  0.00    -0.184 NA
ATOM      2  C   UNL     1       2.143  -2.888   0.000  0.00  0.00    +0.345 C 
ATOM      3  N   UNL     1       2.858  -2.475   0.000  0.00  0.00    -0.142 NA
ATOM      4  C   UNL     1       3.572  -2.888   0.000  0.00  0.00    +0.156 A 
ATOM      5  N   UNL     1       3.572  -3.712   0.000  0.00  0.00    -0.228 NA
ATOM      6  C   UNL     1       4.287  -4.125   0.000  0.00  0.00    +0.096 A 
ATOM      7  C   UNL     1       5.001  -3.712   0.000  0.00  0.00    -0.003 A 
ATOM      8  C   UNL     1       5.716  -4.125   0.000  0.00  0.00    +0.033 C 
ATOM      9  C   UNL     1       5.001  -2.888   0.000  0.00  0.00    +0.000 A 
ATOM     10  C   UNL     1       4.287  -2.475   0.000  0.00  0.00    +0.036 A 
ATOM     11  O   UNL     1       2.143  -3.712   0.000  0.00  0.00    -0.249 OA
ENDROOT
BRANCH   1  12
ATOM     12  C   UNL     1       1.429  -1.650   0.000  0.00  0.00    +0.144 C 
BRANCH  12  13
ATOM     13  C   UNL     1       2.143  -1.238   0.000  0.00  0.00    +0.113 C 
ATOM     14  C   UNL     1       2.556  -1.952   0.000  0.00  0.00    +0.029 C 
ATOM     15  C   UNL     1       3.270  -1.540   0.000  0.00  0.00    +0.005 C 
ATOM     16  C   UNL     1       2.858  -0.825   0.000  0.00  0.00    +0.029 C 
BRANCH  13  18
ATOM     17  C   UNL     1       0.906  -0.523   0.000  0.00  0.00    +0.174 C 
ATOM     18  O   UNL     1       1.731  -0.523   0.000  0.00  0.00    -0.354 OA
ENDBRANCH  13  18
ENDBRANCH  12  13
ENDBRANCH   1  12
TORSDOF 3
