REMARK  Name = 
REMARK  4 active torsions:
REMARK  status: ('A' for Active; 'I' for Inactive)
REMARK    1  A    between atoms: N_3  and  C_4
REMARK    2  A    between atoms: C_4  and  C_5
REMARK    3  A    between atoms: C_5  and  C_6
REMARK    4  A    between atoms: N_12  and  C_13
REMARK                            x       y       z     vdW  Elec       q    Type
REMARK                         _______ _______ _______ _____ _____    ______ ____
ROOT
ATOM      1  C   UNL     1       5.716  -6.600   0.000  0.00  0.00    +0.094 A 
ATOM      2  C   UNL     1       5.716  -7.425   0.000  0.00  0.00    +0.117 A 
ATOM      3  N   UNL     1       6.430  -7.838   0.000  0.00  0.00    -0.228 NA
ATOM      4  C   UNL     1       7.145  -7.425   0.000  0.00  0.00    +0.132 A 
ATOM      5  N   UNL     1       7.859  -7.838   0.000  0.00  0.00    -0.283 N 
ATOM      6  C   UNL     1       7.859  -8.662   0.000  0.00  0.00    +0.180 C 
ATOM      7  C   UNL     1       8.574  -9.075   0.000  0.00  0.00    +0.262 C 
ATOM      8  O   UNL     1       8.574  -9.900   0.000  0.00  0.00    -0.271 OA
ATOM      9  N   UNL     1       9.288  -8.662   0.000  0.00  0.00    -0.202 NA
ATOM     10  C   UNL     1       9.288  -7.838   0.000  0.00  0.00    +0.137 C 
ATOM     11  C   UNL     1       8.574  -7.425   0.000  0.00  0.00    +0.116 C 
ATOM     12  C   UNL     1       7.145  -6.600   0.000  0.00  0.00    +0.036 A 
ATOM     13  C   UNL     1       6.430  -6.188   0.000  0.00  0.00    +0.021 A 
ENDROOT
BRANCH   1  16
ATOM     14  O   UNL     1       4.287  -7.425   0.000  0.00  0.00    -0.249 OA
ATOM     15  C   UNL     1       4.287  -6.600   0.000  0.00  0.00    +0.344 C 
ATOM     16  N   UNL     1       5.001  -6.188   0.000  0.00  0.00    -0.159 NA
ATOM     17  N   UNL     1       3.572  -6.188   0.000  0.00  0.00    -0.187 NA
BRANCH  17  18
ATOM     18  C   UNL     1       2.858  -6.600   0.000  0.00  0.00    +0.121 C 
BRANCH  18  19
ATOM     19  C   UNL     1       2.143  -6.188   0.000  0.00  0.00    +0.045 C 
BRANCH  19  20
ATOM     20  C   UNL     1       1.429  -6.600   0.000  0.00  0.00    -0.047 C 
ATOM     21  C   UNL     1       0.715  -6.188   0.000  0.00  0.00    +0.022 C 
ATOM     22  C   UNL     1       0.000  -6.600   0.000  0.00  0.00    +0.005 C 
ATOM     23  C   UNL     1       0.000  -7.425   0.000  0.00  0.00    +0.005 C 
ATOM     24  C   UNL     1       0.715  -7.838   0.000  0.00  0.00    +0.025 C 
ATOM     25  C   UNL     1       1.429  -7.425   0.000  0.00  0.00    -0.035 C 
ENDBRANCH  19  20
ENDBRANCH  18  19
ENDBRANCH  17  18
ENDBRANCH   1  16
TORSDOF 4
