REMARK  Name = 
REMARK  4 active torsions:
REMARK  status: ('A' for Active; 'I' for Inactive)
REMARK    1  A    between atoms: C_2  and  C_3
REMARK    2  A    between atoms: C_3  and  C_4
REMARK    3  A    between atoms: C_4  and  N_5
REMARK    4  A    between atoms: C_8  and  N_9
REMARK                            x       y       z     vdW  Elec       q    Type
REMARK                         _______ _______ _______ _____ _____    ______ ____
ROOT
ATOM      1  N   UNL     1       0.715  -1.238   0.000  0.00  0.00    -0.264 N 
ATOM      2  C   UNL     1       0.000  -1.650   0.000  0.00  0.00    +0.354 A 
ATOM      3  O   UNL     1      -0.715  -1.238   0.000  0.00  0.00    -0.244 OA
ATOM      4  N   UNL     1       0.000  -2.475   0.000  0.00  0.00    -0.152 NA
ATOM      5  C   UNL     1       0.715  -2.888   0.000  0.00  0.00    +0.299 A 
ATOM      6  O   UNL     1       0.715  -3.712   0.000  0.00  0.00    -0.264 OA
ATOM      7  C   UNL     1       1.429  -2.475   0.000  0.00  0.00    +0.140 A 
ATOM      8  C   UNL     1       1.429  -1.650   0.000  0.00  0.00    +0.173 A 
ATOM      9  N   UNL     1       2.143  -1.238   0.000  0.00  0.00    -0.107 NA
ENDROOT
BRANCH   7  10
ATOM     10  N   UNL     1       2.143  -2.888   0.000  0.00  0.00    -0.297 N 
ATOM     11  C   UNL     1       2.143  -3.712   0.000  0.00  0.00    +0.123 C 
ATOM     12  C   UNL     1       2.858  -4.125   0.000  0.00  0.00    +0.164 C 
ATOM     13  O   UNL     1       3.572  -3.712   0.000  0.00  0.00    -0.350 OA
ATOM     14  C   UNL     1       3.572  -2.888   0.000  0.00  0.00    +0.164 C 
ATOM     15  C   UNL     1       2.858  -2.475   0.000  0.00  0.00    +0.123 C 
ENDBRANCH   7  10
BRANCH   1  16
ATOM     16  C   UNL     1       0.715  -0.412   0.000  0.00  0.00    +0.112 C 
BRANCH  16  17
ATOM     17  C   UNL     1       0.000   0.000   0.000  0.00  0.00    +0.025 C 
BRANCH  17  19
ATOM     18  C   UNL     1      -0.715   1.238   0.000  0.00  0.00    +0.000 C 
ATOM     19  C   UNL     1       0.000   0.825   0.000  0.00  0.00    +0.002 C 
ENDBRANCH  17  19
ENDBRANCH  16  17
ENDBRANCH   1  16
TORSDOF 4
