REMARK  Name = 
REMARK  2 active torsions:
REMARK  status: ('A' for Active; 'I' for Inactive)
REMARK    1  A    between atoms: N_4  and  C_9
REMARK    2  A    between atoms: C_16  and  C_17
REMARK                            x       y       z     vdW  Elec       q    Type
REMARK                         _______ _______ _______ _____ _____    ______ ____
ROOT
ATOM      1  C   UNL     1       2.143  -2.888   0.000  0.00  0.00    +0.136 A 
ATOM      2  C   UNL     1       2.143  -3.712   0.000  0.00  0.00    +0.084 A 
ATOM      3  C   UNL     1       2.858  -4.125   0.000  0.00  0.00    -0.013 A 
ATOM      4  C   UNL     1       2.858  -4.950   0.000  0.00  0.00    +0.031 C 
ATOM      5  C   UNL     1       3.572  -3.712   0.000  0.00  0.00    +0.011 A 
ATOM      6  C   UNL     1       3.572  -2.888   0.000  0.00  0.00    +0.060 A 
ATOM      7  C   UNL     1       4.287  -2.475   0.000  0.00  0.00    +0.052 C 
ATOM      8  N   UNL     1       2.858  -2.475   0.000  0.00  0.00    -0.235 NA
ENDROOT
BRANCH   1  15
ATOM      9  C   UNL     1       0.715  -0.412   0.000  0.00  0.00    +0.034 C 
ATOM     10  C   UNL     1       0.715  -1.238   0.000  0.00  0.00    +0.135 C 
ATOM     11  O   UNL     1       0.000  -1.650   0.000  0.00  0.00    -0.355 OA
ATOM     12  C   UNL     1       0.000  -2.475   0.000  0.00  0.00    +0.135 C 
ATOM     13  C   UNL     1      -0.715  -2.888   0.000  0.00  0.00    +0.034 C 
ATOM     14  C   UNL     1       0.715  -2.888   0.000  0.00  0.00    +0.122 C 
ATOM     15  N   UNL     1       1.429  -2.475   0.000  0.00  0.00    -0.288 N 
ATOM     16  C   UNL     1       1.429  -1.650   0.000  0.00  0.00    +0.122 C 
ENDBRANCH   1  15
BRANCH   2  17
ATOM     17  C   UNL     1       1.429  -4.125   0.000  0.00  0.00    +0.287 C 
ATOM     18  N   UNL     1       1.429  -4.950   0.000  0.00  0.00    -0.084 NA
ATOM     19  O   UNL     1       0.715  -3.712   0.000  0.00  0.00    -0.267 OA
ENDBRANCH   2  17
TORSDOF 2
