REMARK  Name = 
REMARK  3 active torsions:
REMARK  status: ('A' for Active; 'I' for Inactive)
REMARK    1  A    between atoms: O_2  and  C_3
REMARK    2  A    between atoms: C_6  and  N_7
REMARK    3  A    between atoms: C_8  and  C_10
REMARK                            x       y       z     vdW  Elec       q    Type
REMARK                         _______ _______ _______ _____ _____    ______ ____
ROOT
ATOM      1  C   UNL     1      -0.715   8.416   0.000  0.00  0.00    +0.225 A 
ATOM      2  N   UNL     1      -1.429   8.004   0.000  0.00  0.00    -0.209 NA
ATOM      3  C   UNL     1      -1.429   7.179   0.000  0.00  0.00    +0.119 A 
ATOM      4  C   UNL     1      -0.715   6.766   0.000  0.00  0.00    +0.093 A 
ATOM      5  C   UNL     1       0.000   7.179   0.000  0.00  0.00    +0.023 A 
ATOM      6  C   UNL     1       0.000   8.004   0.000  0.00  0.00    +0.059 A 
ENDROOT
BRANCH   4   7
ATOM      7  N   UNL     1      -0.715   5.941   0.000  0.00  0.00    -0.176 NA
ATOM      8  C   UNL     1       0.000   5.529   0.000  0.00  0.00    +0.273 C 
ATOM      9  O   UNL     1       0.715   5.941   0.000  0.00  0.00    -0.270 OA
BRANCH   8  10
ATOM     10  C   UNL     1       0.000   4.704   0.000  0.00  0.00    +0.193 C 
ATOM     11  O   UNL     1      -0.667   4.219   0.000  0.00  0.00    -0.347 OA
ATOM     12  C   UNL     1      -0.412   3.434   0.000  0.00  0.00    +0.143 C 
ATOM     13  C   UNL     1       0.412   3.434   0.000  0.00  0.00    +0.035 C 
ATOM     14  C   UNL     1       0.667   4.219   0.000  0.00  0.00    +0.042 C 
ENDBRANCH   8  10
ENDBRANCH   4   7
BRANCH   1  16
ATOM     15  C   UNL     1      -1.429   9.654   0.000  0.00  0.00    +0.254 C 
ATOM     16  O   UNL     1      -0.715   9.241   0.000  0.00  0.00    -0.456 OA
ENDBRANCH   1  16
TORSDOF 3
