REMARK  Name = 
REMARK  5 active torsions:
REMARK  status: ('A' for Active; 'I' for Inactive)
REMARK    1  A    between atoms: C_2  and  N_3
REMARK    2  A    between atoms: C_2  and  C_11
REMARK    3  A    between atoms: N_3  and  C_4
REMARK    4  A    between atoms: C_4  and  C_5
REMARK    5  A    between atoms: C_5  and  N_6
REMARK                            x       y       z     vdW  Elec       q    Type
REMARK                         _______ _______ _______ _____ _____    ______ ____
ROOT
ATOM      1  C   UNL     1       3.447  -5.287   0.000  0.00  0.00    +0.029 C 
ATOM      2  C   UNL     1       3.447  -4.462   0.000  0.00  0.00    +0.149 C 
ENDROOT
BRANCH   2   3
ATOM      3  C   UNL     1       4.162  -4.050   0.000  0.00  0.00    +0.241 C 
ATOM      4  N   UNL     1       4.876  -4.462   0.000  0.00  0.00    -0.278 N 
ATOM      5  C   UNL     1       4.814  -5.285   0.000  0.00  0.00    +0.093 C 
ATOM      6  C   UNL     1       5.419  -5.846   0.000  0.00  0.00    +0.022 C 
ATOM      7  C   UNL     1       6.235  -5.723   0.000  0.00  0.00    +0.002 C 
ATOM      8  C   UNL     1       6.648  -5.008   0.000  0.00  0.00    +0.002 C 
ATOM      9  C   UNL     1       6.346  -4.240   0.000  0.00  0.00    +0.022 C 
ATOM     10  C   UNL     1       5.558  -3.997   0.000  0.00  0.00    +0.093 C 
ATOM     11  O   UNL     1       4.162  -3.225   0.000  0.00  0.00    -0.273 OA
ENDBRANCH   2   3
BRANCH   2  12
ATOM     12  N   UNL     1       2.733  -4.050   0.000  0.00  0.00    -0.208 NA
BRANCH  12  13
ATOM     13  C   UNL     1       2.018  -4.462   0.000  0.00  0.00    +0.115 C 
BRANCH  13  14
ATOM     14  C   UNL     1       1.304  -4.050   0.000  0.00  0.00    +0.146 C 
BRANCH  14  15
ATOM     15  N   UNL     1       0.589  -4.462   0.000  0.00  0.00    -0.248 N 
ATOM     16  N   UNL     1      -0.164  -4.127   0.000  0.00  0.00    -0.168 NA
ATOM     17  C   UNL     1      -0.716  -4.740   0.000  0.00  0.00    +0.122 A 
ATOM     18  C   UNL     1      -0.304  -5.454   0.000  0.00  0.00    +0.043 A 
ATOM     19  C   UNL     1       0.503  -5.283   0.000  0.00  0.00    +0.097 A 
ENDBRANCH  14  15
ENDBRANCH  13  14
ENDBRANCH  12  13
ENDBRANCH   2  12
TORSDOF 5
