REMARK  Name = 
REMARK  4 active torsions:
REMARK  status: ('A' for Active; 'I' for Inactive)
REMARK    1  A    between atoms: C_3  and  C_5
REMARK    2  A    between atoms: C_5  and  N_6
REMARK    3  A    between atoms: C_7  and  C_9
REMARK    4  A    between atoms: C_9  and  N_11
REMARK                            x       y       z     vdW  Elec       q    Type
REMARK                         _______ _______ _______ _____ _____    ______ ____
ROOT
ATOM      1  N   UNL     1       4.592  -2.952   0.000  0.00  0.00    -0.194 NA
ATOM      2  C   UNL     1       5.307  -3.364   0.000  0.00  0.00    +0.263 C 
ATOM      3  O   UNL     1       5.307  -4.189   0.000  0.00  0.00    -0.271 OA
ENDROOT
BRANCH   2   4
ATOM      4  C   UNL     1       6.021  -2.952   0.000  0.00  0.00    +0.165 C 
ATOM      5  C   UNL     1       6.021  -2.127   0.000  0.00  0.00    +0.035 C 
BRANCH   4   6
ATOM      6  N   UNL     1       6.736  -3.364   0.000  0.00  0.00    -0.301 N 
ATOM      7  C   UNL     1       6.822  -4.185   0.000  0.00  0.00    +0.179 A 
ATOM      8  N   UNL     1       7.629  -4.356   0.000  0.00  0.00    -0.222 NA
ATOM      9  C   UNL     1       8.041  -3.642   0.000  0.00  0.00    +0.119 A 
ATOM     10  C   UNL     1       7.489  -3.029   0.000  0.00  0.00    +0.098 A 
ENDBRANCH   4   6
ENDBRANCH   2   4
BRANCH   1  11
ATOM     11  C   UNL     1       3.878  -3.364   0.000  0.00  0.00    +0.201 C 
BRANCH  11  14
ATOM     12  C   UNL     1       1.734  -2.952   0.000  0.00  0.00    +0.139 C 
ATOM     13  N   UNL     1       2.449  -3.364   0.000  0.00  0.00    -0.202 NA
ATOM     14  C   UNL     1       3.163  -2.952   0.000  0.00  0.00    +0.264 C 
ATOM     15  O   UNL     1       3.163  -2.127   0.000  0.00  0.00    -0.271 OA
ENDBRANCH  11  14
ENDBRANCH   1  11
TORSDOF 4
