REMARK  Name = 
REMARK  7 active torsions:
REMARK  status: ('A' for Active; 'I' for Inactive)
REMARK    1  A    between atoms: C_2  and  N_3
REMARK    2  A    between atoms: C_2  and  C_14
REMARK    3  A    between atoms: N_3  and  C_4
REMARK    4  A    between atoms: C_4  and  C_5
REMARK    5  A    between atoms: C_5  and  C_6
REMARK    6  A    between atoms: N_8  and  C_9
REMARK    7  A    between atoms: C_14  and  N_16
REMARK                            x       y       z     vdW  Elec       q    Type
REMARK                         _______ _______ _______ _____ _____    ______ ____
ROOT
ATOM      1  N   UNL     1       7.083  -3.908   0.000  0.00  0.00    -0.217 NA
ENDROOT
BRANCH   1   3
ATOM      2  C   UNL     1       7.798  -5.146   0.000  0.00  0.00    +0.021 C 
ATOM      3  C   UNL     1       7.798  -4.321   0.000  0.00  0.00    +0.095 C 
BRANCH   3   4
ATOM      4  C   UNL     1       8.512  -3.908   0.000  0.00  0.00    +0.121 C 
ATOM      5  C   UNL     1       8.512  -3.083   0.000  0.00  0.00    +0.028 C 
BRANCH   4   6
ATOM      6  N   UNL     1       9.227  -4.321   0.000  0.00  0.00    -0.250 N 
ATOM      7  N   UNL     1       9.313  -5.141   0.000  0.00  0.00    -0.168 NA
ATOM      8  C   UNL     1      10.120  -5.312   0.000  0.00  0.00    +0.122 A 
ATOM      9  C   UNL     1      10.532  -4.598   0.000  0.00  0.00    +0.043 A 
ATOM     10  C   UNL     1       9.980  -3.985   0.000  0.00  0.00    +0.097 A 
ENDBRANCH   4   6
ENDBRANCH   3   4
ENDBRANCH   1   3
BRANCH   1  11
ATOM     11  C   UNL     1       6.369  -4.321   0.000  0.00  0.00    +0.098 C 
BRANCH  11  12
ATOM     12  C   UNL     1       5.654  -3.908   0.000  0.00  0.00    +0.106 C 
BRANCH  12  13
ATOM     13  C   UNL     1       4.940  -4.321   0.000  0.00  0.00    +0.243 C 
ATOM     14  N   UNL     1       4.225  -3.908   0.000  0.00  0.00    -0.207 NA
ATOM     15  O   UNL     1       4.940  -5.146   0.000  0.00  0.00    -0.273 OA
BRANCH  14  16
ATOM     16  C   UNL     1       3.511  -4.321   0.000  0.00  0.00    +0.095 C 
ATOM     17  C   UNL     1       2.757  -3.985   0.000  0.00  0.00    +0.022 C 
ATOM     18  C   UNL     1       2.205  -4.598   0.000  0.00  0.00    +0.002 C 
ATOM     19  C   UNL     1       2.618  -5.312   0.000  0.00  0.00    +0.002 C 
ATOM     20  C   UNL     1       3.425  -5.141   0.000  0.00  0.00    +0.022 C 
ENDBRANCH  14  16
ENDBRANCH  12  13
ENDBRANCH  11  12
ENDBRANCH   1  11
TORSDOF 7
