REMARK  Name = 
REMARK  4 active torsions:
REMARK  status: ('A' for Active; 'I' for Inactive)
REMARK    1  A    between atoms: N_5  and  C_6
REMARK    2  A    between atoms: C_6  and  C_7
REMARK    3  A    between atoms: C_7  and  C_8
REMARK    4  A    between atoms: N_10  and  C_11
REMARK                            x       y       z     vdW  Elec       q    Type
REMARK                         _______ _______ _______ _____ _____    ______ ____
ROOT
ATOM      1  C   UNL     1       0.715  -2.062   0.000  0.00  0.00    +0.123 C 
ATOM      2  N   UNL     1       0.715  -1.238   0.000  0.00  0.00    -0.225 N 
ATOM      3  C   UNL     1       0.000  -0.825   0.000  0.00  0.00    +0.139 A 
ATOM      4  N   UNL     1       0.000   0.000   0.000  0.00  0.00    -0.229 NA
ATOM      5  C   UNL     1      -0.715   0.412   0.000  0.00  0.00    +0.100 A 
ATOM      6  C   UNL     1      -1.429   0.000   0.000  0.00  0.00    +0.021 A 
ATOM      7  C   UNL     1      -1.429  -0.825   0.000  0.00  0.00    +0.004 A 
ATOM      8  C   UNL     1      -0.715  -1.238   0.000  0.00  0.00    +0.035 A 
ATOM      9  C   UNL     1       1.429  -0.825   0.000  0.00  0.00    +0.328 C 
ATOM     10  N   UNL     1       2.143  -1.238   0.000  0.00  0.00    -0.188 NA
ATOM     11  O   UNL     1       1.429   0.000   0.000  0.00  0.00    -0.250 OA
ENDROOT
BRANCH  10  12
ATOM     12  C   UNL     1       2.858  -0.825   0.000  0.00  0.00    +0.126 C 
BRANCH  12  13
ATOM     13  C   UNL     1       3.572  -1.238   0.000  0.00  0.00    +0.110 C 
BRANCH  13  14
ATOM     14  C   UNL     1       4.287  -0.825   0.000  0.00  0.00    +0.243 C 
ATOM     15  N   UNL     1       5.001  -1.238   0.000  0.00  0.00    -0.207 NA
ATOM     16  O   UNL     1       4.287   0.000   0.000  0.00  0.00    -0.273 OA
BRANCH  15  17
ATOM     17  C   UNL     1       5.716  -0.825   0.000  0.00  0.00    +0.095 C 
ATOM     18  C   UNL     1       6.469  -1.161   0.000  0.00  0.00    +0.022 C 
ATOM     19  C   UNL     1       7.021  -0.547   0.000  0.00  0.00    +0.002 C 
ATOM     20  C   UNL     1       6.609   0.167   0.000  0.00  0.00    +0.002 C 
ATOM     21  C   UNL     1       5.802  -0.004   0.000  0.00  0.00    +0.022 C 
ENDBRANCH  15  17
ENDBRANCH  13  14
ENDBRANCH  12  13
ENDBRANCH  10  12
TORSDOF 4
