REMARK  Name = 
REMARK  5 active torsions:
REMARK  status: ('A' for Active; 'I' for Inactive)
REMARK    1  A    between atoms: C_2  and  C_3
REMARK    2  A    between atoms: N_5  and  C_6
REMARK    3  A    between atoms: C_6  and  C_7
REMARK    4  A    between atoms: C_16  and  C_17
REMARK    5  A    between atoms: C_19  and  C_20
REMARK                            x       y       z     vdW  Elec       q    Type
REMARK                         _______ _______ _______ _____ _____    ______ ____
ROOT
ATOM      1  C   UNL     1       0.749  -1.770   0.000  0.00  0.00    +0.075 A 
ATOM      2  C   UNL     1       0.034  -2.183   0.000  0.00  0.00    +0.007 A 
ATOM      3  C   UNL     1       0.034  -3.007   0.000  0.00  0.00    +0.123 A 
ATOM      4  C   UNL     1       0.749  -3.420   0.000  0.00  0.00    +0.286 A 
ATOM      5  O   UNL     1       0.749  -4.245   0.000  0.00  0.00    -0.265 OA
ATOM      6  N   UNL     1       1.463  -3.007   0.000  0.00  0.00    -0.214 N 
ATOM      7  N   UNL     1       1.463  -2.183   0.000  0.00  0.00    -0.171 NA
ENDROOT
BRANCH   1   9
ATOM      8  C   UNL     1       0.034  -0.532   0.000  0.00  0.00    +0.007 C 
ATOM      9  C   UNL     1       0.749  -0.945   0.000  0.00  0.00    +0.047 C 
ENDBRANCH   1   9
BRANCH   2  10
ATOM     10  C   UNL     1      -0.680  -1.770   0.000  0.00  0.00    +0.028 C 
ATOM     11  C   UNL     1      -1.395  -2.183   0.000  0.00  0.00    +0.005 C 
ENDBRANCH   2  10
BRANCH   3  12
ATOM     12  C   UNL     1      -0.680  -3.420   0.000  0.00  0.00    +0.105 C 
ATOM     13  N   UNL     1      -1.395  -3.833   0.000  0.00  0.00    -0.191 NA
ENDBRANCH   3  12
BRANCH   6  14
ATOM     14  C   UNL     1       2.177  -3.420   0.000  0.00  0.00    +0.161 C 
BRANCH  14  15
ATOM     15  C   UNL     1       2.177  -4.245   0.000  0.00  0.00    +0.149 C 
ATOM     16  C   UNL     1       1.895  -5.020   0.000  0.00  0.00    +0.032 C 
ATOM     17  C   UNL     1       2.426  -5.652   0.000  0.00  0.00    +0.003 C 
ATOM     18  C   UNL     1       3.238  -5.509   0.000  0.00  0.00    +0.000 C 
ATOM     19  C   UNL     1       3.520  -4.734   0.000  0.00  0.00    +0.003 C 
ATOM     20  C   UNL     1       2.990  -4.102   0.000  0.00  0.00    +0.032 C 
ATOM     21  O   UNL     1       1.365  -4.102   0.000  0.00  0.00    -0.224 OA
ENDBRANCH  14  15
ENDBRANCH   6  14
TORSDOF 5
