REMARK  Name = 
REMARK  4 active torsions:
REMARK  status: ('A' for Active; 'I' for Inactive)
REMARK    1  A    between atoms: C_2  and  C_4
REMARK    2  A    between atoms: N_8  and  C_9
REMARK    3  A    between atoms: C_9  and  C_10
REMARK    4  A    between atoms: N_12  and  C_13
REMARK                            x       y       z     vdW  Elec       q    Type
REMARK                         _______ _______ _______ _____ _____    ______ ____
ROOT
ATOM      1  C   UNL     1       4.067  -3.803   0.000  0.00  0.00    +0.265 C 
ATOM      2  N   UNL     1       4.852  -3.548   0.000  0.00  0.00    -0.196 NA
ATOM      3  O   UNL     1       3.896  -4.610   0.000  0.00  0.00    -0.271 OA
ENDROOT
BRANCH   2   4
ATOM      4  C   UNL     1       5.465  -4.100   0.000  0.00  0.00    +0.173 C 
ATOM      5  C   UNL     1       5.233  -4.892   0.000  0.00  0.00    +0.261 C 
ATOM      6  O   UNL     1       4.420  -5.027   0.000  0.00  0.00    -0.271 OA
ATOM      7  N   UNL     1       5.708  -5.566   0.000  0.00  0.00    -0.204 NA
ATOM      8  C   UNL     1       6.532  -5.616   0.000  0.00  0.00    +0.115 C 
ATOM      9  C   UNL     1       7.084  -5.003   0.000  0.00  0.00    +0.024 C 
ATOM     10  C   UNL     1       6.949  -4.189   0.000  0.00  0.00    +0.004 C 
ATOM     11  C   UNL     1       6.228  -3.787   0.000  0.00  0.00    +0.031 C 
ENDBRANCH   2   4
BRANCH   1  12
ATOM     12  C   UNL     1       3.454  -3.251   0.000  0.00  0.00    +0.194 C 
BRANCH  12  14
ATOM     13  C   UNL     1       2.002  -3.021   0.000  0.00  0.00    +0.120 A 
ATOM     14  N   UNL     1       2.669  -3.506   0.000  0.00  0.00    -0.305 N 
ATOM     15  C   UNL     1       2.414  -4.290   0.000  0.00  0.00    +0.098 A 
ATOM     16  C   UNL     1       1.589  -4.290   0.000  0.00  0.00    +0.119 A 
ATOM     17  N   UNL     1       1.334  -3.506   0.000  0.00  0.00    -0.229 NA
BRANCH  13  19
ATOM     18  C   UNL     1       2.716  -1.783   0.000  0.00  0.00    +0.008 C 
ATOM     19  C   UNL     1       2.002  -2.196   0.000  0.00  0.00    +0.057 C 
ATOM     20  C   UNL     1       1.287  -1.783   0.000  0.00  0.00    +0.008 C 
ENDBRANCH  13  19
ENDBRANCH  12  14
ENDBRANCH   1  12
TORSDOF 4
