REMARK  Name = 
REMARK  6 active torsions:
REMARK  status: ('A' for Active; 'I' for Inactive)
REMARK    1  A    between atoms: C_2  and  C_3
REMARK    2  A    between atoms: C_2  and  C_12
REMARK    3  A    between atoms: C_3  and  N_4
REMARK    4  A    between atoms: N_4  and  C_5
REMARK    5  A    between atoms: C_5  and  C_6
REMARK    6  A    between atoms: C_5  and  C_9
REMARK                            x       y       z     vdW  Elec       q    Type
REMARK                         _______ _______ _______ _____ _____    ______ ____
ROOT
ATOM      1  C   UNL     1       1.132  -2.449   0.000  0.00  0.00    +0.006 C 
ATOM      2  C   UNL     1       1.132  -1.624   0.000  0.00  0.00    +0.044 C 
ENDROOT
BRANCH   2   3
ATOM      3  C   UNL     1       0.418  -1.211   0.000  0.00  0.00    +0.029 A 
ATOM      4  C   UNL     1       0.331  -0.391   0.000  0.00  0.00    +0.150 A 
ATOM      5  C   UNL     1       0.944   0.161   0.000  0.00  0.00    +0.075 C 
ATOM      6  O   UNL     1      -0.476  -0.219   0.000  0.00  0.00    -0.358 OA
ATOM      7  N   UNL     1      -0.888  -0.934   0.000  0.00  0.00    -0.082 NA
ATOM      8  C   UNL     1      -0.336  -1.547   0.000  0.00  0.00    +0.097 A 
ATOM      9  C   UNL     1      -0.508  -2.354   0.000  0.00  0.00    +0.055 C 
ENDBRANCH   2   3
BRANCH   2  10
ATOM     10  C   UNL     1       1.847  -1.211   0.000  0.00  0.00    +0.093 C 
BRANCH  10  11
ATOM     11  N   UNL     1       2.561  -1.624   0.000  0.00  0.00    -0.219 NA
BRANCH  11  12
ATOM     12  C   UNL     1       3.276  -1.211   0.000  0.00  0.00    +0.073 C 
BRANCH  12  13
ATOM     13  C   UNL     1       3.990  -1.624   0.000  0.00  0.00    +0.016 C 
ATOM     14  C   UNL     1       4.402  -2.338   0.000  0.00  0.00    +0.001 C 
ATOM     15  C   UNL     1       4.815  -1.624   0.000  0.00  0.00    +0.001 C 
ENDBRANCH  12  13
BRANCH  12  16
ATOM     16  C   UNL     1       3.276  -0.386   0.000  0.00  0.00    +0.016 C 
ATOM     17  C   UNL     1       3.688   0.328   0.000  0.00  0.00    +0.001 C 
ATOM     18  C   UNL     1       2.863   0.328   0.000  0.00  0.00    +0.001 C 
ENDBRANCH  12  16
ENDBRANCH  11  12
ENDBRANCH  10  11
ENDBRANCH   2  10
TORSDOF 6
