REMARK  Name = 
REMARK  4 active torsions:
REMARK  status: ('A' for Active; 'I' for Inactive)
REMARK    1  A    between atoms: C_2  and  C_3
REMARK    2  A    between atoms: C_3  and  N_4
REMARK    3  A    between atoms: N_11  and  C_12
REMARK    4  A    between atoms: C_12  and  C_13
REMARK                            x       y       z     vdW  Elec       q    Type
REMARK                         _______ _______ _______ _____ _____    ______ ____
ROOT
ATOM      1  O   UNL     1       1.429  -1.650   0.000  0.00  0.00    -0.271 OA
ATOM      2  C   UNL     1       1.429  -2.475   0.000  0.00  0.00    +0.265 C 
ATOM      3  N   UNL     1       2.143  -2.888   0.000  0.00  0.00    -0.204 NA
ENDROOT
BRANCH   3   4
ATOM      4  C   UNL     1       2.858  -2.475   0.000  0.00  0.00    +0.115 C 
BRANCH   4   5
ATOM      5  C   UNL     1       3.572  -2.888   0.000  0.00  0.00    +0.022 C 
ATOM      6  C   UNL     1       3.572  -3.712   0.000  0.00  0.00    +0.002 C 
ATOM      7  C   UNL     1       4.287  -4.125   0.000  0.00  0.00    +0.000 C 
ATOM      8  C   UNL     1       5.001  -3.712   0.000  0.00  0.00    +0.000 C 
ATOM      9  C   UNL     1       5.001  -2.888   0.000  0.00  0.00    +0.000 C 
ATOM     10  C   UNL     1       4.287  -2.475   0.000  0.00  0.00    +0.002 C 
ENDBRANCH   4   5
ENDBRANCH   3   4
BRANCH   2  11
ATOM     11  C   UNL     1       0.715  -2.888   0.000  0.00  0.00    +0.196 C 
BRANCH  11  12
ATOM     12  N   UNL     1       0.000  -2.475   0.000  0.00  0.00    -0.285 N 
ATOM     13  C   UNL     1       0.000  -1.650   0.000  0.00  0.00    +0.261 A 
ATOM     14  O   UNL     1       0.715  -1.238   0.000  0.00  0.00    -0.267 OA
ATOM     15  C   UNL     1      -0.715  -1.238   0.000  0.00  0.00    +0.061 A 
ATOM     16  C   UNL     1      -1.429  -1.650   0.000  0.00  0.00    +0.006 A 
ATOM     17  C   UNL     1      -1.429  -2.475   0.000  0.00  0.00    +0.019 A 
ATOM     18  C   UNL     1      -0.715  -2.888   0.000  0.00  0.00    +0.079 A 
ENDBRANCH  11  12
ENDBRANCH   2  11
TORSDOF 4
