REMARK  Name = 
REMARK  6 active torsions:
REMARK  status: ('A' for Active; 'I' for Inactive)
REMARK    1  A    between atoms: N_1  and  C_9
REMARK    2  A    between atoms: N_2  and  C_8
REMARK    3  A    between atoms: C_7  and  C_12
REMARK    4  A    between atoms: C_9  and  C_10
REMARK    5  A    between atoms: N_11  and  C_12
REMARK    6  A    between atoms: C_15  and  O_23
REMARK                            x       y       z     vdW  Elec       q    Type
REMARK                         _______ _______ _______ _____ _____    ______ ____
ROOT
ATOM      1  C   UNL     1       1.425  -2.475   0.000  0.00  0.00    +0.200 C 
ENDROOT
BRANCH   1   2
ATOM      2  N   UNL     1       2.142  -2.062   0.000  0.00  0.00    -0.238 N 
ATOM      3  C   UNL     1       2.142  -1.238   0.000  0.00  0.00    +0.294 A 
ATOM      4  O   UNL     1       1.425  -0.825   0.000  0.00  0.00    -0.264 OA
ATOM      5  C   UNL     1       2.854  -0.825   0.000  0.00  0.00    +0.213 A 
ATOM      6  C   UNL     1       3.571  -1.238   0.000  0.00  0.00    +0.116 A 
ATOM      7  N   UNL     1       3.571  -2.062   0.000  0.00  0.00    -0.255 N 
ATOM      8  F   UNL     1       2.854   0.000   0.000  0.00  0.00    -0.198 F 
ATOM      9  C   UNL     1       2.854  -2.475   0.000  0.00  0.00    +0.336 A 
ATOM     10  O   UNL     1       2.854  -3.300   0.000  0.00  0.00    -0.246 OA
BRANCH   7  11
ATOM     11  C   UNL     1       4.283  -2.475   0.000  0.00  0.00    +0.208 C 
ATOM     12  C   UNL     1       5.037  -2.138   0.000  0.00  0.00    +0.057 C 
ATOM     13  C   UNL     1       5.592  -2.750   0.000  0.00  0.00    +0.037 C 
ATOM     14  C   UNL     1       5.179  -3.467   0.000  0.00  0.00    +0.144 C 
ATOM     15  O   UNL     1       4.371  -3.292   0.000  0.00  0.00    -0.335 OA
ENDBRANCH   7  11
ENDBRANCH   1   2
BRANCH   1  16
ATOM     16  C   UNL     1       0.713  -2.062   0.000  0.00  0.00    +0.265 C 
ATOM     17  O   UNL     1       0.713  -1.238   0.000  0.00  0.00    -0.271 OA
ATOM     18  N   UNL     1       0.000  -2.475   0.000  0.00  0.00    -0.201 NA
BRANCH  18  19
ATOM     19  C   UNL     1      -0.717  -2.062   0.000  0.00  0.00    +0.120 C 
ATOM     20  C   UNL     1      -0.717  -1.238   0.000  0.00  0.00    +0.028 C 
BRANCH  19  21
ATOM     21  C   UNL     1      -1.429  -2.475   0.000  0.00  0.00    +0.031 A 
ATOM     22  C   UNL     1      -2.146  -2.062   0.000  0.00  0.00    -0.004 A 
ATOM     23  C   UNL     1      -2.858  -2.475   0.000  0.00  0.00    -0.022 A 
ATOM     24  C   UNL     1      -2.858  -3.300   0.000  0.00  0.00    -0.001 A 
ATOM     25  C   UNL     1      -2.146  -3.712   0.000  0.00  0.00    +0.036 A 
ATOM     26  C   UNL     1      -3.575  -2.062   0.000  0.00  0.00    +0.031 C 
ATOM     27  C   UNL     1      -1.429  -3.300   0.000  0.00  0.00    +0.136 A 
BRANCH  27  28
ATOM     28  O   UNL     1      -0.717  -3.712   0.000  0.00  0.00    -0.472 OA
ATOM     29  C   UNL     1      -0.717  -4.537   0.000  0.00  0.00    +0.252 C 
ENDBRANCH  27  28
ENDBRANCH  19  21
ENDBRANCH  18  19
ENDBRANCH   1  16
TORSDOF 6
