REMARK  Name = 
REMARK  8 active torsions:
REMARK  status: ('A' for Active; 'I' for Inactive)
REMARK    1  A    between atoms: N_1  and  C_2
REMARK    2  A    between atoms: C_6  and  O_10
REMARK    3  A    between atoms: C_9  and  C_17
REMARK    4  A    between atoms: O_10  and  C_13
REMARK    5  A    between atoms: C_13  and  C_19
REMARK    6  A    between atoms: C_14  and  O_16
REMARK    7  A    between atoms: C_14  and  C_22
REMARK    8  A    between atoms: O_16  and  C_17
REMARK                            x       y       z     vdW  Elec       q    Type
REMARK                         _______ _______ _______ _____ _____    ______ ____
ROOT
ATOM      1  C   UNL     1       0.046  -1.724   0.000  0.00  0.00    +0.243 C 
ATOM      2  O   UNL     1       0.300  -2.508   0.000  0.00  0.00    -0.328 OA
ATOM      3  C   UNL     1       1.127  -2.508   0.000  0.00  0.00    +0.203 C 
ATOM      4  C   UNL     1       1.381  -1.724   0.000  0.00  0.00    +0.234 C 
ATOM      5  C   UNL     1       0.714  -1.240   0.000  0.00  0.00    +0.243 C 
ATOM      6  O   UNL     1       0.714  -0.413   0.000  0.00  0.00    -0.214 OA
ENDROOT
BRANCH   1   7
ATOM      7  N   UNL     1      -0.743  -1.469   0.000  0.00  0.00    -0.253 N 
ATOM      8  C   UNL     1      -1.357  -2.020   0.000  0.00  0.00    +0.087 A 
ATOM      9  C   UNL     1      -2.141  -1.766   0.000  0.00  0.00    +0.081 A 
ATOM     10  C   UNL     1      -2.312  -0.956   0.000  0.00  0.00    +0.285 A 
ATOM     11  O   UNL     1      -3.097  -0.701   0.000  0.00  0.00    -0.265 OA
ATOM     12  N   UNL     1      -1.699  -0.405   0.000  0.00  0.00    -0.153 NA
ATOM     13  C   UNL     1      -0.914  -0.659   0.000  0.00  0.00    +0.355 A 
ATOM     14  O   UNL     1      -0.300  -0.108   0.000  0.00  0.00    -0.244 OA
ENDBRANCH   1   7
BRANCH   4  15
ATOM     15  O   UNL     1       2.166  -1.469   0.000  0.00  0.00    -0.444 OA
BRANCH  15  16
ATOM     16  C   UNL     1       2.341  -0.659   0.000  0.00  0.00    +0.341 C 
ATOM     17  O   UNL     1       1.728  -0.108   0.000  0.00  0.00    -0.245 OA
BRANCH  16  18
ATOM     18  C   UNL     1       3.126  -0.405   0.000  0.00  0.00    +0.076 A 
ATOM     19  C   UNL     1       3.740  -0.956   0.000  0.00  0.00    +0.006 A 
ATOM     20  C   UNL     1       4.524  -0.701   0.000  0.00  0.00    +0.000 A 
ATOM     21  C   UNL     1       4.700   0.108   0.000  0.00  0.00    +0.000 A 
ATOM     22  C   UNL     1       4.082   0.659   0.000  0.00  0.00    +0.000 A 
ATOM     23  C   UNL     1       3.297   0.405   0.000  0.00  0.00    +0.006 A 
ENDBRANCH  16  18
ENDBRANCH  15  16
ENDBRANCH   4  15
BRANCH   3  24
ATOM     24  C   UNL     1       1.611  -3.176   0.000  0.00  0.00    +0.242 C 
BRANCH  24  25
ATOM     25  O   UNL     1       1.277  -3.932   0.000  0.00  0.00    -0.443 OA
BRANCH  25  26
ATOM     26  C   UNL     1       1.761  -4.599   0.000  0.00  0.00    +0.341 C 
ATOM     27  O   UNL     1       2.584  -4.516   0.000  0.00  0.00    -0.245 OA
BRANCH  26  28
ATOM     28  C   UNL     1       1.427  -5.355   0.000  0.00  0.00    +0.076 A 
ATOM     29  C   UNL     1       0.605  -5.442   0.000  0.00  0.00    +0.006 A 
ATOM     30  C   UNL     1       0.267  -6.198   0.000  0.00  0.00    +0.000 A 
ATOM     31  C   UNL     1       0.755  -6.866   0.000  0.00  0.00    +0.000 A 
ATOM     32  C   UNL     1       1.578  -6.778   0.000  0.00  0.00    +0.000 A 
ATOM     33  C   UNL     1       1.911  -6.027   0.000  0.00  0.00    +0.006 A 
ENDBRANCH  26  28
ENDBRANCH  25  26
ENDBRANCH  24  25
ENDBRANCH   3  24
TORSDOF 8
