REMARK  Name = 
REMARK  5 active torsions:
REMARK  status: ('A' for Active; 'I' for Inactive)
REMARK    1  A    between atoms: N_2  and  C_3
REMARK    2  A    between atoms: C_3  and  C_4
REMARK    3  A    between atoms: N_13  and  C_14
REMARK    4  A    between atoms: C_14  and  C_15
REMARK    5  A    between atoms: C_15  and  C_18
REMARK                            x       y       z     vdW  Elec       q    Type
REMARK                         _______ _______ _______ _____ _____    ______ ____
ROOT
ATOM      1  C   UNL     1       5.001  -3.712   0.000  0.00  0.00    +0.116 C 
ATOM      2  N   UNL     1       4.287  -3.300   0.000  0.00  0.00    -0.261 N 
ATOM      3  C   UNL     1       4.287  -2.475   0.000  0.00  0.00    +0.323 C 
ATOM      4  N   UNL     1       5.001  -2.062   0.000  0.00  0.00    -0.188 NA
ATOM      5  O   UNL     1       3.572  -2.062   0.000  0.00  0.00    -0.251 OA
ENDROOT
BRANCH   4   6
ATOM      6  C   UNL     1       5.001  -1.238   0.000  0.00  0.00    +0.121 C 
BRANCH   6   7
ATOM      7  C   UNL     1       5.716  -0.825   0.000  0.00  0.00    +0.039 C 
ATOM      8  C   UNL     1       5.303  -0.111   0.000  0.00  0.00    +0.006 C 
ATOM      9  C   UNL     1       6.128  -1.540   0.000  0.00  0.00    +0.006 C 
BRANCH   7  10
ATOM     10  C   UNL     1       6.430  -0.412   0.000  0.00  0.00    -0.018 A 
ATOM     11  C   UNL     1       7.145  -0.825   0.000  0.00  0.00    +0.016 A 
ATOM     12  C   UNL     1       7.859  -0.412   0.000  0.00  0.00    +0.099 A 
ATOM     13  N   UNL     1       7.859   0.412   0.000  0.00  0.00    -0.242 NA
ATOM     14  C   UNL     1       7.145   0.825   0.000  0.00  0.00    +0.099 A 
ATOM     15  C   UNL     1       6.430   0.412   0.000  0.00  0.00    +0.016 A 
ENDBRANCH   7  10
ENDBRANCH   6   7
ENDBRANCH   4   6
BRANCH   2  16
ATOM     16  C   UNL     1       3.572  -3.712   0.000  0.00  0.00    +0.098 C 
BRANCH  16  17
ATOM     17  C   UNL     1       3.572  -4.537   0.000  0.00  0.00    +0.050 C 
ATOM     18  C   UNL     1       2.858  -4.950   0.000  0.00  0.00    +0.154 C 
ATOM     19  O   UNL     1       2.143  -4.537   0.000  0.00  0.00    -0.223 OA
ATOM     20  C   UNL     1       2.858  -5.775   0.000  0.00  0.00    +0.033 C 
ATOM     21  C   UNL     1       3.572  -6.188   0.000  0.00  0.00    +0.003 C 
ATOM     22  C   UNL     1       4.287  -5.775   0.000  0.00  0.00    +0.000 C 
ATOM     23  C   UNL     1       4.287  -4.950   0.000  0.00  0.00    +0.004 C 
ENDBRANCH  16  17
ENDBRANCH   2  16
TORSDOF 5
