REMARK  Name = 
REMARK  3 active torsions:
REMARK  status: ('A' for Active; 'I' for Inactive)
REMARK    1  A    between atoms: N_4  and  C_5
REMARK    2  A    between atoms: C_5  and  C_6
REMARK    3  A    between atoms: C_6  and  N_7
REMARK                            x       y       z     vdW  Elec       q    Type
REMARK                         _______ _______ _______ _____ _____    ______ ____
ROOT
ATOM      1  C   UNL     1       0.000   0.825   0.000  0.00  0.00    +0.134 C 
ENDROOT
BRANCH   1   2
ATOM      2  N   UNL     1       0.715   1.238   0.000  0.00  0.00    -0.185 NA
ATOM      3  C   UNL     1       1.429   0.825   0.000  0.00  0.00    +0.345 C 
ATOM      4  N   UNL     1       2.143   1.238   0.000  0.00  0.00    -0.139 NA
ATOM      5  C   UNL     1       2.858   0.825   0.000  0.00  0.00    +0.197 A 
ATOM      6  N   UNL     1       2.944   0.004   0.000  0.00  0.00    -0.060 NA
ATOM      7  O   UNL     1       3.751  -0.167   0.000  0.00  0.00    -0.356 OA
ATOM      8  C   UNL     1       4.164   0.547   0.000  0.00  0.00    +0.156 A 
ATOM      9  C   UNL     1       4.984   0.634   0.000  0.00  0.00    +0.075 C 
ATOM     10  C   UNL     1       3.612   1.161   0.000  0.00  0.00    +0.075 A 
ATOM     11  O   UNL     1       1.429   0.000   0.000  0.00  0.00    -0.249 OA
ENDBRANCH   1   2
BRANCH   1  12
ATOM     12  C   UNL     1      -0.715   1.238   0.000  0.00  0.00    +0.096 C 
BRANCH  12  19
ATOM     13  C   UNL     1      -3.572   1.238   0.000  0.00  0.00    +0.034 C 
ATOM     14  C   UNL     1      -2.858   0.825   0.000  0.00  0.00    +0.131 C 
ATOM     15  O   UNL     1      -2.858   0.000   0.000  0.00  0.00    -0.356 OA
ATOM     16  C   UNL     1      -2.143  -0.412   0.000  0.00  0.00    +0.131 C 
ATOM     17  C   UNL     1      -2.143  -1.238   0.000  0.00  0.00    +0.034 C 
ATOM     18  C   UNL     1      -1.429   0.000   0.000  0.00  0.00    +0.102 C 
ATOM     19  N   UNL     1      -1.429   0.825   0.000  0.00  0.00    -0.267 NA
ATOM     20  C   UNL     1      -2.143   1.238   0.000  0.00  0.00    +0.102 C 
ENDBRANCH  12  19
ENDBRANCH   1  12
TORSDOF 3
