REMARK  Name = 
REMARK  5 active torsions:
REMARK  status: ('A' for Active; 'I' for Inactive)
REMARK    1  A    between atoms: C_2  and  C_3
REMARK    2  A    between atoms: C_2  and  N_15
REMARK    3  A    between atoms: C_3  and  N_4
REMARK    4  A    between atoms: C_5  and  C_7
REMARK    5  A    between atoms: C_7  and  N_8
REMARK                            x       y       z     vdW  Elec       q    Type
REMARK                         _______ _______ _______ _____ _____    ______ ____
ROOT
ATOM      1  N   UNL     1       2.143  -1.238   0.000  0.00  0.00    -0.202 NA
ATOM      2  C   UNL     1       2.858  -0.825   0.000  0.00  0.00    +0.266 C 
ATOM      3  O   UNL     1       2.858   0.000   0.000  0.00  0.00    -0.271 OA
ENDROOT
BRANCH   1   4
ATOM      4  C   UNL     1       1.429  -0.825   0.000  0.00  0.00    +0.131 C 
BRANCH   4   6
ATOM      5  C   UNL     1       0.715  -2.062   0.000  0.00  0.00    +0.019 C 
ATOM      6  C   UNL     1       0.715  -1.238   0.000  0.00  0.00    +0.079 C 
BRANCH   6   7
ATOM      7  N   UNL     1       0.000  -0.825   0.000  0.00  0.00    -0.268 NA
ATOM      8  C   UNL     1       0.000   0.000   0.000  0.00  0.00    +0.105 C 
ATOM      9  C   UNL     1      -0.715   0.412   0.000  0.00  0.00    +0.159 C 
ATOM     10  O   UNL     1      -1.429   0.000   0.000  0.00  0.00    -0.351 OA
ATOM     11  C   UNL     1      -1.429  -0.825   0.000  0.00  0.00    +0.159 C 
ATOM     12  C   UNL     1      -0.715  -1.238   0.000  0.00  0.00    +0.105 C 
ENDBRANCH   6   7
ENDBRANCH   4   6
ENDBRANCH   1   4
BRANCH   2  13
ATOM     13  C   UNL     1       3.572  -1.238   0.000  0.00  0.00    +0.213 C 
BRANCH  13  14
ATOM     14  N   UNL     1       4.287  -0.825   0.000  0.00  0.00    -0.246 N 
ATOM     15  C   UNL     1       5.040  -1.161   0.000  0.00  0.00    +0.058 A 
ATOM     16  C   UNL     1       5.212  -1.968   0.000  0.00  0.00    +0.052 C 
ATOM     17  C   UNL     1       5.593  -0.547   0.000  0.00  0.00    +0.031 A 
ATOM     18  C   UNL     1       5.180   0.167   0.000  0.00  0.00    +0.080 A 
ATOM     19  C   UNL     1       5.516   0.921   0.000  0.00  0.00    +0.054 C 
ATOM     20  N   UNL     1       4.373  -0.004   0.000  0.00  0.00    -0.174 NA
ENDBRANCH  13  14
ENDBRANCH   2  13
TORSDOF 5
