REMARK  Name = 
REMARK  5 active torsions:
REMARK  status: ('A' for Active; 'I' for Inactive)
REMARK    1  A    between atoms: C_2  and  C_4
REMARK    2  A    between atoms: C_4  and  C_5
REMARK    3  A    between atoms: C_5  and  N_6
REMARK    4  A    between atoms: C_9  and  N_10
REMARK    5  A    between atoms: N_13  and  C_14
REMARK                            x       y       z     vdW  Elec       q    Type
REMARK                         _______ _______ _______ _____ _____    ______ ____
ROOT
ATOM      1  N   UNL     1       2.652  -2.123   0.000  0.00  0.00    -0.254 N 
ATOM      2  C   UNL     1       1.984  -2.608   0.000  0.00  0.00    +0.073 A 
ATOM      3  C   UNL     1       1.200  -2.353   0.000  0.00  0.00    +0.053 C 
ATOM      4  C   UNL     1       2.239  -3.393   0.000  0.00  0.00    +0.109 A 
ATOM      5  C   UNL     1       3.064  -3.393   0.000  0.00  0.00    +0.138 A 
ATOM      6  N   UNL     1       3.319  -2.608   0.000  0.00  0.00    -0.167 NA
ENDROOT
BRANCH   4   7
ATOM      7  N   UNL     1       1.754  -4.060   0.000  0.00  0.00    -0.158 NA
ATOM      8  C   UNL     1       2.090  -4.814   0.000  0.00  0.00    +0.344 C 
ATOM      9  N   UNL     1       1.605  -5.481   0.000  0.00  0.00    -0.188 NA
ATOM     10  O   UNL     1       2.910  -4.900   0.000  0.00  0.00    -0.249 OA
BRANCH   9  11
ATOM     11  C   UNL     1       0.785  -5.395   0.000  0.00  0.00    +0.110 C 
ATOM     12  C   UNL     1       0.000  -5.140   0.000  0.00  0.00    +0.162 C 
ATOM     13  O   UNL     1      -0.485  -5.808   0.000  0.00  0.00    -0.352 OA
ATOM     14  C   UNL     1       0.000  -6.475   0.000  0.00  0.00    +0.144 C 
ATOM     15  C   UNL     1       0.785  -6.220   0.000  0.00  0.00    +0.055 C 
ATOM     16  C   UNL     1       0.956  -4.588   0.000  0.00  0.00    +0.024 C 
ENDBRANCH   9  11
ENDBRANCH   4   7
BRANCH   1  17
ATOM     17  C   UNL     1       2.652  -1.298   0.000  0.00  0.00    +0.127 C 
BRANCH  17  18
ATOM     18  C   UNL     1       3.366  -0.886   0.000  0.00  0.00    +0.026 C 
BRANCH  18  20
ATOM     19  C   UNL     1       4.081   0.352   0.000  0.00  0.00    +0.000 C 
ATOM     20  C   UNL     1       3.366  -0.061   0.000  0.00  0.00    +0.002 C 
ATOM     21  C   UNL     1       2.652   0.352   0.000  0.00  0.00    +0.000 C 
ENDBRANCH  18  20
ENDBRANCH  17  18
ENDBRANCH   1  17
TORSDOF 5
