REMARK  Name = 
REMARK  4 active torsions:
REMARK  status: ('A' for Active; 'I' for Inactive)
REMARK    1  A    between atoms: O_2  and  C_3
REMARK    2  A    between atoms: C_7  and  N_8
REMARK    3  A    between atoms: N_11  and  C_12
REMARK    4  A    between atoms: C_15  and  C_18
REMARK                            x       y       z     vdW  Elec       q    Type
REMARK                         _______ _______ _______ _____ _____    ______ ____
ROOT
ATOM      1  N   UNL     1       0.000   7.553   0.000  0.00  0.00    -0.186 NA
ATOM      2  C   UNL     1       0.000   6.728   0.000  0.00  0.00    +0.344 C 
ATOM      3  N   UNL     1       0.715   6.315   0.000  0.00  0.00    -0.158 NA
ATOM      4  O   UNL     1      -0.715   6.315   0.000  0.00  0.00    -0.249 OA
ENDROOT
BRANCH   3   5
ATOM      5  C   UNL     1       0.715   5.490   0.000  0.00  0.00    +0.113 A 
ATOM      6  C   UNL     1       0.000   5.078   0.000  0.00  0.00    +0.118 A 
ATOM      7  N   UNL     1       0.000   4.253   0.000  0.00  0.00    -0.228 NA
ATOM      8  C   UNL     1       0.715   3.840   0.000  0.00  0.00    +0.139 A 
ATOM      9  N   UNL     1       1.429   4.253   0.000  0.00  0.00    -0.228 NA
ATOM     10  C   UNL     1       1.429   5.078   0.000  0.00  0.00    +0.118 A 
BRANCH   8  11
ATOM     11  C   UNL     1       0.715   3.015   0.000  0.00  0.00    +0.059 C 
ATOM     12  C   UNL     1       0.302   2.301   0.000  0.00  0.00    +0.008 C 
ATOM     13  C   UNL     1       1.127   2.301   0.000  0.00  0.00    +0.008 C 
ENDBRANCH   8  11
ENDBRANCH   3   5
BRANCH   1  15
ATOM     14  C   UNL     1      -1.468   7.630   0.000  0.00  0.00    +0.135 C 
ATOM     15  C   UNL     1      -0.715   7.965   0.000  0.00  0.00    +0.124 C 
ATOM     16  C   UNL     1      -0.801   8.786   0.000  0.00  0.00    +0.024 C 
ATOM     17  C   UNL     1      -1.608   8.957   0.000  0.00  0.00    +0.004 C 
ATOM     18  C   UNL     1      -2.020   8.243   0.000  0.00  0.00    +0.031 C 
BRANCH  14  20
ATOM     19  C   UNL     1      -2.424   6.568   0.000  0.00  0.00    +0.174 C 
ATOM     20  O   UNL     1      -1.640   6.823   0.000  0.00  0.00    -0.352 OA
ENDBRANCH  14  20
ENDBRANCH   1  15
TORSDOF 4
