REMARK  Name = 
REMARK  5 active torsions:
REMARK  status: ('A' for Active; 'I' for Inactive)
REMARK    1  A    between atoms: C_8  and  C_9
REMARK    2  A    between atoms: C_9  and  N_10
REMARK    3  A    between atoms: N_10  and  C_11
REMARK    4  A    between atoms: C_11  and  C_12
REMARK    5  A    between atoms: C_12  and  C_15
REMARK                            x       y       z     vdW  Elec       q    Type
REMARK                         _______ _______ _______ _____ _____    ______ ____
ROOT
ATOM      1  N   UNL     1       6.324   3.528   0.000  0.00  0.00    -0.215 NA
ENDROOT
BRANCH   1   2
ATOM      2  C   UNL     1       6.324   4.353   0.000  0.00  0.00    +0.093 C 
BRANCH   2   5
ATOM      3  C   UNL     1       6.324   6.003   0.000  0.00  0.00    +0.000 C 
ATOM      4  C   UNL     1       7.038   5.590   0.000  0.00  0.00    +0.005 C 
ATOM      5  C   UNL     1       7.038   4.765   0.000  0.00  0.00    +0.035 C 
ATOM      6  C   UNL     1       7.753   4.353   0.000  0.00  0.00    -0.047 C 
ATOM      7  C   UNL     1       7.753   3.528   0.000  0.00  0.00    +0.026 C 
ATOM      8  C   UNL     1       8.467   4.765   0.000  0.00  0.00    -0.035 C 
ATOM      9  C   UNL     1       8.467   5.590   0.000  0.00  0.00    +0.025 C 
ATOM     10  C   UNL     1       7.753   6.003   0.000  0.00  0.00    +0.005 C 
ENDBRANCH   2   5
ENDBRANCH   1   2
BRANCH   1  11
ATOM     11  C   UNL     1       5.609   3.115   0.000  0.00  0.00    +0.123 C 
BRANCH  11  12
ATOM     12  C   UNL     1       5.609   2.290   0.000  0.00  0.00    +0.164 C 
ATOM     13  O   UNL     1       6.434   2.290   0.000  0.00  0.00    -0.220 OA
ATOM     14  C   UNL     1       4.784   2.290   0.000  0.00  0.00    +0.039 C 
BRANCH  12  15
ATOM     15  C   UNL     1       5.609   1.465   0.000  0.00  0.00    +0.046 A 
ATOM     16  C   UNL     1       4.942   0.980   0.000  0.00  0.00    +0.095 A 
ATOM     17  N   UNL     1       5.197   0.196   0.000  0.00  0.00    -0.248 N 
ATOM     18  C   UNL     1       4.712  -0.472   0.000  0.00  0.00    +0.154 C 
ATOM     19  N   UNL     1       6.022   0.196   0.000  0.00  0.00    -0.168 NA
ATOM     20  C   UNL     1       6.277   0.980   0.000  0.00  0.00    +0.120 A 
ENDBRANCH  12  15
ENDBRANCH  11  12
ENDBRANCH   1  11
TORSDOF 5
