REMARK  Name = 
REMARK  2 active torsions:
REMARK  status: ('A' for Active; 'I' for Inactive)
REMARK    1  A    between atoms: N_10  and  C_11
REMARK    2  A    between atoms: C_11  and  C_12
REMARK                            x       y       z     vdW  Elec       q    Type
REMARK                         _______ _______ _______ _____ _____    ______ ____
ROOT
ATOM      1  C   UNL     1      -2.315  -2.614   0.000  0.00  0.00    +0.157 C 
ATOM      2  N   UNL     1      -2.928  -2.062   0.000  0.00  0.00    -0.217 N 
ATOM      3  C   UNL     1      -2.842  -1.242   0.000  0.00  0.00    +0.243 A 
ATOM      4  N   UNL     1      -2.127  -0.829   0.000  0.00  0.00    -0.125 NA
ATOM      5  C   UNL     1      -1.413  -1.242   0.000  0.00  0.00    +0.346 C 
ATOM      6  N   UNL     1      -0.699  -0.829   0.000  0.00  0.00    -0.187 NA
ATOM      7  O   UNL     1      -1.413  -2.067   0.000  0.00  0.00    -0.249 OA
ATOM      8  N   UNL     1      -3.596  -0.906   0.000  0.00  0.00    -0.189 NA
ATOM      9  C   UNL     1      -4.148  -1.519   0.000  0.00  0.00    +0.222 A 
ATOM     10  N   UNL     1      -3.735  -2.234   0.000  0.00  0.00    -0.144 NA
ENDROOT
BRANCH   6  11
ATOM     11  C   UNL     1       0.016  -1.242   0.000  0.00  0.00    +0.117 C 
BRANCH  11  12
ATOM     12  C   UNL     1       0.730  -0.829   0.000  0.00  0.00    +0.020 C 
ATOM     13  C   UNL     1       1.553  -0.768   0.000  0.00  0.00    +0.002 C 
ATOM     14  C   UNL     1       2.018  -0.086   0.000  0.00  0.00    +0.000 C 
ATOM     15  C   UNL     1       1.775   0.702   0.000  0.00  0.00    +0.000 C 
ATOM     16  C   UNL     1       1.007   1.004   0.000  0.00  0.00    +0.000 C 
ATOM     17  C   UNL     1       0.292   0.591   0.000  0.00  0.00    +0.000 C 
ATOM     18  C   UNL     1       0.169  -0.225   0.000  0.00  0.00    +0.002 C 
ATOM     19  C   UNL     1       0.974  -1.618   0.000  0.00  0.00    +0.002 C 
ENDBRANCH  11  12
ENDBRANCH   6  11
TORSDOF 2
