REMARK  Name = 
REMARK  6 active torsions:
REMARK  status: ('A' for Active; 'I' for Inactive)
REMARK    1  A    between atoms: C_2  and  N_3
REMARK    2  A    between atoms: C_2  and  C_17
REMARK    3  A    between atoms: C_2  and  C_19
REMARK    4  A    between atoms: C_4  and  C_6
REMARK    5  A    between atoms: C_6  and  N_7
REMARK    6  A    between atoms: C_9  and  N_14
REMARK                            x       y       z     vdW  Elec       q    Type
REMARK                         _______ _______ _______ _____ _____    ______ ____
ROOT
ATOM      1  C   UNL     1      -0.570  -1.999   0.000  0.00  0.00    +0.196 C 
ENDROOT
BRANCH   1   2
ATOM      2  N   UNL     1      -0.982  -1.284   0.000  0.00  0.00    -0.280 N 
ATOM      3  C   UNL     1      -0.570  -0.570   0.000  0.00  0.00    +0.262 A 
ATOM      4  O   UNL     1       0.255  -0.570   0.000  0.00  0.00    -0.267 OA
ATOM      5  C   UNL     1      -0.982   0.145   0.000  0.00  0.00    +0.067 A 
ATOM      6  C   UNL     1      -1.807   0.145   0.000  0.00  0.00    +0.082 A 
ATOM      7  C   UNL     1      -2.220  -0.570   0.000  0.00  0.00    +0.307 A 
ATOM      8  C   UNL     1      -1.807  -1.284   0.000  0.00  0.00    +0.155 A 
BRANCH   7   9
ATOM      9  N   UNL     1      -3.045  -0.570   0.000  0.00  0.00    +0.082 N 
ATOM     10  O   UNL     1      -3.457  -1.284   0.000  0.00  0.00    -0.576 OA
ATOM     11  O   UNL     1      -3.457   0.145   0.000  0.00  0.00    +0.042 OA
ENDBRANCH   7   9
ENDBRANCH   1   2
BRANCH   1  13
ATOM     12  N   UNL     1       0.668  -2.713   0.000  0.00  0.00    -0.193 NA
ATOM     13  C   UNL     1       0.255  -1.999   0.000  0.00  0.00    +0.265 C 
ATOM     14  O   UNL     1       0.668  -1.284   0.000  0.00  0.00    -0.271 OA
BRANCH  12  16
ATOM     15  C   UNL     1       1.493  -1.888   0.000  0.00  0.00    +0.037 C 
ATOM     16  C   UNL     1       1.493  -2.713   0.000  0.00  0.00    +0.157 C 
BRANCH  16  17
ATOM     17  C   UNL     1       1.493  -3.538   0.000  0.00  0.00    +0.032 C 
ATOM     18  C   UNL     1       1.080  -4.253   0.000  0.00  0.00    +0.003 C 
ATOM     19  C   UNL     1       1.905  -4.253   0.000  0.00  0.00    +0.003 C 
ENDBRANCH  16  17
BRANCH  16  20
ATOM     20  C   UNL     1       2.318  -2.713   0.000  0.00  0.00    +0.091 C 
ATOM     21  N   UNL     1       3.143  -2.713   0.000  0.00  0.00    -0.194 NA
ENDBRANCH  16  20
ENDBRANCH  12  16
ENDBRANCH   1  13
TORSDOF 6
