REMARK  Name = 
REMARK  4 active torsions:
REMARK  status: ('A' for Active; 'I' for Inactive)
REMARK    1  A    between atoms: C_2  and  C_5
REMARK    2  A    between atoms: N_12  and  C_13
REMARK    3  A    between atoms: C_13  and  C_14
REMARK    4  A    between atoms: C_14  and  C_17
REMARK                            x       y       z     vdW  Elec       q    Type
REMARK                         _______ _______ _______ _____ _____    ______ ____
ROOT
ATOM      1  C   UNL     1       2.751  -3.362   0.000  0.00  0.00    +0.105 C 
ATOM      2  N   UNL     1       2.084  -3.846   0.000  0.00  0.00    -0.262 N 
ATOM      3  C   UNL     1       1.299  -3.592   0.000  0.00  0.00    +0.323 C 
ATOM      4  N   UNL     1       1.128  -2.785   0.000  0.00  0.00    -0.188 NA
ATOM      5  O   UNL     1       0.686  -4.144   0.000  0.00  0.00    -0.251 OA
ATOM      6  C   UNL     1       2.339  -4.631   0.000  0.00  0.00    +0.095 C 
ATOM      7  C   UNL     1       3.164  -4.631   0.000  0.00  0.00    +0.023 C 
ATOM      8  C   UNL     1       3.419  -3.846   0.000  0.00  0.00    +0.024 C 
ENDROOT
BRANCH   1  10
ATOM      9  C   UNL     1       2.751  -1.712   0.000  0.00  0.00    +0.035 C 
ATOM     10  C   UNL     1       2.751  -2.537   0.000  0.00  0.00    +0.143 C 
ATOM     11  O   UNL     1       3.576  -2.537   0.000  0.00  0.00    -0.224 OA
ATOM     12  C   UNL     1       1.926  -2.537   0.000  0.00  0.00    +0.035 C 
ENDBRANCH   1  10
BRANCH   4  13
ATOM     13  C   UNL     1       0.343  -2.530   0.000  0.00  0.00    +0.121 C 
BRANCH  13  14
ATOM     14  C   UNL     1       0.171  -1.723   0.000  0.00  0.00    +0.039 C 
ATOM     15  C   UNL     1      -0.635  -1.894   0.000  0.00  0.00    +0.006 C 
ATOM     16  C   UNL     1       0.978  -1.551   0.000  0.00  0.00    +0.006 C 
BRANCH  14  17
ATOM     17  C   UNL     1      -0.000  -0.916   0.000  0.00  0.00    -0.018 A 
ATOM     18  C   UNL     1       0.613  -0.364   0.000  0.00  0.00    +0.016 A 
ATOM     19  C   UNL     1       0.442   0.443   0.000  0.00  0.00    +0.099 A 
ATOM     20  N   UNL     1      -0.343   0.698   0.000  0.00  0.00    -0.242 NA
ATOM     21  C   UNL     1      -0.956   0.146   0.000  0.00  0.00    +0.099 A 
ATOM     22  C   UNL     1      -0.785  -0.661   0.000  0.00  0.00    +0.016 A 
ENDBRANCH  14  17
ENDBRANCH  13  14
ENDBRANCH   4  13
TORSDOF 4
