REMARK  Name = 
REMARK  7 active torsions:
REMARK  status: ('A' for Active; 'I' for Inactive)
REMARK    1  A    between atoms: C_2  and  C_5
REMARK    2  A    between atoms: C_5  and  N_6
REMARK    3  A    between atoms: C_7  and  C_9
REMARK    4  A    between atoms: C_9  and  N_10
REMARK    5  A    between atoms: N_10  and  C_11
REMARK    6  A    between atoms: C_11  and  C_12
REMARK    7  A    between atoms: C_12  and  N_13
REMARK                            x       y       z     vdW  Elec       q    Type
REMARK                         _______ _______ _______ _____ _____    ______ ____
ROOT
ATOM      1  C   UNL     1       3.878  -3.364   0.000  0.00  0.00    +0.175 C 
ENDROOT
BRANCH   1   3
ATOM      2  N   UNL     1       2.449  -3.364   0.000  0.00  0.00    -0.195 NA
ATOM      3  C   UNL     1       3.163  -2.952   0.000  0.00  0.00    +0.259 C 
ATOM      4  O   UNL     1       3.163  -2.127   0.000  0.00  0.00    -0.272 OA
BRANCH   2   5
ATOM      5  C   UNL     1       1.734  -2.952   0.000  0.00  0.00    +0.218 C 
BRANCH   5   7
ATOM      6  F   UNL     1       0.305  -3.777   0.000  0.00  0.00    -0.168 F 
ATOM      7  C   UNL     1       1.020  -3.364   0.000  0.00  0.00    +0.417 C 
ATOM      8  F   UNL     1       0.608  -2.650   0.000  0.00  0.00    -0.168 F 
ATOM      9  F   UNL     1       1.433  -4.079   0.000  0.00  0.00    -0.168 F 
ENDBRANCH   5   7
ENDBRANCH   2   5
ENDBRANCH   1   3
BRANCH   1  10
ATOM     10  N   UNL     1       4.592  -2.952   0.000  0.00  0.00    -0.206 NA
BRANCH  10  11
ATOM     11  C   UNL     1       5.307  -3.364   0.000  0.00  0.00    +0.116 C 
BRANCH  11  12
ATOM     12  C   UNL     1       6.021  -2.952   0.000  0.00  0.00    +0.146 C 
BRANCH  12  13
ATOM     13  N   UNL     1       6.736  -3.364   0.000  0.00  0.00    -0.248 N 
ATOM     14  N   UNL     1       6.822  -4.185   0.000  0.00  0.00    -0.168 NA
ATOM     15  C   UNL     1       7.629  -4.356   0.000  0.00  0.00    +0.122 A 
ATOM     16  C   UNL     1       8.041  -3.642   0.000  0.00  0.00    +0.043 A 
ATOM     17  C   UNL     1       7.489  -3.029   0.000  0.00  0.00    +0.097 A 
ENDBRANCH  12  13
ENDBRANCH  11  12
ENDBRANCH  10  11
ENDBRANCH   1  10
TORSDOF 7
