REMARK  Name = 
REMARK  5 active torsions:
REMARK  status: ('A' for Active; 'I' for Inactive)
REMARK    1  A    between atoms: C_2  and  C_3
REMARK    2  A    between atoms: C_3  and  N_4
REMARK    3  A    between atoms: N_9  and  C_10
REMARK    4  A    between atoms: C_10  and  C_11
REMARK    5  A    between atoms: N_14  and  C_16
REMARK                            x       y       z     vdW  Elec       q    Type
REMARK                         _______ _______ _______ _____ _____    ______ ____
ROOT
ATOM      1  O   UNL     1       0.743  -3.262   0.000  0.00  0.00    -0.271 OA
ATOM      2  C   UNL     1       0.743  -2.437   0.000  0.00  0.00    +0.266 C 
ATOM      3  N   UNL     1       1.457  -2.025   0.000  0.00  0.00    -0.204 NA
ENDROOT
BRANCH   3   4
ATOM      4  C   UNL     1       2.171  -2.437   0.000  0.00  0.00    +0.117 C 
BRANCH   4   5
ATOM      5  C   UNL     1       2.886  -2.025   0.000  0.00  0.00    +0.039 C 
ATOM      6  C   UNL     1       3.640  -2.360   0.000  0.00  0.00    +0.074 C 
ATOM      7  N   UNL     1       4.192  -1.747   0.000  0.00  0.00    -0.274 NA
ATOM      8  C   UNL     1       3.779  -1.033   0.000  0.00  0.00    +0.072 C 
ATOM      9  C   UNL     1       2.972  -1.204   0.000  0.00  0.00    +0.020 C 
BRANCH   7  10
ATOM     10  C   UNL     1       5.012  -1.833   0.000  0.00  0.00    +0.058 C 
ATOM     11  C   UNL     1       5.679  -2.318   0.000  0.00  0.00    +0.017 C 
ATOM     12  C   UNL     1       5.766  -1.498   0.000  0.00  0.00    +0.017 C 
ENDBRANCH   7  10
ENDBRANCH   4   5
ENDBRANCH   3   4
BRANCH   2  13
ATOM     13  C   UNL     1       0.028  -2.025   0.000  0.00  0.00    +0.217 C 
BRANCH  13  14
ATOM     14  N   UNL     1      -0.686  -2.437   0.000  0.00  0.00    -0.201 N 
ATOM     15  N   UNL     1      -1.440  -2.102   0.000  0.00  0.00    -0.042 NA
ATOM     16  N   UNL     1      -1.992  -2.715   0.000  0.00  0.00    -0.023 NA
ATOM     17  N   UNL     1      -1.580  -3.429   0.000  0.00  0.00    -0.105 NA
ATOM     18  C   UNL     1      -0.773  -3.258   0.000  0.00  0.00    +0.222 A 
ENDBRANCH  13  14
ENDBRANCH   2  13
TORSDOF 5
