REMARK  Name = 
REMARK  6 active torsions:
REMARK  status: ('A' for Active; 'I' for Inactive)
REMARK    1  A    between atoms: C_4  and  C_5
REMARK    2  A    between atoms: C_5  and  C_6
REMARK    3  A    between atoms: N_8  and  C_9
REMARK    4  A    between atoms: C_9  and  C_10
REMARK    5  A    between atoms: C_10  and  C_11
REMARK    6  A    between atoms: C_11  and  C_12
REMARK                            x       y       z     vdW  Elec       q    Type
REMARK                         _______ _______ _______ _____ _____    ______ ____
ROOT
ATOM      1  C   UNL     1      -0.707  -1.849   0.000  0.00  0.00    +0.247 C 
ATOM      2  N   UNL     1       0.007  -1.436   0.000  0.00  0.00    -0.205 NA
ATOM      3  O   UNL     1      -0.707  -2.674   0.000  0.00  0.00    -0.273 OA
ENDROOT
BRANCH   1   4
ATOM      4  C   UNL     1      -1.421  -1.436   0.000  0.00  0.00    +0.133 C 
BRANCH   4   9
ATOM      5  C   UNL     1      -4.262  -2.040   0.000  0.00  0.00    +0.059 C 
ATOM      6  C   UNL     1      -3.442  -2.126   0.000  0.00  0.00    +0.088 A 
ATOM      7  S   UNL     1      -3.029  -2.841   0.000  0.00  0.00    -0.071 S 
ATOM      8  C   UNL     1      -2.222  -2.669   0.000  0.00  0.00    +0.052 A 
ATOM      9  C   UNL     1      -2.136  -1.849   0.000  0.00  0.00    +0.075 A 
ATOM     10  N   UNL     1      -2.890  -1.513   0.000  0.00  0.00    -0.247 NA
ENDBRANCH   4   9
ENDBRANCH   1   4
BRANCH   2  11
ATOM     11  C   UNL     1       0.722  -1.849   0.000  0.00  0.00    +0.115 C 
BRANCH  11  12
ATOM     12  C   UNL     1       1.436  -1.436   0.000  0.00  0.00    +0.023 C 
ATOM     13  C   UNL     1       2.221  -1.181   0.000  0.00  0.00    +0.002 C 
ATOM     14  C   UNL     1       2.221  -0.356   0.000  0.00  0.00    +0.000 C 
ATOM     15  C   UNL     1       1.436  -0.101   0.000  0.00  0.00    +0.000 C 
ATOM     16  C   UNL     1       0.952  -0.769   0.000  0.00  0.00    +0.002 C 
BRANCH  12  17
ATOM     17  C   UNL     1       1.772  -2.190   0.000  0.00  0.00    +0.037 C 
BRANCH  17  18
ATOM     18  C   UNL     1       2.592  -2.276   0.000  0.00  0.00    +0.182 C 
ATOM     19  O   UNL     1       3.077  -1.609   0.000  0.00  0.00    -0.220 OA
ENDBRANCH  17  18
ENDBRANCH  12  17
ENDBRANCH  11  12
ENDBRANCH   2  11
TORSDOF 6
