REMARK  Name = 
REMARK  1 active torsions:
REMARK  status: ('A' for Active; 'I' for Inactive)
REMARK    1  A    between atoms: C_3  and  N_9
REMARK                            x       y       z     vdW  Elec       q    Type
REMARK                         _______ _______ _______ _____ _____    ______ ____
ROOT
ATOM      1 CL   UNL     1       0.715  -0.412   0.000  0.00  0.00    -0.076 Cl
ATOM      2  C   UNL     1       0.715  -1.238   0.000  0.00  0.00    +0.132 A 
ATOM      3  C   UNL     1       0.000  -1.650   0.000  0.00  0.00    +0.309 A 
ATOM      4  O   UNL     1      -0.715  -1.238   0.000  0.00  0.00    -0.263 OA
ATOM      5  N   UNL     1       0.000  -2.475   0.000  0.00  0.00    -0.105 NA
ATOM      6  N   UNL     1       0.715  -2.888   0.000  0.00  0.00    -0.142 NA
ATOM      7  C   UNL     1       1.429  -2.475   0.000  0.00  0.00    +0.138 A 
ATOM      8  C   UNL     1       1.429  -1.650   0.000  0.00  0.00    +0.085 A 
ENDROOT
BRANCH   8   9
ATOM      9  N   UNL     1       2.143  -1.238   0.000  0.00  0.00    -0.301 N 
ATOM     10  C   UNL     1       2.858  -1.650   0.000  0.00  0.00    +0.123 C 
ATOM     11  C   UNL     1       3.572  -1.238   0.000  0.00  0.00    +0.164 C 
ATOM     12  O   UNL     1       3.572  -0.412   0.000  0.00  0.00    -0.350 OA
ATOM     13  C   UNL     1       2.858   0.000   0.000  0.00  0.00    +0.164 C 
ATOM     14  C   UNL     1       2.143  -0.412   0.000  0.00  0.00    +0.123 C 
ENDBRANCH   8   9
TORSDOF 1
