REMARK  Name = 
REMARK  4 active torsions:
REMARK  status: ('A' for Active; 'I' for Inactive)
REMARK    1  A    between atoms: C_2  and  C_3
REMARK    2  A    between atoms: C_2  and  C_15
REMARK    3  A    between atoms: C_3  and  N_4
REMARK    4  A    between atoms: N_7  and  C_8
REMARK                            x       y       z     vdW  Elec       q    Type
REMARK                         _______ _______ _______ _____ _____    ______ ____
ROOT
ATOM      1  N   UNL     1       0.715  -3.712   0.000  0.00  0.00    -0.187 NA
ATOM      2  C   UNL     1       1.429  -3.300   0.000  0.00  0.00    +0.339 C 
ATOM      3  N   UNL     1       2.143  -3.712   0.000  0.00  0.00    -0.189 NA
ATOM      4  O   UNL     1       1.429  -2.475   0.000  0.00  0.00    -0.249 OA
ENDROOT
BRANCH   3   5
ATOM      5  C   UNL     1       2.858  -3.300   0.000  0.00  0.00    +0.097 C 
ATOM      6  C   UNL     1       3.572  -3.712   0.000  0.00  0.00    +0.022 C 
ATOM      7  C   UNL     1       4.287  -3.300   0.000  0.00  0.00    +0.002 C 
ATOM      8  C   UNL     1       4.287  -2.475   0.000  0.00  0.00    +0.000 C 
ATOM      9  C   UNL     1       5.001  -2.062   0.000  0.00  0.00    +0.000 C 
ATOM     10  C   UNL     1       3.572  -2.062   0.000  0.00  0.00    +0.002 C 
ATOM     11  C   UNL     1       2.858  -2.475   0.000  0.00  0.00    +0.022 C 
ENDBRANCH   3   5
BRANCH   1  12
ATOM     12  C   UNL     1       0.000  -3.300   0.000  0.00  0.00    +0.123 C 
BRANCH  12  14
ATOM     13  C   UNL     1      -0.715  -4.537   0.000  0.00  0.00    +0.009 C 
ATOM     14  C   UNL     1      -0.715  -3.712   0.000  0.00  0.00    +0.068 C 
BRANCH  14  15
ATOM     15  C   UNL     1      -1.429  -3.300   0.000  0.00  0.00    +0.090 A 
ATOM     16  S   UNL     1      -1.515  -2.479   0.000  0.00  0.00    -0.070 S 
ATOM     17  C   UNL     1      -2.322  -2.308   0.000  0.00  0.00    +0.057 A 
ATOM     18  C   UNL     1      -2.735  -3.022   0.000  0.00  0.00    +0.106 A 
ATOM     19  N   UNL     1      -2.183  -3.636   0.000  0.00  0.00    -0.241 NA
ENDBRANCH  14  15
ENDBRANCH  12  14
ENDBRANCH   1  12
TORSDOF 4
