REMARK  Name = 
REMARK  3 active torsions:
REMARK  status: ('A' for Active; 'I' for Inactive)
REMARK    1  A    between atoms: C_4  and  N_5
REMARK    2  A    between atoms: N_8  and  C_9
REMARK    3  A    between atoms: C_9  and  C_10
REMARK                            x       y       z     vdW  Elec       q    Type
REMARK                         _______ _______ _______ _____ _____    ______ ____
ROOT
ATOM      1  N   UNL     1       0.028  -2.025   0.000  0.00  0.00    -0.142 NA
ATOM      2  C   UNL     1       0.743  -2.437   0.000  0.00  0.00    +0.345 C 
ATOM      3  N   UNL     1       1.457  -2.025   0.000  0.00  0.00    -0.187 NA
ATOM      4  O   UNL     1       0.743  -3.262   0.000  0.00  0.00    -0.249 OA
ENDROOT
BRANCH   1  10
ATOM      5  C   UNL     1      -2.813  -2.629   0.000  0.00  0.00    +0.054 C 
ATOM      6  C   UNL     1      -1.992  -2.715   0.000  0.00  0.00    +0.082 A 
ATOM      7  N   UNL     1      -1.580  -3.429   0.000  0.00  0.00    -0.172 NA
ATOM      8  N   UNL     1      -0.773  -3.258   0.000  0.00  0.00    -0.234 N 
ATOM      9  C   UNL     1      -0.160  -3.810   0.000  0.00  0.00    +0.155 C 
ATOM     10  C   UNL     1      -0.686  -2.437   0.000  0.00  0.00    +0.154 A 
ATOM     11  C   UNL     1      -1.440  -2.102   0.000  0.00  0.00    +0.052 A 
ENDBRANCH   1  10
BRANCH   3  12
ATOM     12  C   UNL     1       2.171  -2.437   0.000  0.00  0.00    +0.119 C 
BRANCH  12  13
ATOM     13  C   UNL     1       2.886  -2.025   0.000  0.00  0.00    +0.047 C 
ATOM     14  C   UNL     1       3.640  -2.360   0.000  0.00  0.00    +0.153 C 
ATOM     15  S   UNL     1       4.192  -1.747   0.000  0.00  0.00    -0.010 S 
ATOM     16  O   UNL     1       4.744  -2.360   0.000  0.00  0.00    -0.173 OA
ATOM     17  O   UNL     1       4.859  -1.262   0.000  0.00  0.00    -0.173 OA
ATOM     18  C   UNL     1       3.779  -1.033   0.000  0.00  0.00    +0.151 C 
ATOM     19  C   UNL     1       2.972  -1.204   0.000  0.00  0.00    +0.029 C 
ENDBRANCH  12  13
ENDBRANCH   3  12
TORSDOF 3
