REMARK  Name = 
REMARK  5 active torsions:
REMARK  status: ('A' for Active; 'I' for Inactive)
REMARK    1  A    between atoms: C_2  and  C_3
REMARK    2  A    between atoms: C_3  and  N_4
REMARK    3  A    between atoms: N_9  and  C_10
REMARK    4  A    between atoms: C_10  and  C_11
REMARK    5  A    between atoms: C_11  and  C_12
REMARK                            x       y       z     vdW  Elec       q    Type
REMARK                         _______ _______ _______ _____ _____    ______ ____
ROOT
ATOM      1  O   UNL     1      -2.858   0.825   0.000  0.00  0.00    -0.271 OA
ATOM      2  C   UNL     1      -2.858   0.000   0.000  0.00  0.00    +0.266 C 
ATOM      3  N   UNL     1      -2.143  -0.412   0.000  0.00  0.00    -0.204 NA
ENDROOT
BRANCH   3   4
ATOM      4  C   UNL     1      -1.429   0.000   0.000  0.00  0.00    +0.115 C 
BRANCH   4   5
ATOM      5  C   UNL     1      -0.715  -0.412   0.000  0.00  0.00    +0.023 C 
BRANCH   5   6
ATOM      6  C   UNL     1       0.000   0.000   0.000  0.00  0.00    +0.002 C 
ATOM      7  C   UNL     1       0.000   0.825   0.000  0.00  0.00    +0.000 C 
ATOM      8  C   UNL     1       0.611   0.234   0.000  0.00  0.00    +0.000 C 
ATOM      9  C   UNL     1       1.429   0.000   0.000  0.00  0.00    +0.000 C 
ATOM     10  C   UNL     1       1.429   0.825   0.000  0.00  0.00    +0.000 C 
ATOM     11  C   UNL     1       0.715   1.238   0.000  0.00  0.00    +0.000 C 
ATOM     12  C   UNL     1       0.715  -0.412   0.000  0.00  0.00    +0.000 C 
ENDBRANCH   5   6
ENDBRANCH   4   5
ENDBRANCH   3   4
BRANCH   2  13
ATOM     13  C   UNL     1      -3.572  -0.412   0.000  0.00  0.00    +0.217 C 
BRANCH  13  14
ATOM     14  N   UNL     1      -4.287   0.000   0.000  0.00  0.00    -0.201 N 
ATOM     15  N   UNL     1      -4.373   0.821   0.000  0.00  0.00    -0.042 NA
ATOM     16  N   UNL     1      -5.180   0.992   0.000  0.00  0.00    -0.023 NA
ATOM     17  N   UNL     1      -5.593   0.278   0.000  0.00  0.00    -0.105 NA
ATOM     18  C   UNL     1      -5.040  -0.336   0.000  0.00  0.00    +0.222 A 
ENDBRANCH  13  14
ENDBRANCH   2  13
TORSDOF 5
