REMARK  Name = 
REMARK  3 active torsions:
REMARK  status: ('A' for Active; 'I' for Inactive)
REMARK    1  A    between atoms: C_2  and  C_4
REMARK    2  A    between atoms: N_6  and  C_10
REMARK    3  A    between atoms: C_15  and  C_16
REMARK                            x       y       z     vdW  Elec       q    Type
REMARK                         _______ _______ _______ _____ _____    ______ ____
ROOT
ATOM      1  C   UNL     1       2.143  -2.888   0.000  0.00  0.00    +0.136 A 
ATOM      2  C   UNL     1       2.143  -3.712   0.000  0.00  0.00    +0.103 A 
ATOM      3  C   UNL     1       2.858  -4.125   0.000  0.00  0.00    +0.008 A 
ATOM      4  C   UNL     1       3.572  -3.712   0.000  0.00  0.00    +0.021 A 
ATOM      5  C   UNL     1       3.572  -2.888   0.000  0.00  0.00    +0.100 A 
ATOM      6  N   UNL     1       2.858  -2.475   0.000  0.00  0.00    -0.229 NA
ENDROOT
BRANCH   1  11
ATOM      7  C   UNL     1       0.715  -1.238   0.000  0.00  0.00    +0.238 C 
ATOM      8  O   UNL     1       0.000  -1.650   0.000  0.00  0.00    -0.342 OA
ATOM      9  C   UNL     1       0.000  -2.475   0.000  0.00  0.00    +0.164 C 
ATOM     10  C   UNL     1       0.715  -2.888   0.000  0.00  0.00    +0.124 C 
ATOM     11  N   UNL     1       1.429  -2.475   0.000  0.00  0.00    -0.288 N 
ATOM     12  C   UNL     1       1.429  -1.650   0.000  0.00  0.00    +0.133 C 
BRANCH   7  14
ATOM     13  O   UNL     1       0.000   0.000   0.000  0.00  0.00    -0.243 OA
ATOM     14  C   UNL     1       0.715  -0.412   0.000  0.00  0.00    +0.393 C 
ATOM     15  O   UNL     1       1.429   0.000   0.000  0.00  0.00    -0.243 OA
ENDBRANCH   7  14
ENDBRANCH   1  11
BRANCH   2  16
ATOM     16  C   UNL     1       1.429  -4.125   0.000  0.00  0.00    +0.421 C 
ATOM     17  F   UNL     1       1.841  -4.840   0.000  0.00  0.00    -0.166 F 
ATOM     18  F   UNL     1       1.016  -3.410   0.000  0.00  0.00    -0.166 F 
ATOM     19  F   UNL     1       0.715  -4.537   0.000  0.00  0.00    -0.166 F 
ENDBRANCH   2  16
TORSDOF 3
