REMARK  Name = 
REMARK  2 active torsions:
REMARK  status: ('A' for Active; 'I' for Inactive)
REMARK    1  A    between atoms: C_3  and  C_5
REMARK    2  A    between atoms: C_5  and  N_6
REMARK                            x       y       z     vdW  Elec       q    Type
REMARK                         _______ _______ _______ _____ _____    ______ ____
ROOT
ATOM      1  N   UNL     1       0.568   1.114   0.000  0.00  0.00    -0.219 N 
ATOM      2  N   UNL     1      -0.100   0.629   0.000  0.00  0.00    -0.129 NA
ATOM      3  C   UNL     1       0.155  -0.155   0.000  0.00  0.00    +0.275 A 
ATOM      4  N   UNL     1      -0.330  -0.823   0.000  0.00  0.00    -0.085 NA
ATOM      5  N   UNL     1       0.980  -0.155   0.000  0.00  0.00    -0.188 NA
ATOM      6  C   UNL     1       1.235   0.629   0.000  0.00  0.00    +0.199 A 
ENDROOT
BRANCH   1   7
ATOM      7  C   UNL     1       0.568   1.939   0.000  0.00  0.00    +0.215 C 
BRANCH   7  10
ATOM      8  C   UNL     1       1.997   3.589   0.000  0.00  0.00    +0.139 C 
ATOM      9  N   UNL     1       1.282   3.177   0.000  0.00  0.00    -0.202 NA
ATOM     10  C   UNL     1       1.282   2.352   0.000  0.00  0.00    +0.266 C 
ATOM     11  O   UNL     1       1.997   1.939   0.000  0.00  0.00    -0.271 OA
ENDBRANCH   7  10
ENDBRANCH   1   7
TORSDOF 2
