REMARK  Name = 
REMARK  4 active torsions:
REMARK  status: ('A' for Active; 'I' for Inactive)
REMARK    1  A    between atoms: N_2  and  C_3
REMARK    2  A    between atoms: C_3  and  C_4
REMARK    3  A    between atoms: N_6  and  C_7
REMARK    4  A    between atoms: C_7  and  C_8
REMARK                            x       y       z     vdW  Elec       q    Type
REMARK                         _______ _______ _______ _____ _____    ______ ____
ROOT
ATOM      1  C   UNL     1       0.715  -3.712   0.000  0.00  0.00    +0.004 A 
ATOM      2  C   UNL     1       0.000  -3.300   0.000  0.00  0.00    +0.032 A 
ATOM      3  C   UNL     1      -0.715  -3.712   0.000  0.00  0.00    +0.132 A 
ATOM      4  N   UNL     1      -1.429  -3.300   0.000  0.00  0.00    -0.288 N 
ATOM      5  C   UNL     1      -1.429  -2.475   0.000  0.00  0.00    +0.124 C 
ATOM      6  C   UNL     1      -2.143  -2.062   0.000  0.00  0.00    +0.164 C 
ATOM      7  O   UNL     1      -2.858  -2.475   0.000  0.00  0.00    -0.350 OA
ATOM      8  C   UNL     1      -2.858  -3.300   0.000  0.00  0.00    +0.164 C 
ATOM      9  C   UNL     1      -2.143  -3.712   0.000  0.00  0.00    +0.124 C 
ATOM     10  N   UNL     1      -0.715  -4.537   0.000  0.00  0.00    -0.229 NA
ATOM     11  C   UNL     1       0.000  -4.950   0.000  0.00  0.00    +0.100 A 
ATOM     12  C   UNL     1       0.715  -4.537   0.000  0.00  0.00    +0.018 A 
ENDROOT
BRANCH   1  13
ATOM     13  C   UNL     1       1.429  -3.300   0.000  0.00  0.00    +0.142 C 
BRANCH  13  15
ATOM     14  C   UNL     1       2.858  -3.300   0.000  0.00  0.00    +0.262 C 
ATOM     15  N   UNL     1       2.143  -3.712   0.000  0.00  0.00    -0.199 NA
ATOM     16  O   UNL     1       2.858  -2.475   0.000  0.00  0.00    -0.271 OA
BRANCH  14  17
ATOM     17  C   UNL     1       3.572  -3.712   0.000  0.00  0.00    +0.181 C 
BRANCH  17  19
ATOM     18  C   UNL     1       4.287  -2.475   0.000  0.00  0.00    +0.115 C 
ATOM     19  N   UNL     1       4.287  -3.300   0.000  0.00  0.00    -0.269 N 
ATOM     20  C   UNL     1       5.001  -3.712   0.000  0.00  0.00    +0.227 C 
ATOM     21  C   UNL     1       5.001  -4.537   0.000  0.00  0.00    +0.095 C 
ATOM     22  O   UNL     1       5.716  -3.300   0.000  0.00  0.00    -0.275 OA
ENDBRANCH  17  19
ENDBRANCH  14  17
ENDBRANCH  13  15
ENDBRANCH   1  13
TORSDOF 4
