REMARK  Name = 
REMARK  3 active torsions:
REMARK  status: ('A' for Active; 'I' for Inactive)
REMARK    1  A    between atoms: S_2  and  C_3
REMARK    2  A    between atoms: C_3  and  C_4
REMARK    3  A    between atoms: C_8  and  C_10
REMARK                            x       y       z     vdW  Elec       q    Type
REMARK                         _______ _______ _______ _____ _____    ______ ____
ROOT
ATOM      1  C   UNL     1       1.429  -2.475   0.000  0.00  0.00    +0.082 A 
ATOM      2  C   UNL     1       0.715  -2.888   0.000  0.00  0.00    +0.072 A 
ATOM      3 CL   UNL     1       0.000  -2.475   0.000  0.00  0.00    -0.081 Cl
ATOM      4  C   UNL     1       0.715  -3.712   0.000  0.00  0.00    +0.016 A 
ATOM      5  C   UNL     1       1.429  -4.125   0.000  0.00  0.00    +0.037 A 
ATOM      6  C   UNL     1       2.143  -3.712   0.000  0.00  0.00    +0.154 A 
ATOM      7  N   UNL     1       2.858  -4.125   0.000  0.00  0.00    -0.158 NA
ATOM      8  C   UNL     1       3.572  -3.712   0.000  0.00  0.00    +0.277 C 
ATOM      9  O   UNL     1       3.572  -2.888   0.000  0.00  0.00    -0.270 OA
ATOM     10  N   UNL     1       2.143  -2.888   0.000  0.00  0.00    -0.231 NA
ENDROOT
BRANCH   8  11
ATOM     11  C   UNL     1       4.287  -4.125   0.000  0.00  0.00    +0.223 C 
ATOM     12  O   UNL     1       4.287  -4.950   0.000  0.00  0.00    -0.342 OA
ATOM     13  C   UNL     1       5.001  -5.362   0.000  0.00  0.00    +0.175 C 
ATOM     14  C   UNL     1       5.716  -4.950   0.000  0.00  0.00    +0.174 C 
ATOM     15  O   UNL     1       5.716  -4.125   0.000  0.00  0.00    -0.348 OA
ATOM     16  C   UNL     1       5.001  -3.712   0.000  0.00  0.00    +0.181 C 
ENDBRANCH   8  11
BRANCH   1  17
ATOM     17  C   UNL     1       1.429  -1.650   0.000  0.00  0.00    +0.104 C 
BRANCH  17  19
ATOM     18  C   UNL     1       0.715  -0.412   0.000  0.00  0.00    +0.070 C 
ATOM     19  S   UNL     1       0.715  -1.238   0.000  0.00  0.00    -0.133 S 
ENDBRANCH  17  19
ENDBRANCH   1  17
TORSDOF 3
