REMARK  Name = 
REMARK  5 active torsions:
REMARK  status: ('A' for Active; 'I' for Inactive)
REMARK    1  A    between atoms: C_2  and  N_3
REMARK    2  A    between atoms: C_2  and  C_15
REMARK    3  A    between atoms: N_3  and  C_4
REMARK    4  A    between atoms: C_4  and  C_5
REMARK    5  A    between atoms: C_15  and  N_17
REMARK                            x       y       z     vdW  Elec       q    Type
REMARK                         _______ _______ _______ _____ _____    ______ ____
ROOT
ATOM      1  C   UNL     1       1.429  -1.650   0.000  0.00  0.00    +0.174 C 
ENDROOT
BRANCH   1   2
ATOM      2  C   UNL     1       0.715  -1.238   0.000  0.00  0.00    +0.244 C 
ATOM      3  N   UNL     1       0.000  -1.650   0.000  0.00  0.00    -0.273 N 
ATOM      4  C   UNL     1      -0.715  -1.238   0.000  0.00  0.00    +0.123 C 
ATOM      5  C   UNL     1      -1.429  -1.650   0.000  0.00  0.00    +0.135 C 
ATOM      6  C   UNL     1      -2.143  -1.238   0.000  0.00  0.00    +0.034 C 
ATOM      7  O   UNL     1      -1.429  -2.475   0.000  0.00  0.00    -0.355 OA
ATOM      8  C   UNL     1      -0.715  -2.888   0.000  0.00  0.00    +0.135 C 
ATOM      9  C   UNL     1      -0.715  -3.712   0.000  0.00  0.00    +0.034 C 
ATOM     10  C   UNL     1       0.000  -2.475   0.000  0.00  0.00    +0.123 C 
ATOM     11  O   UNL     1       0.715  -0.412   0.000  0.00  0.00    -0.273 OA
ENDBRANCH   1   2
BRANCH   1  12
ATOM     12  N   UNL     1       2.143  -1.238   0.000  0.00  0.00    -0.208 NA
BRANCH  12  14
ATOM     13  C   UNL     1       2.858  -2.475   0.000  0.00  0.00    +0.021 C 
ATOM     14  C   UNL     1       2.858  -1.650   0.000  0.00  0.00    +0.096 C 
BRANCH  14  15
ATOM     15  C   UNL     1       3.572  -1.238   0.000  0.00  0.00    +0.121 C 
ATOM     16  C   UNL     1       3.572  -0.412   0.000  0.00  0.00    +0.028 C 
BRANCH  15  17
ATOM     17  N   UNL     1       4.287  -1.650   0.000  0.00  0.00    -0.250 N 
ATOM     18  N   UNL     1       4.373  -2.470   0.000  0.00  0.00    -0.168 NA
ATOM     19  C   UNL     1       5.180  -2.642   0.000  0.00  0.00    +0.122 A 
ATOM     20  C   UNL     1       5.593  -1.927   0.000  0.00  0.00    +0.043 A 
ATOM     21  C   UNL     1       5.040  -1.314   0.000  0.00  0.00    +0.097 A 
ENDBRANCH  15  17
ENDBRANCH  14  15
ENDBRANCH  12  14
ENDBRANCH   1  12
TORSDOF 5
