REMARK  Name = 
REMARK  4 active torsions:
REMARK  status: ('A' for Active; 'I' for Inactive)
REMARK    1  A    between atoms: C_2  and  C_4
REMARK    2  A    between atoms: C_4  and  N_5
REMARK    3  A    between atoms: C_8  and  N_11
REMARK    4  A    between atoms: N_14  and  C_15
REMARK                            x       y       z     vdW  Elec       q    Type
REMARK                         _______ _______ _______ _____ _____    ______ ____
ROOT
ATOM      1  N   UNL     1       0.000   8.004   0.000  0.00  0.00    -0.189 NA
ATOM      2  C   UNL     1       0.000   7.179   0.000  0.00  0.00    +0.343 C 
ATOM      3  N   UNL     1       0.715   6.766   0.000  0.00  0.00    -0.159 NA
ATOM      4  O   UNL     1      -0.715   6.766   0.000  0.00  0.00    -0.249 OA
ENDROOT
BRANCH   3   5
ATOM      5  C   UNL     1       0.715   5.941   0.000  0.00  0.00    +0.094 A 
ATOM      6  C   UNL     1       0.000   5.529   0.000  0.00  0.00    +0.117 A 
ATOM      7  N   UNL     1       0.000   4.704   0.000  0.00  0.00    -0.228 NA
ATOM      8  C   UNL     1       0.715   4.291   0.000  0.00  0.00    +0.132 A 
ATOM      9  N   UNL     1       0.715   3.466   0.000  0.00  0.00    -0.293 N 
ATOM     10  C   UNL     1       0.047   2.981   0.000  0.00  0.00    +0.092 C 
ATOM     11  C   UNL     1       0.302   2.196   0.000  0.00  0.00    +0.023 C 
ATOM     12  C   UNL     1       1.127   2.196   0.000  0.00  0.00    +0.023 C 
ATOM     13  C   UNL     1       1.382   2.981   0.000  0.00  0.00    +0.092 C 
ATOM     14  C   UNL     1       1.429   4.704   0.000  0.00  0.00    +0.036 A 
ATOM     15  C   UNL     1       1.429   5.529   0.000  0.00  0.00    +0.021 A 
ENDBRANCH   3   5
BRANCH   1  19
ATOM     16  N   UNL     1      -2.143   9.241   0.000  0.00  0.00    -0.265 NA
ATOM     17  C   UNL     1      -2.143   8.416   0.000  0.00  0.00    +0.074 C 
ATOM     18  C   UNL     1      -1.429   8.004   0.000  0.00  0.00    +0.039 C 
ATOM     19  C   UNL     1      -0.715   8.416   0.000  0.00  0.00    +0.100 C 
ATOM     20  C   UNL     1      -0.715   9.241   0.000  0.00  0.00    +0.039 C 
ATOM     21  C   UNL     1      -1.429   9.654   0.000  0.00  0.00    +0.074 C 
BRANCH  16  22
ATOM     22  C   UNL     1      -2.858   9.654   0.000  0.00  0.00    +0.162 C 
BRANCH  22  24
ATOM     23  N   UNL     1      -2.143  10.891   0.000  0.00  0.00    -0.087 NA
ATOM     24  C   UNL     1      -2.858  10.479   0.000  0.00  0.00    +0.277 C 
ATOM     25  O   UNL     1      -3.572  10.891   0.000  0.00  0.00    -0.270 OA
ENDBRANCH  22  24
ENDBRANCH  16  22
ENDBRANCH   1  19
TORSDOF 4
