REMARK  Name = 
REMARK  5 active torsions:
REMARK  status: ('A' for Active; 'I' for Inactive)
REMARK    1  A    between atoms: N_2  and  C_3
REMARK    2  A    between atoms: N_4  and  C_15
REMARK    3  A    between atoms: C_8  and  C_23
REMARK    4  A    between atoms: C_13  and  C_15
REMARK    5  A    between atoms: C_13  and  C_22
REMARK                            x       y       z     vdW  Elec       q    Type
REMARK                         _______ _______ _______ _____ _____    ______ ____
ROOT
ATOM      1  C   UNL     1       2.562   0.825   0.000  0.00  0.00    +0.149 A 
ATOM      2  N   UNL     1       1.779   1.083   0.000  0.00  0.00    -0.219 NA
ATOM      3  C   UNL     1       1.292   0.412   0.000  0.00  0.00    +0.180 A 
ATOM      4  N   UNL     1       1.779  -0.254   0.000  0.00  0.00    -0.294 N 
ATOM      5  C   UNL     1       2.562   0.000   0.000  0.00  0.00    +0.167 A 
ATOM      6  N   UNL     1       3.275  -0.412   0.000  0.00  0.00    -0.205 NA
ATOM      7  C   UNL     1       3.992   0.000   0.000  0.00  0.00    +0.201 A 
ATOM      8  N   UNL     1       3.992   0.825   0.000  0.00  0.00    -0.207 NA
ATOM      9  C   UNL     1       3.275   1.238   0.000  0.00  0.00    +0.155 A 
ENDROOT
BRANCH   9  10
ATOM     10  N   UNL     1       3.275   2.062   0.000  0.00  0.00    -0.284 N 
ATOM     11  C   UNL     1       2.562   2.475   0.000  0.00  0.00    +0.114 C 
ATOM     12  C   UNL     1       2.562   3.300   0.000  0.00  0.00    +0.115 C 
ATOM     13  N   UNL     1       3.275   3.712   0.000  0.00  0.00    -0.275 N 
ATOM     14  C   UNL     1       3.992   3.300   0.000  0.00  0.00    +0.244 C 
ATOM     15  O   UNL     1       4.704   3.712   0.000  0.00  0.00    -0.273 OA
ATOM     16  C   UNL     1       3.275   4.533   0.000  0.00  0.00    +0.115 C 
ATOM     17  C   UNL     1       3.992   2.475   0.000  0.00  0.00    +0.151 C 
BRANCH  17  18
ATOM     18  C   UNL     1       4.704   2.062   0.000  0.00  0.00    +0.029 C 
ATOM     19  C   UNL     1       5.421   2.475   0.000  0.00  0.00    +0.002 C 
ENDBRANCH  17  18
ENDBRANCH   9  10
BRANCH   4  20
ATOM     20  C   UNL     1       1.521  -1.038   0.000  0.00  0.00    +0.116 C 
BRANCH  20  21
ATOM     21  C   UNL     1       0.717  -1.208   0.000  0.00  0.00    +0.106 C 
ATOM     22  C   UNL     1       0.887  -2.017   0.000  0.00  0.00    +0.149 C 
ATOM     23  O   UNL     1       0.079  -2.188   0.000  0.00  0.00    -0.353 OA
ATOM     24  C   UNL     1      -0.092  -1.379   0.000  0.00  0.00    +0.149 C 
BRANCH  21  25
ATOM     25  C   UNL     1       0.546  -0.400   0.000  0.00  0.00    +0.189 C 
ATOM     26  O   UNL     1      -0.242  -0.146   0.000  0.00  0.00    -0.220 OA
ENDBRANCH  21  25
ENDBRANCH  20  21
ENDBRANCH   4  20
TORSDOF 5
