REMARK  Name = 
REMARK  5 active torsions:
REMARK  status: ('A' for Active; 'I' for Inactive)
REMARK    1  A    between atoms: C_7  and  N_8
REMARK    2  A    between atoms: C_9  and  C_11
REMARK    3  A    between atoms: C_11  and  N_12
REMARK    4  A    between atoms: C_14  and  N_22
REMARK    5  A    between atoms: C_16  and  C_17
REMARK                            x       y       z     vdW  Elec       q    Type
REMARK                         _______ _______ _______ _____ _____    ______ ____
ROOT
ATOM      1  N   UNL     1      -5.001  -2.888   0.000  0.00  0.00    -0.280 N 
ATOM      2  C   UNL     1      -5.716  -2.475   0.000  0.00  0.00    +0.266 A 
ATOM      3  O   UNL     1      -5.716  -1.650   0.000  0.00  0.00    -0.267 OA
ATOM      4  C   UNL     1      -6.430  -2.888   0.000  0.00  0.00    +0.119 A 
ATOM      5  C   UNL     1      -6.430  -3.712   0.000  0.00  0.00    +0.086 A 
ATOM      6  C   UNL     1      -5.716  -4.125   0.000  0.00  0.00    +0.307 A 
ATOM      7  C   UNL     1      -5.001  -3.712   0.000  0.00  0.00    +0.155 A 
ENDROOT
BRANCH   4   8
ATOM      8  C   UNL     1      -7.145  -2.475   0.000  0.00  0.00    +0.289 C 
ATOM      9  N   UNL     1      -7.145  -1.650   0.000  0.00  0.00    -0.084 NA
ATOM     10  O   UNL     1      -7.859  -2.888   0.000  0.00  0.00    -0.266 OA
ENDBRANCH   4   8
BRANCH   6  11
ATOM     11  N   UNL     1      -5.716  -4.950   0.000  0.00  0.00    +0.082 N 
ATOM     12  O   UNL     1      -5.001  -5.362   0.000  0.00  0.00    -0.576 OA
ATOM     13  O   UNL     1      -6.430  -5.362   0.000  0.00  0.00    +0.042 OA
ENDBRANCH   6  11
BRANCH   1  14
ATOM     14  C   UNL     1      -4.287  -2.475   0.000  0.00  0.00    +0.196 C 
BRANCH  14  16
ATOM     15  N   UNL     1      -2.858  -2.475   0.000  0.00  0.00    -0.206 NA
ATOM     16  C   UNL     1      -3.572  -2.888   0.000  0.00  0.00    +0.264 C 
ATOM     17  O   UNL     1      -3.572  -3.712   0.000  0.00  0.00    -0.271 OA
BRANCH  15  20
ATOM     18  C   UNL     1      -1.429  -1.650   0.000  0.00  0.00    +0.002 C 
ATOM     19  C   UNL     1      -1.429  -2.475   0.000  0.00  0.00    +0.020 C 
ATOM     20  C   UNL     1      -2.143  -2.888   0.000  0.00  0.00    +0.095 C 
ATOM     21  C   UNL     1      -2.143  -3.712   0.000  0.00  0.00    +0.022 C 
ATOM     22  C   UNL     1      -1.429  -4.125   0.000  0.00  0.00    +0.002 C 
ATOM     23  C   UNL     1      -0.715  -3.712   0.000  0.00  0.00    +0.000 C 
ATOM     24  C   UNL     1      -0.715  -2.888   0.000  0.00  0.00    +0.002 C 
ENDBRANCH  15  20
ENDBRANCH  14  16
ENDBRANCH   1  14
TORSDOF 5
