REMARK  Name = 
REMARK  5 active torsions:
REMARK  status: ('A' for Active; 'I' for Inactive)
REMARK    1  A    between atoms: C_2  and  C_5
REMARK    2  A    between atoms: C_10  and  N_11
REMARK    3  A    between atoms: N_14  and  C_15
REMARK    4  A    between atoms: C_15  and  C_16
REMARK    5  A    between atoms: C_16  and  C_17
REMARK                            x       y       z     vdW  Elec       q    Type
REMARK                         _______ _______ _______ _____ _____    ______ ____
ROOT
ATOM      1  N   UNL     1       2.143  -3.712   0.000  0.00  0.00    -0.156 NA
ATOM      2  C   UNL     1       2.858  -4.125   0.000  0.00  0.00    +0.344 C 
ATOM      3  N   UNL     1       3.572  -3.712   0.000  0.00  0.00    -0.187 NA
ATOM      4  O   UNL     1       2.858  -4.950   0.000  0.00  0.00    -0.249 OA
ENDROOT
BRANCH   1   7
ATOM      5  C   UNL     1       0.715  -5.362   0.000  0.00  0.00    +0.092 A 
ATOM      6  C   UNL     1       1.429  -4.950   0.000  0.00  0.00    +0.027 A 
ATOM      7  C   UNL     1       1.429  -4.125   0.000  0.00  0.00    +0.133 A 
ATOM      8  C   UNL     1       0.715  -3.712   0.000  0.00  0.00    +0.295 A 
ATOM      9  O   UNL     1       0.715  -2.888   0.000  0.00  0.00    -0.264 OA
ATOM     10  N   UNL     1       0.000  -4.125   0.000  0.00  0.00    -0.205 NA
ATOM     11  C   UNL     1       0.000  -4.950   0.000  0.00  0.00    +0.106 A 
BRANCH   5  13
ATOM     12  F   UNL     1       0.715  -7.013   0.000  0.00  0.00    -0.166 F 
ATOM     13  C   UNL     1       0.715  -6.188   0.000  0.00  0.00    +0.420 C 
ATOM     14  F   UNL     1      -0.111  -6.188   0.000  0.00  0.00    -0.166 F 
ATOM     15  F   UNL     1       1.540  -6.188   0.000  0.00  0.00    -0.166 F 
ENDBRANCH   5  13
ENDBRANCH   1   7
BRANCH   3  16
ATOM     16  C   UNL     1       4.287  -4.125   0.000  0.00  0.00    +0.121 C 
BRANCH  16  17
ATOM     17  C   UNL     1       5.001  -3.712   0.000  0.00  0.00    +0.045 C 
BRANCH  17  18
ATOM     18  C   UNL     1       5.716  -4.125   0.000  0.00  0.00    -0.047 C 
ATOM     19  C   UNL     1       5.716  -4.950   0.000  0.00  0.00    +0.022 C 
ATOM     20  C   UNL     1       6.430  -5.362   0.000  0.00  0.00    +0.005 C 
ATOM     21  C   UNL     1       7.145  -4.950   0.000  0.00  0.00    +0.005 C 
ATOM     22  C   UNL     1       7.145  -4.125   0.000  0.00  0.00    +0.025 C 
ATOM     23  C   UNL     1       6.430  -3.712   0.000  0.00  0.00    -0.035 C 
ENDBRANCH  17  18
ENDBRANCH  16  17
ENDBRANCH   3  16
TORSDOF 5
