REMARK  Name = 
REMARK  3 active torsions:
REMARK  status: ('A' for Active; 'I' for Inactive)
REMARK    1  A    between atoms: C_2  and  C_3
REMARK    2  A    between atoms: C_2  and  C_17
REMARK    3  A    between atoms: C_3  and  N_4
REMARK                            x       y       z     vdW  Elec       q    Type
REMARK                         _______ _______ _______ _____ _____    ______ ____
ROOT
ATOM      1  N   UNL     1       4.727  -1.353   0.000  0.00  0.00    -0.188 NA
ATOM      2  C   UNL     1       5.441  -0.941   0.000  0.00  0.00    +0.323 C 
ATOM      3  N   UNL     1       6.156  -1.353   0.000  0.00  0.00    -0.258 N 
ATOM      4  C   UNL     1       6.156  -2.179   0.000  0.00  0.00    +0.122 C 
ATOM      5  C   UNL     1       6.870  -2.591   0.000  0.00  0.00    +0.111 C 
ATOM      6  C   UNL     1       6.203  -3.076   0.000  0.00  0.00    +0.029 C 
ATOM      7  C   UNL     1       6.458  -3.861   0.000  0.00  0.00    +0.003 C 
ATOM      8  C   UNL     1       7.283  -3.861   0.000  0.00  0.00    +0.003 C 
ATOM      9  C   UNL     1       7.538  -3.076   0.000  0.00  0.00    +0.029 C 
ATOM     10  O   UNL     1       7.585  -2.179   0.000  0.00  0.00    -0.355 OA
ATOM     11  C   UNL     1       7.585  -1.353   0.000  0.00  0.00    +0.163 C 
ATOM     12  C   UNL     1       6.870  -0.941   0.000  0.00  0.00    +0.127 C 
ATOM     13  O   UNL     1       5.441  -0.116   0.000  0.00  0.00    -0.251 OA
ENDROOT
BRANCH   1  14
ATOM     14  C   UNL     1       4.013  -0.941   0.000  0.00  0.00    +0.121 C 
BRANCH  14  16
ATOM     15  C   UNL     1       3.298  -2.179   0.000  0.00  0.00    +0.007 C 
ATOM     16  C   UNL     1       3.298  -1.353   0.000  0.00  0.00    +0.044 C 
BRANCH  16  17
ATOM     17  C   UNL     1       2.584  -0.941   0.000  0.00  0.00    -0.018 A 
ATOM     18  C   UNL     1       2.584  -0.116   0.000  0.00  0.00    +0.016 A 
ATOM     19  C   UNL     1       1.869   0.296   0.000  0.00  0.00    +0.099 A 
ATOM     20  N   UNL     1       1.155  -0.116   0.000  0.00  0.00    -0.242 NA
ATOM     21  C   UNL     1       1.155  -0.941   0.000  0.00  0.00    +0.099 A 
ATOM     22  C   UNL     1       1.869  -1.353   0.000  0.00  0.00    +0.016 A 
ENDBRANCH  16  17
ENDBRANCH  14  16
ENDBRANCH   1  14
TORSDOF 3
