REMARK  Name = 
REMARK  4 active torsions:
REMARK  status: ('A' for Active; 'I' for Inactive)
REMARK    1  A    between atoms: C_2  and  C_12
REMARK    2  A    between atoms: N_3  and  C_4
REMARK    3  A    between atoms: C_4  and  C_5
REMARK    4  A    between atoms: C_5  and  C_6
REMARK                            x       y       z     vdW  Elec       q    Type
REMARK                         _______ _______ _______ _____ _____    ______ ____
ROOT
ATOM      1  O   UNL     1       0.715  -3.712   0.000  0.00  0.00    -0.271 OA
ATOM      2  C   UNL     1       0.715  -2.888   0.000  0.00  0.00    +0.269 C 
ATOM      3  N   UNL     1       1.429  -2.475   0.000  0.00  0.00    -0.203 NA
ENDROOT
BRANCH   2   4
ATOM      4  C   UNL     1       0.000  -2.475   0.000  0.00  0.00    +0.193 C 
ATOM      5  O   UNL     1      -0.086  -1.655   0.000  0.00  0.00    -0.347 OA
ATOM      6  C   UNL     1      -0.893  -1.483   0.000  0.00  0.00    +0.143 C 
ATOM      7  C   UNL     1      -1.306  -2.197   0.000  0.00  0.00    +0.035 C 
ATOM      8  C   UNL     1      -0.754  -2.811   0.000  0.00  0.00    +0.042 C 
ENDBRANCH   2   4
BRANCH   3   9
ATOM      9  C   UNL     1       2.143  -2.888   0.000  0.00  0.00    +0.122 C 
BRANCH   9  10
ATOM     10  C   UNL     1       2.858  -2.475   0.000  0.00  0.00    +0.069 C 
BRANCH  10  11
ATOM     11  C   UNL     1       3.572  -2.888   0.000  0.00  0.00    +0.061 A 
ATOM     12  N   UNL     1       3.572  -3.712   0.000  0.00  0.00    -0.248 NA
ATOM     13  C   UNL     1       4.287  -4.125   0.000  0.00  0.00    +0.098 A 
ATOM     14  C   UNL     1       5.001  -3.712   0.000  0.00  0.00    +0.021 A 
ATOM     15  C   UNL     1       5.001  -2.888   0.000  0.00  0.00    +0.003 A 
ATOM     16  C   UNL     1       4.287  -2.475   0.000  0.00  0.00    +0.015 A 
ENDBRANCH  10  11
ENDBRANCH   9  10
ENDBRANCH   3   9
TORSDOF 4
