REMARK  Name = 
REMARK  6 active torsions:
REMARK  status: ('A' for Active; 'I' for Inactive)
REMARK    1  A    between atoms: O_2  and  C_3
REMARK    2  A    between atoms: C_3  and  C_4
REMARK    3  A    between atoms: C_4  and  O_5
REMARK    4  A    between atoms: O_5  and  C_6
REMARK    5  A    between atoms: C_11  and  C_12
REMARK    6  A    between atoms: N_14  and  C_15
REMARK                            x       y       z     vdW  Elec       q    Type
REMARK                         _______ _______ _______ _____ _____    ______ ____
ROOT
ATOM      1  C   UNL     1       2.143  -2.062   0.000  0.00  0.00    +0.229 A 
ATOM      2  C   UNL     1       2.858  -2.475   0.000  0.00  0.00    +0.108 A 
ATOM      3  C   UNL     1       3.572  -2.062   0.000  0.00  0.00    +0.011 A 
ATOM      4  C   UNL     1       3.572  -1.238   0.000  0.00  0.00    +0.021 A 
ATOM      5  C   UNL     1       2.858  -0.825   0.000  0.00  0.00    +0.102 A 
ATOM      6  N   UNL     1       2.143  -1.238   0.000  0.00  0.00    -0.210 NA
ENDROOT
BRANCH   2   7
ATOM      7  C   UNL     1       2.858  -3.300   0.000  0.00  0.00    +0.269 C 
ATOM      8  N   UNL     1       3.572  -3.712   0.000  0.00  0.00    -0.201 NA
ATOM      9  O   UNL     1       2.143  -3.712   0.000  0.00  0.00    -0.268 OA
BRANCH   8  10
ATOM     10  C   UNL     1       3.572  -4.537   0.000  0.00  0.00    +0.124 C 
ATOM     11  C   UNL     1       2.905  -5.022   0.000  0.00  0.00    +0.109 C 
ATOM     12  C   UNL     1       3.160  -5.807   0.000  0.00  0.00    +0.228 C 
ATOM     13  O   UNL     1       2.675  -6.474   0.000  0.00  0.00    -0.275 OA
ATOM     14  N   UNL     1       3.985  -5.807   0.000  0.00  0.00    -0.276 N 
ATOM     15  C   UNL     1       4.470  -6.474   0.000  0.00  0.00    +0.115 C 
ATOM     16  C   UNL     1       4.240  -5.022   0.000  0.00  0.00    +0.116 C 
ENDBRANCH   8  10
ENDBRANCH   2   7
BRANCH   1  17
ATOM     17  O   UNL     1       1.429  -2.475   0.000  0.00  0.00    -0.457 OA
BRANCH  17  18
ATOM     18  C   UNL     1       0.715  -2.062   0.000  0.00  0.00    +0.239 C 
BRANCH  18  19
ATOM     19  C   UNL     1       0.000  -2.475   0.000  0.00  0.00    +0.189 C 
BRANCH  19  21
ATOM     20  C   UNL     1      -1.429  -2.475   0.000  0.00  0.00    +0.174 C 
ATOM     21  O   UNL     1      -0.715  -2.062   0.000  0.00  0.00    -0.347 OA
ENDBRANCH  19  21
ENDBRANCH  18  19
ENDBRANCH  17  18
ENDBRANCH   1  17
TORSDOF 6
