REMARK  Name = 
REMARK  2 active torsions:
REMARK  status: ('A' for Active; 'I' for Inactive)
REMARK    1  A    between atoms: C_4  and  N_9
REMARK    2  A    between atoms: C_15  and  C_18
REMARK                            x       y       z     vdW  Elec       q    Type
REMARK                         _______ _______ _______ _____ _____    ______ ____
ROOT
ATOM      1  N   UNL     1      -2.143   6.766   0.000  0.00  0.00    -0.187 NA
ATOM      2  C   UNL     1      -2.143   5.941   0.000  0.00  0.00    +0.345 C 
ATOM      3  N   UNL     1      -1.429   5.529   0.000  0.00  0.00    -0.139 NA
ATOM      4  C   UNL     1      -1.429   4.704   0.000  0.00  0.00    +0.197 A 
ATOM      5  N   UNL     1      -2.096   4.219   0.000  0.00  0.00    -0.060 NA
ATOM      6  O   UNL     1      -1.841   3.434   0.000  0.00  0.00    -0.356 OA
ATOM      7  C   UNL     1      -1.016   3.434   0.000  0.00  0.00    +0.155 A 
ATOM      8  C   UNL     1      -0.761   4.219   0.000  0.00  0.00    +0.075 A 
ATOM      9  O   UNL     1      -2.858   5.529   0.000  0.00  0.00    -0.249 OA
ENDROOT
BRANCH   1  16
ATOM     10  C   UNL     1      -3.572   9.241   0.000  0.00  0.00    +0.115 C 
ATOM     11  N   UNL     1      -3.572   8.416   0.000  0.00  0.00    -0.276 N 
ATOM     12  C   UNL     1      -4.287   8.004   0.000  0.00  0.00    +0.226 C 
ATOM     13  O   UNL     1      -5.001   8.416   0.000  0.00  0.00    -0.275 OA
ATOM     14  C   UNL     1      -4.287   7.179   0.000  0.00  0.00    +0.087 C 
ATOM     15  C   UNL     1      -3.572   6.766   0.000  0.00  0.00    +0.033 C 
ATOM     16  C   UNL     1      -2.858   7.179   0.000  0.00  0.00    +0.117 C 
ATOM     17  C   UNL     1      -2.858   8.004   0.000  0.00  0.00    +0.115 C 
ENDBRANCH   1  16
BRANCH   7  18
ATOM     18  C   UNL     1      -0.531   2.767   0.000  0.00  0.00    +0.054 C 
ATOM     19  C   UNL     1       0.136   3.252   0.000  0.00  0.00    +0.008 C 
ATOM     20  C   UNL     1      -1.199   2.282   0.000  0.00  0.00    +0.008 C 
ATOM     21  C   UNL     1      -0.047   2.099   0.000  0.00  0.00    +0.008 C 
ENDBRANCH   7  18
TORSDOF 2
