REMARK  Name = 
REMARK  5 active torsions:
REMARK  status: ('A' for Active; 'I' for Inactive)
REMARK    1  A    between atoms: C_2  and  C_4
REMARK    2  A    between atoms: C_8  and  C_9
REMARK    3  A    between atoms: C_9  and  N_10
REMARK    4  A    between atoms: C_11  and  C_13
REMARK    5  A    between atoms: C_13  and  C_14
REMARK                            x       y       z     vdW  Elec       q    Type
REMARK                         _______ _______ _______ _____ _____    ______ ____
ROOT
ATOM      1  N   UNL     1       1.429  -2.475   0.000  0.00  0.00    -0.205 NA
ATOM      2  C   UNL     1       2.143  -2.888   0.000  0.00  0.00    +0.246 C 
ATOM      3  O   UNL     1       2.143  -3.712   0.000  0.00  0.00    -0.273 OA
ENDROOT
BRANCH   1   4
ATOM      4  C   UNL     1       0.715  -2.888   0.000  0.00  0.00    +0.118 C 
BRANCH   4   6
ATOM      5  C   UNL     1      -0.754  -2.811   0.000  0.00  0.00    +0.117 C 
ATOM      6  C   UNL     1       0.000  -2.475   0.000  0.00  0.00    +0.051 C 
ATOM      7  C   UNL     1      -0.086  -1.655   0.000  0.00  0.00    +0.036 C 
ATOM      8  C   UNL     1      -0.893  -1.483   0.000  0.00  0.00    +0.142 C 
ATOM      9  O   UNL     1      -1.306  -2.197   0.000  0.00  0.00    -0.356 OA
BRANCH   5  11
ATOM     10  C   UNL     1      -1.710  -3.873   0.000  0.00  0.00    +0.002 C 
ATOM     11  C   UNL     1      -0.925  -3.618   0.000  0.00  0.00    +0.027 C 
ATOM     12  C   UNL     1      -0.312  -4.170   0.000  0.00  0.00    +0.002 C 
ENDBRANCH   5  11
ENDBRANCH   4   6
ENDBRANCH   1   4
BRANCH   2  13
ATOM     13  C   UNL     1       2.858  -2.475   0.000  0.00  0.00    +0.115 C 
BRANCH  13  14
ATOM     14  C   UNL     1       3.572  -2.888   0.000  0.00  0.00    +0.006 A 
ATOM     15  C   UNL     1       3.572  -3.712   0.000  0.00  0.00    +0.095 A 
ATOM     16  N   UNL     1       4.287  -4.125   0.000  0.00  0.00    -0.248 NA
ATOM     17  C   UNL     1       5.001  -3.712   0.000  0.00  0.00    +0.059 A 
ATOM     18  C   UNL     1       5.716  -4.125   0.000  0.00  0.00    +0.052 C 
ATOM     19  C   UNL     1       5.001  -2.888   0.000  0.00  0.00    +0.014 A 
ATOM     20  C   UNL     1       4.287  -2.475   0.000  0.00  0.00    -0.001 A 
ENDBRANCH  13  14
ENDBRANCH   2  13
TORSDOF 5
