REMARK  Name = 
REMARK  7 active torsions:
REMARK  status: ('A' for Active; 'I' for Inactive)
REMARK    1  A    between atoms: C_2  and  CA_3
REMARK    2  A    between atoms: CA_3  and  C_4
REMARK    3  A    between atoms: CA_3  and  N_11
REMARK    4  A    between atoms: C_4  and  C_5
REMARK    5  A    between atoms: C_12  and  C_14
REMARK    6  A    between atoms: C_14  and  C_15
REMARK    7  A    between atoms: C_15  and  C_16
REMARK                            x       y       z     vdW  Elec       q    Type
REMARK                         _______ _______ _______ _____ _____    ______ ____
ROOT
ATOM      1  CA  UNL     1       1.429  -1.650   0.000  0.00  0.00    +0.134 C 
ENDROOT
BRANCH   1   2
ATOM      2  N   UNL     1       2.143  -2.062   0.000  0.00  0.00    -0.204 NA
ATOM      3  C   UNL     1       2.858  -1.650   0.000  0.00  0.00    +0.241 C 
ATOM      4  O   UNL     1       2.858  -0.825   0.000  0.00  0.00    -0.273 OA
BRANCH   3   5
ATOM      5  C   UNL     1       3.572  -2.062   0.000  0.00  0.00    +0.087 C 
BRANCH   5   6
ATOM      6  C   UNL     1       4.287  -1.650   0.000  0.00  0.00    +0.010 C 
BRANCH   6   7
ATOM      7  C   UNL     1       5.001  -2.062   0.000  0.00  0.00    +0.000 C 
ATOM      8  C   UNL     1       5.088  -2.883   0.000  0.00  0.00    +0.000 C 
ATOM      9  C   UNL     1       5.894  -3.054   0.000  0.00  0.00    +0.000 C 
ATOM     10  C   UNL     1       6.307  -2.340   0.000  0.00  0.00    +0.000 C 
ATOM     11  C   UNL     1       5.755  -1.727   0.000  0.00  0.00    +0.000 C 
ENDBRANCH   6   7
ENDBRANCH   5   6
ENDBRANCH   3   5
ENDBRANCH   1   2
BRANCH   1  13
ATOM     12  O   UNL     1       2.143  -0.412   0.000  0.00  0.00    -0.218 OA
ATOM     13  C   UNL     1       1.429  -0.825   0.000  0.00  0.00    +0.204 C 
ENDBRANCH   1  13
BRANCH   1  14
ATOM     14  C   UNL     1       0.715  -2.062   0.000  0.00  0.00    +0.070 C 
BRANCH  14  15
ATOM     15  C   UNL     1       0.000  -1.650   0.000  0.00  0.00    +0.061 A 
ATOM     16  N   UNL     1       0.000  -0.825   0.000  0.00  0.00    -0.248 NA
ATOM     17  C   UNL     1      -0.715  -0.412   0.000  0.00  0.00    +0.098 A 
ATOM     18  C   UNL     1      -1.429  -0.825   0.000  0.00  0.00    +0.021 A 
ATOM     19  C   UNL     1      -1.429  -1.650   0.000  0.00  0.00    +0.003 A 
ATOM     20  C   UNL     1      -0.715  -2.062   0.000  0.00  0.00    +0.015 A 
ENDBRANCH  14  15
ENDBRANCH   1  14
TORSDOF 7
