REMARK  Name = 
REMARK  4 active torsions:
REMARK  status: ('A' for Active; 'I' for Inactive)
REMARK    1  A    between atoms: N_3  and  C_13
REMARK    2  A    between atoms: N_4  and  C_17
REMARK    3  A    between atoms: C_11  and  C_13
REMARK    4  A    between atoms: C_14  and  C_17
REMARK                            x       y       z     vdW  Elec       q    Type
REMARK                         _______ _______ _______ _____ _____    ______ ____
ROOT
ATOM      1  N   UNL     1       2.637   0.954   0.000  0.00  0.00    -0.266 N 
ATOM      2  C   UNL     1       3.303   1.437   0.000  0.00  0.00    +0.180 C 
ATOM      3  C   UNL     1       3.049   2.224   0.000  0.00  0.00    +0.247 C 
ATOM      4  N   UNL     1       2.224   2.224   0.000  0.00  0.00    -0.253 N 
ATOM      5  O   UNL     1       3.532   2.891   0.000  0.00  0.00    -0.273 OA
ATOM      6  C   UNL     1       1.966   1.437   0.000  0.00  0.00    +0.192 C 
ATOM      7  C   UNL     1       2.637   0.129   0.000  0.00  0.00    +0.156 A 
ATOM      8  N   UNL     1       3.349  -0.283   0.000  0.00  0.00    -0.207 NA
ATOM      9  C   UNL     1       3.349  -1.108   0.000  0.00  0.00    +0.201 A 
ATOM     10  N   UNL     1       2.637  -1.520   0.000  0.00  0.00    -0.205 NA
ATOM     11  C   UNL     1       1.920  -1.108   0.000  0.00  0.00    +0.167 A 
ATOM     12  N   UNL     1       1.137  -1.362   0.000  0.00  0.00    -0.292 N 
ATOM     13  C   UNL     1       0.650  -0.696   0.000  0.00  0.00    +0.180 A 
ATOM     14  N   UNL     1       1.137  -0.029   0.000  0.00  0.00    -0.219 NA
ATOM     15  C   UNL     1       1.920  -0.283   0.000  0.00  0.00    +0.149 A 
ENDROOT
BRANCH   4  16
ATOM     16  C   UNL     1       1.737   2.891   0.000  0.00  0.00    +0.199 C 
BRANCH  16  17
ATOM     17  C   UNL     1       0.916   2.803   0.000  0.00  0.00    +0.416 C 
ATOM     18  F   UNL     1       1.004   1.983   0.000  0.00  0.00    -0.168 F 
ATOM     19  F   UNL     1       0.833   3.624   0.000  0.00  0.00    -0.168 F 
ATOM     20  F   UNL     1       0.096   2.716   0.000  0.00  0.00    -0.168 F 
ENDBRANCH  16  17
ENDBRANCH   4  16
BRANCH  12  21
ATOM     21  C   UNL     1       0.883  -2.149   0.000  0.00  0.00    +0.142 C 
BRANCH  21  22
ATOM     22  C   UNL     1       0.075  -2.320   0.000  0.00  0.00    +0.174 C 
ATOM     23  O   UNL     1       0.346  -1.541   0.000  0.00  0.00    -0.221 OA
ATOM     24  C   UNL     1      -0.729  -2.137   0.000  0.00  0.00    +0.067 C 
ATOM     25  C   UNL     1      -1.150  -2.849   0.000  0.00  0.00    +0.145 C 
ATOM     26  O   UNL     1      -0.604  -3.466   0.000  0.00  0.00    -0.354 OA
ATOM     27  C   UNL     1       0.154  -3.141   0.000  0.00  0.00    +0.145 C 
ATOM     28  C   UNL     1       0.862  -3.561   0.000  0.00  0.00    +0.035 C 
ENDBRANCH  21  22
ENDBRANCH  12  21
TORSDOF 4
