REMARK  Name = 
REMARK  3 active torsions:
REMARK  status: ('A' for Active; 'I' for Inactive)
REMARK    1  A    between atoms: C_6  and  C_7
REMARK    2  A    between atoms: C_7  and  C_8
REMARK    3  A    between atoms: N_10  and  C_11
REMARK                            x       y       z     vdW  Elec       q    Type
REMARK                         _______ _______ _______ _____ _____    ______ ____
ROOT
ATOM      1  C   UNL     1       2.858  -4.950   0.000  0.00  0.00    +0.119 C 
ENDROOT
BRANCH   1   7
ATOM      2  C   UNL     1       2.858  -1.650   0.000  0.00  0.00    +0.074 C 
ATOM      3  C   UNL     1       2.858  -2.475   0.000  0.00  0.00    +0.142 A 
ATOM      4  N   UNL     1       2.143  -2.888   0.000  0.00  0.00    -0.193 NA
ATOM      5  C   UNL     1       2.143  -3.712   0.000  0.00  0.00    +0.278 A 
ATOM      6  O   UNL     1       1.429  -4.125   0.000  0.00  0.00    -0.265 OA
ATOM      7  C   UNL     1       2.858  -4.125   0.000  0.00  0.00    +0.058 A 
ATOM      8  C   UNL     1       3.572  -3.712   0.000  0.00  0.00    +0.062 A 
ATOM      9  C   UNL     1       4.287  -4.125   0.000  0.00  0.00    +0.052 C 
ATOM     10  N   UNL     1       3.572  -2.888   0.000  0.00  0.00    -0.235 NA
ENDBRANCH   1   7
BRANCH   1  11
ATOM     11  C   UNL     1       2.143  -5.362   0.000  0.00  0.00    +0.246 C 
ATOM     12  N   UNL     1       2.143  -6.188   0.000  0.00  0.00    -0.207 NA
ATOM     13  O   UNL     1       1.429  -4.950   0.000  0.00  0.00    -0.273 OA
BRANCH  12  14
ATOM     14  C   UNL     1       1.429  -6.600   0.000  0.00  0.00    +0.095 C 
ATOM     15  C   UNL     1       0.715  -6.188   0.000  0.00  0.00    +0.022 C 
ATOM     16  C   UNL     1       0.000  -6.600   0.000  0.00  0.00    +0.002 C 
ATOM     17  C   UNL     1       0.000  -7.425   0.000  0.00  0.00    +0.000 C 
ATOM     18  C   UNL     1       0.715  -7.838   0.000  0.00  0.00    +0.002 C 
ATOM     19  C   UNL     1       1.429  -7.425   0.000  0.00  0.00    +0.022 C 
ENDBRANCH  12  14
ENDBRANCH   1  11
TORSDOF 3
