REMARK  Name = 
REMARK  6 active torsions:
REMARK  status: ('A' for Active; 'I' for Inactive)
REMARK    1  A    between atoms: N_6  and  C_7
REMARK    2  A    between atoms: C_7  and  C_8
REMARK    3  A    between atoms: C_8  and  N_9
REMARK    4  A    between atoms: N_9  and  C_10
REMARK    5  A    between atoms: C_10  and  C_12
REMARK    6  A    between atoms: C_10  and  C_14
REMARK                            x       y       z     vdW  Elec       q    Type
REMARK                         _______ _______ _______ _____ _____    ______ ____
ROOT
ATOM      1  N   UNL     1       0.548  -5.880   0.000  0.00  0.00    -0.216 NA
ENDROOT
BRANCH   1   2
ATOM      2  C   UNL     1      -0.272  -5.794   0.000  0.00  0.00    +0.090 C 
ATOM      3  C   UNL     1      -0.186  -4.973   0.000  0.00  0.00    +0.020 C 
BRANCH   2   4
ATOM      4  C   UNL     1      -1.093  -5.707   0.000  0.00  0.00    +0.017 C 
ATOM      5  C   UNL     1      -1.428  -4.954   0.000  0.00  0.00    +0.001 C 
ATOM      6  C   UNL     1      -2.249  -4.867   0.000  0.00  0.00    +0.000 C 
ATOM      7  C   UNL     1      -2.734  -5.535   0.000  0.00  0.00    +0.000 C 
ATOM      8  C   UNL     1      -2.398  -6.288   0.000  0.00  0.00    +0.000 C 
ATOM      9  C   UNL     1      -1.577  -6.375   0.000  0.00  0.00    +0.001 C 
ENDBRANCH   2   4
BRANCH   2  10
ATOM     10  C   UNL     1      -0.358  -6.614   0.000  0.00  0.00    +0.198 C 
ATOM     11  O   UNL     1      -1.112  -6.950   0.000  0.00  0.00    -0.219 OA
ENDBRANCH   2  10
ENDBRANCH   1   2
BRANCH   1  12
ATOM     12  C   UNL     1       1.033  -5.212   0.000  0.00  0.00    +0.115 C 
BRANCH  12  13
ATOM     13  C   UNL     1       1.854  -5.299   0.000  0.00  0.00    +0.146 C 
BRANCH  13  17
ATOM     14  C   UNL     1       2.751  -2.537   0.000  0.00  0.00    +0.054 C 
ATOM     15  C   UNL     1       2.751  -3.362   0.000  0.00  0.00    +0.080 A 
ATOM     16  N   UNL     1       2.084  -3.846   0.000  0.00  0.00    -0.174 NA
ATOM     17  N   UNL     1       2.339  -4.631   0.000  0.00  0.00    -0.254 N 
ATOM     18  C   UNL     1       3.164  -4.631   0.000  0.00  0.00    +0.057 A 
ATOM     19  C   UNL     1       3.649  -5.299   0.000  0.00  0.00    +0.052 C 
ATOM     20  C   UNL     1       3.419  -3.846   0.000  0.00  0.00    +0.031 A 
ENDBRANCH  13  17
ENDBRANCH  12  13
ENDBRANCH   1  12
TORSDOF 6
