REMARK  Name = 
REMARK  6 active torsions:
REMARK  status: ('A' for Active; 'I' for Inactive)
REMARK    1  A    between atoms: N_2  and  C_3
REMARK    2  A    between atoms: N_10  and  C_11
REMARK    3  A    between atoms: C_11  and  C_12
REMARK    4  A    between atoms: C_12  and  C_14
REMARK    5  A    between atoms: C_14  and  O_15
REMARK    6  A    between atoms: O_15  and  C_16
REMARK                            x       y       z     vdW  Elec       q    Type
REMARK                         _______ _______ _______ _____ _____    ______ ____
ROOT
ATOM      1  C   UNL     1       2.561  -1.624   0.000  0.00  0.00    +0.144 C 
ENDROOT
BRANCH   1   9
ATOM      2  C   UNL     1       0.838  -2.331   0.000  0.00  0.00    +0.168 A 
ATOM      3  C   UNL     1       1.093  -1.547   0.000  0.00  0.00    +0.131 A 
ATOM      4  C   UNL     1       0.541  -0.934   0.000  0.00  0.00    +0.184 A 
ATOM      5  N   UNL     1       0.953  -0.219   0.000  0.00  0.00    -0.205 NA
ATOM      6  C   UNL     1       1.760  -0.391   0.000  0.00  0.00    +0.180 A 
ATOM      7  N   UNL     1      -0.266  -1.105   0.000  0.00  0.00    -0.203 NA
ATOM      8  C   UNL     1      -0.521  -1.890   0.000  0.00  0.00    +0.202 A 
ATOM      9  N   UNL     1       1.847  -1.211   0.000  0.00  0.00    -0.303 N 
ATOM     10  N   UNL     1       0.031  -2.503   0.000  0.00  0.00    -0.206 NA
BRANCH   2  12
ATOM     11  C   UNL     1       1.135  -3.729   0.000  0.00  0.00    +0.137 C 
ATOM     12  N   UNL     1       1.390  -2.944   0.000  0.00  0.00    -0.217 NA
ENDBRANCH   2  12
ENDBRANCH   1   9
BRANCH   1  13
ATOM     13  C   UNL     1       3.276  -1.211   0.000  0.00  0.00    +0.218 C 
ATOM     14  O   UNL     1       3.276  -0.386   0.000  0.00  0.00    -0.217 OA
BRANCH  13  15
ATOM     15  C   UNL     1       3.990  -1.624   0.000  0.00  0.00    +0.240 C 
BRANCH  15  16
ATOM     16  O   UNL     1       4.704  -1.211   0.000  0.00  0.00    -0.473 OA
BRANCH  16  17
ATOM     17  C   UNL     1       5.419  -1.624   0.000  0.00  0.00    +0.131 A 
ATOM     18  C   UNL     1       5.419  -2.449   0.000  0.00  0.00    +0.012 A 
ATOM     19  C   UNL     1       4.704  -2.861   0.000  0.00  0.00    +0.034 C 
ATOM     20  C   UNL     1       6.133  -2.861   0.000  0.00  0.00    -0.001 A 
ATOM     21  C   UNL     1       6.848  -2.449   0.000  0.00  0.00    -0.000 A 
ATOM     22  C   UNL     1       6.848  -1.624   0.000  0.00  0.00    -0.001 A 
ATOM     23  C   UNL     1       6.133  -1.211   0.000  0.00  0.00    +0.012 A 
ATOM     24  C   UNL     1       6.133  -0.386   0.000  0.00  0.00    +0.034 C 
ENDBRANCH  16  17
ENDBRANCH  15  16
ENDBRANCH  13  15
ENDBRANCH   1  13
TORSDOF 6
