REMARK  Name = 
REMARK  4 active torsions:
REMARK  status: ('A' for Active; 'I' for Inactive)
REMARK    1  A    between atoms: C_5  and  N_8
REMARK    2  A    between atoms: C_9  and  C_11
REMARK    3  A    between atoms: C_11  and  N_12
REMARK    4  A    between atoms: C_16  and  C_19
REMARK                            x       y       z     vdW  Elec       q    Type
REMARK                         _______ _______ _______ _____ _____    ______ ____
ROOT
ATOM      1  C   UNL     1      -0.715  -6.188   0.000  0.00  0.00    +0.196 C 
ENDROOT
BRANCH   1   2
ATOM      2  N   UNL     1       0.000  -6.600   0.000  0.00  0.00    -0.285 N 
ATOM      3  C   UNL     1       0.000  -7.425   0.000  0.00  0.00    +0.265 A 
ATOM      4  O   UNL     1      -0.715  -7.838   0.000  0.00  0.00    -0.267 OA
ATOM      5  C   UNL     1       0.715  -7.838   0.000  0.00  0.00    +0.127 A 
ATOM      6  C   UNL     1       1.429  -7.425   0.000  0.00  0.00    +0.010 A 
ATOM      7  C   UNL     1       1.429  -6.600   0.000  0.00  0.00    +0.019 A 
ATOM      8  C   UNL     1       0.715  -6.188   0.000  0.00  0.00    +0.079 A 
BRANCH   5   9
ATOM      9  C   UNL     1       0.715  -8.662   0.000  0.00  0.00    +0.423 C 
ATOM     10  F   UNL     1       1.540  -8.662   0.000  0.00  0.00    -0.166 F 
ATOM     11  F   UNL     1      -0.111  -8.662   0.000  0.00  0.00    -0.166 F 
ATOM     12  F   UNL     1       0.715  -9.488   0.000  0.00  0.00    -0.166 F 
ENDBRANCH   5   9
ENDBRANCH   1   2
BRANCH   1  14
ATOM     13  N   UNL     1      -1.429  -4.950   0.000  0.00  0.00    -0.206 NA
ATOM     14  C   UNL     1      -0.715  -5.362   0.000  0.00  0.00    +0.264 C 
ATOM     15  O   UNL     1       0.000  -4.950   0.000  0.00  0.00    -0.271 OA
BRANCH  13  20
ATOM     16  C   UNL     1      -1.429  -1.650   0.000  0.00  0.00    +0.000 C 
ATOM     17  C   UNL     1      -1.429  -2.475   0.000  0.00  0.00    +0.000 C 
ATOM     18  C   UNL     1      -2.143  -2.888   0.000  0.00  0.00    +0.002 C 
ATOM     19  C   UNL     1      -2.143  -3.712   0.000  0.00  0.00    +0.022 C 
ATOM     20  C   UNL     1      -1.429  -4.125   0.000  0.00  0.00    +0.095 C 
ATOM     21  C   UNL     1      -0.715  -3.712   0.000  0.00  0.00    +0.022 C 
ATOM     22  C   UNL     1      -0.715  -2.888   0.000  0.00  0.00    +0.002 C 
ENDBRANCH  13  20
ENDBRANCH   1  14
TORSDOF 4
