REMARK  Name = 
REMARK  6 active torsions:
REMARK  status: ('A' for Active; 'I' for Inactive)
REMARK    1  A    between atoms: C_2  and  C_3
REMARK    2  A    between atoms: C_3  and  N_4
REMARK    3  A    between atoms: C_5  and  C_7
REMARK    4  A    between atoms: C_7  and  N_8
REMARK    5  A    between atoms: C_9  and  C_11
REMARK    6  A    between atoms: C_11  and  N_12
REMARK                            x       y       z     vdW  Elec       q    Type
REMARK                         _______ _______ _______ _____ _____    ______ ____
ROOT
ATOM      1  N   UNL     1       7.083  -3.908   0.000  0.00  0.00    -0.194 NA
ATOM      2  C   UNL     1       7.798  -4.321   0.000  0.00  0.00    +0.267 C 
ATOM      3  O   UNL     1       7.798  -5.146   0.000  0.00  0.00    -0.271 OA
ENDROOT
BRANCH   2   4
ATOM      4  C   UNL     1       8.512  -3.908   0.000  0.00  0.00    +0.213 C 
BRANCH   4   5
ATOM      5  N   UNL     1       9.227  -4.321   0.000  0.00  0.00    -0.245 N 
ATOM      6  C   UNL     1       9.313  -5.141   0.000  0.00  0.00    +0.068 A 
ATOM      7  C   UNL     1       8.700  -5.693   0.000  0.00  0.00    +0.053 C 
ATOM      8  C   UNL     1      10.120  -5.312   0.000  0.00  0.00    +0.086 A 
ATOM      9 CL   UNL     1      10.455  -6.066   0.000  0.00  0.00    -0.080 Cl
ATOM     10  C   UNL     1      10.532  -4.598   0.000  0.00  0.00    +0.091 A 
ATOM     11  C   UNL     1      11.353  -4.512   0.000  0.00  0.00    +0.055 C 
ATOM     12  N   UNL     1       9.980  -3.985   0.000  0.00  0.00    -0.173 NA
ENDBRANCH   4   5
ENDBRANCH   2   4
BRANCH   1  13
ATOM     13  C   UNL     1       6.369  -4.321   0.000  0.00  0.00    +0.201 C 
BRANCH  13  15
ATOM     14  N   UNL     1       4.940  -4.321   0.000  0.00  0.00    -0.204 NA
ATOM     15  C   UNL     1       5.654  -3.908   0.000  0.00  0.00    +0.263 C 
ATOM     16  O   UNL     1       5.654  -3.083   0.000  0.00  0.00    -0.271 OA
BRANCH  14  17
ATOM     17  C   UNL     1       4.225  -3.908   0.000  0.00  0.00    +0.115 C 
BRANCH  17  19
ATOM     18  C   UNL     1       2.796  -3.908   0.000  0.00  0.00    +0.002 C 
ATOM     19  C   UNL     1       3.511  -4.321   0.000  0.00  0.00    +0.023 C 
ENDBRANCH  17  19
ENDBRANCH  14  17
ENDBRANCH  13  15
ENDBRANCH   1  13
TORSDOF 6
