REMARK  Name = 
REMARK  2 active torsions:
REMARK  status: ('A' for Active; 'I' for Inactive)
REMARK    1  A    between atoms: C_2  and  C_3
REMARK    2  A    between atoms: C_6  and  N_7
REMARK                            x       y       z     vdW  Elec       q    Type
REMARK                         _______ _______ _______ _____ _____    ______ ____
ROOT
ATOM      1  C   UNL     1       0.715  -1.238   0.000  0.00  0.00    +0.018 A 
ATOM      2  C   UNL     1       0.000  -1.650   0.000  0.00  0.00    +0.031 A 
ATOM      3  C   UNL     1       0.000  -2.475   0.000  0.00  0.00    +0.171 A 
ATOM      4  F   UNL     1      -0.715  -2.888   0.000  0.00  0.00    -0.201 F 
ATOM      5  C   UNL     1       0.715  -2.888   0.000  0.00  0.00    +0.159 A 
ATOM      6  N   UNL     1       1.429  -2.475   0.000  0.00  0.00    -0.227 NA
ATOM      7  C   UNL     1       1.429  -1.650   0.000  0.00  0.00    +0.098 A 
ENDROOT
BRANCH   5   8
ATOM      8  N   UNL     1       0.715  -3.712   0.000  0.00  0.00    -0.286 N 
ATOM      9  C   UNL     1       0.000  -4.125   0.000  0.00  0.00    +0.124 C 
ATOM     10  C   UNL     1       0.000  -4.950   0.000  0.00  0.00    +0.164 C 
ATOM     11  O   UNL     1       0.715  -5.362   0.000  0.00  0.00    -0.350 OA
ATOM     12  C   UNL     1       1.429  -4.950   0.000  0.00  0.00    +0.164 C 
ATOM     13  C   UNL     1       1.429  -4.125   0.000  0.00  0.00    +0.124 C 
ENDBRANCH   5   8
BRANCH   1  15
ATOM     14  N   UNL     1       0.000   0.000   0.000  0.00  0.00    -0.126 NA
ATOM     15  C   UNL     1       0.715  -0.412   0.000  0.00  0.00    +0.137 C 
ENDBRANCH   1  15
TORSDOF 2
