REMARK  Name = 
REMARK  7 active torsions:
REMARK  status: ('A' for Active; 'I' for Inactive)
REMARK    1  A    between atoms: C_5  and  N_8
REMARK    2  A    between atoms: N_8  and  S_9
REMARK    3  A    between atoms: S_9  and  C_12
REMARK    4  A    between atoms: C_12  and  C_13
REMARK    5  A    between atoms: N_15  and  C_16
REMARK    6  A    between atoms: C_16  and  C_17
REMARK    7  A    between atoms: C_17  and  C_18
REMARK                            x       y       z     vdW  Elec       q    Type
REMARK                         _______ _______ _______ _____ _____    ______ ____
ROOT
ATOM      1  C   UNL     1       5.001  -8.662   0.000  0.00  0.00    +0.256 C 
ENDROOT
BRANCH   1   2
ATOM      2  S   UNL     1       4.287  -8.250   0.000  0.00  0.00    +0.066 S 
ATOM      3  O   UNL     1       4.699  -7.535   0.000  0.00  0.00    -0.156 OA
ATOM      4  O   UNL     1       3.874  -8.964   0.000  0.00  0.00    -0.156 OA
BRANCH   2   5
ATOM      5  N   UNL     1       3.572  -7.838   0.000  0.00  0.00    -0.083 NA
BRANCH   5  10
ATOM      6  C   UNL     1       3.572  -4.537   0.000  0.00  0.00    +0.000 C 
ATOM      7  C   UNL     1       3.572  -5.362   0.000  0.00  0.00    +0.000 C 
ATOM      8  C   UNL     1       2.858  -5.775   0.000  0.00  0.00    +0.001 C 
ATOM      9  C   UNL     1       2.858  -6.600   0.000  0.00  0.00    +0.019 C 
ATOM     10  C   UNL     1       3.572  -7.013   0.000  0.00  0.00    +0.097 C 
ATOM     11  C   UNL     1       4.287  -6.600   0.000  0.00  0.00    +0.019 C 
ATOM     12  C   UNL     1       4.287  -5.775   0.000  0.00  0.00    +0.001 C 
ENDBRANCH   5  10
ENDBRANCH   2   5
ENDBRANCH   1   2
BRANCH   1  13
ATOM     13  C   UNL     1       5.001  -9.488   0.000  0.00  0.00    +0.267 C 
ATOM     14  N   UNL     1       5.716  -9.900   0.000  0.00  0.00    -0.203 NA
ATOM     15  O   UNL     1       4.287  -9.900   0.000  0.00  0.00    -0.271 OA
BRANCH  14  16
ATOM     16  C   UNL     1       5.716 -10.725   0.000  0.00  0.00    +0.121 C 
BRANCH  16  17
ATOM     17  C   UNL     1       6.430 -11.137   0.000  0.00  0.00    +0.069 C 
BRANCH  17  18
ATOM     18  C   UNL     1       6.430 -11.963   0.000  0.00  0.00    +0.061 A 
ATOM     19  N   UNL     1       5.716 -12.375   0.000  0.00  0.00    -0.248 NA
ATOM     20  C   UNL     1       5.716 -13.200   0.000  0.00  0.00    +0.098 A 
ATOM     21  C   UNL     1       6.430 -13.613   0.000  0.00  0.00    +0.021 A 
ATOM     22  C   UNL     1       7.145 -13.200   0.000  0.00  0.00    +0.003 A 
ATOM     23  C   UNL     1       7.145 -12.375   0.000  0.00  0.00    +0.015 A 
ENDBRANCH  17  18
ENDBRANCH  16  17
ENDBRANCH  14  16
ENDBRANCH   1  13
TORSDOF 7
