REMARK  Name = 
REMARK  5 active torsions:
REMARK  status: ('A' for Active; 'I' for Inactive)
REMARK    1  A    between atoms: C_2  and  O_3
REMARK    2  A    between atoms: O_3  and  C_4
REMARK    3  A    between atoms: C_6  and  N_7
REMARK    4  A    between atoms: C_8  and  C_10
REMARK    5  A    between atoms: C_10  and  C_11
REMARK                            x       y       z     vdW  Elec       q    Type
REMARK                         _______ _______ _______ _____ _____    ______ ____
ROOT
ATOM      1  N   UNL     1       2.247  -2.917   0.000  0.00  0.00    -0.204 NA
ATOM      2  C   UNL     1       1.533  -2.504   0.000  0.00  0.00    +0.246 C 
ATOM      3  O   UNL     1       1.533  -1.679   0.000  0.00  0.00    -0.273 OA
ENDROOT
BRANCH   1   5
ATOM      4  C   UNL     1       3.374  -1.790   0.000  0.00  0.00    +0.137 C 
ATOM      5  C   UNL     1       2.962  -2.504   0.000  0.00  0.00    +0.125 C 
ATOM      6  C   UNL     1       3.787  -2.504   0.000  0.00  0.00    +0.055 C 
BRANCH   4   7
ATOM      7  O   UNL     1       3.374  -0.965   0.000  0.00  0.00    -0.354 OA
BRANCH   7   9
ATOM      8  C   UNL     1       4.089   0.273   0.000  0.00  0.00    +0.035 C 
ATOM      9  C   UNL     1       4.089  -0.552   0.000  0.00  0.00    +0.142 C 
ENDBRANCH   7   9
ENDBRANCH   4   7
ENDBRANCH   1   5
BRANCH   2  10
ATOM     10  C   UNL     1       0.818  -2.917   0.000  0.00  0.00    +0.117 C 
BRANCH  10  11
ATOM     11  C   UNL     1       0.104  -2.504   0.000  0.00  0.00    +0.037 A 
ATOM     12  C   UNL     1       0.018  -1.684   0.000  0.00  0.00    +0.151 A 
ATOM     13  C   UNL     1       0.631  -1.132   0.000  0.00  0.00    +0.075 C 
ATOM     14  O   UNL     1      -0.789  -1.512   0.000  0.00  0.00    -0.358 OA
ATOM     15  N   UNL     1      -1.202  -2.227   0.000  0.00  0.00    -0.082 NA
ATOM     16  C   UNL     1      -0.650  -2.840   0.000  0.00  0.00    +0.097 A 
ATOM     17  C   UNL     1      -0.821  -3.647   0.000  0.00  0.00    +0.055 C 
ENDBRANCH  10  11
ENDBRANCH   2  10
TORSDOF 5
