REMARK  Name = 
REMARK  5 active torsions:
REMARK  status: ('A' for Active; 'I' for Inactive)
REMARK    1  A    between atoms: C_2  and  C_3
REMARK    2  A    between atoms: C_3  and  C_4
REMARK    3  A    between atoms: N_10  and  C_11
REMARK    4  A    between atoms: C_11  and  C_12
REMARK    5  A    between atoms: C_12  and  N_13
REMARK                            x       y       z     vdW  Elec       q    Type
REMARK                         _______ _______ _______ _____ _____    ______ ____
ROOT
ATOM      1  O   UNL     1       1.429  -2.475   0.000  0.00  0.00    -0.273 OA
ATOM      2  C   UNL     1       1.429  -1.650   0.000  0.00  0.00    +0.241 C 
ATOM      3  N   UNL     1       2.143  -1.238   0.000  0.00  0.00    -0.203 NA
ENDROOT
BRANCH   3   4
ATOM      4  C   UNL     1       2.858  -1.650   0.000  0.00  0.00    +0.140 C 
BRANCH   4   5
ATOM      5  C   UNL     1       3.572  -1.238   0.000  0.00  0.00    +0.131 C 
BRANCH   5   6
ATOM      6  N   UNL     1       4.287  -1.650   0.000  0.00  0.00    -0.306 N 
ATOM      7  C   UNL     1       4.373  -2.470   0.000  0.00  0.00    +0.179 A 
ATOM      8  N   UNL     1       5.180  -2.642   0.000  0.00  0.00    -0.222 NA
ATOM      9  C   UNL     1       5.593  -1.927   0.000  0.00  0.00    +0.119 A 
ATOM     10  C   UNL     1       5.040  -1.314   0.000  0.00  0.00    +0.098 A 
ENDBRANCH   5   6
ENDBRANCH   4   5
ENDBRANCH   3   4
BRANCH   2  11
ATOM     11  C   UNL     1       0.715  -1.238   0.000  0.00  0.00    +0.087 C 
BRANCH  11  12
ATOM     12  C   UNL     1       0.000  -1.650   0.000  0.00  0.00    +0.009 C 
ATOM     13  C   UNL     1      -0.715  -1.238   0.000  0.00  0.00    +0.000 C 
ATOM     14  C   UNL     1      -1.429  -1.650   0.000  0.00  0.00    +0.000 C 
ATOM     15  C   UNL     1      -1.429  -2.475   0.000  0.00  0.00    +0.000 C 
ATOM     16  C   UNL     1      -0.715  -2.888   0.000  0.00  0.00    +0.000 C 
ATOM     17  C   UNL     1       0.000  -2.475   0.000  0.00  0.00    +0.000 C 
ENDBRANCH  11  12
ENDBRANCH   2  11
TORSDOF 5
