REMARK  Name = 
REMARK  3 active torsions:
REMARK  status: ('A' for Active; 'I' for Inactive)
REMARK    1  A    between atoms: C_7  and  N_8
REMARK    2  A    between atoms: C_9  and  C_11
REMARK    3  A    between atoms: C_11  and  N_12
REMARK                            x       y       z     vdW  Elec       q    Type
REMARK                         _______ _______ _______ _____ _____    ______ ____
ROOT
ATOM      1  N   UNL     1       1.429  -2.475   0.000  0.00  0.00    -0.206 NA
ATOM      2  C   UNL     1       1.429  -1.650   0.000  0.00  0.00    +0.266 C 
ATOM      3  O   UNL     1       2.143  -1.238   0.000  0.00  0.00    -0.271 OA
ENDROOT
BRANCH   1   6
ATOM      4  C   UNL     1       2.858  -1.650   0.000  0.00  0.00    +0.002 C 
ATOM      5  C   UNL     1       2.858  -2.475   0.000  0.00  0.00    +0.020 C 
ATOM      6  C   UNL     1       2.143  -2.888   0.000  0.00  0.00    +0.095 C 
ATOM      7  C   UNL     1       2.143  -3.712   0.000  0.00  0.00    +0.022 C 
ATOM      8  C   UNL     1       2.858  -4.125   0.000  0.00  0.00    +0.002 C 
ATOM      9  C   UNL     1       3.572  -3.712   0.000  0.00  0.00    +0.000 C 
ATOM     10  C   UNL     1       3.572  -2.888   0.000  0.00  0.00    +0.002 C 
ENDBRANCH   1   6
BRANCH   2  11
ATOM     11  C   UNL     1       0.715  -1.238   0.000  0.00  0.00    +0.217 C 
BRANCH  11  12
ATOM     12  N   UNL     1       0.715  -0.412   0.000  0.00  0.00    -0.206 N 
ATOM     13  C   UNL     1       1.429   0.000   0.000  0.00  0.00    +0.288 A 
ATOM     14  O   UNL     1       2.143  -0.412   0.000  0.00  0.00    -0.265 OA
ATOM     15  C   UNL     1       1.429   0.825   0.000  0.00  0.00    +0.127 A 
ATOM     16 CL   UNL     1       2.143   1.238   0.000  0.00  0.00    -0.076 Cl
ATOM     17  C   UNL     1       0.715   1.238   0.000  0.00  0.00    +0.094 A 
ATOM     18 CL   UNL     1       0.715   2.062   0.000  0.00  0.00    -0.080 Cl
ATOM     19  C   UNL     1       0.000   0.825   0.000  0.00  0.00    +0.133 A 
ATOM     20  N   UNL     1       0.000   0.000   0.000  0.00  0.00    -0.164 NA
ENDBRANCH  11  12
ENDBRANCH   2  11
TORSDOF 3
