REMARK  Name = 
REMARK  5 active torsions:
REMARK  status: ('A' for Active; 'I' for Inactive)
REMARK    1  A    between atoms: N_4  and  C_5
REMARK    2  A    between atoms: C_5  and  C_6
REMARK    3  A    between atoms: C_6  and  C_7
REMARK    4  A    between atoms: C_7  and  N_8
REMARK    5  A    between atoms: N_11  and  C_12
REMARK                            x       y       z     vdW  Elec       q    Type
REMARK                         _______ _______ _______ _____ _____    ______ ____
ROOT
ATOM      1  C   UNL     1       2.858  -4.125   0.000  0.00  0.00    +0.118 C 
ENDROOT
BRANCH   1   2
ATOM      2  N   UNL     1       3.572  -3.712   0.000  0.00  0.00    -0.187 NA
ATOM      3  C   UNL     1       4.287  -4.125   0.000  0.00  0.00    +0.343 C 
ATOM      4  N   UNL     1       5.001  -3.712   0.000  0.00  0.00    -0.161 NA
ATOM      5  O   UNL     1       4.287  -4.950   0.000  0.00  0.00    -0.249 OA
BRANCH   4   6
ATOM      6  C   UNL     1       5.716  -4.125   0.000  0.00  0.00    +0.074 A 
ATOM      7  C   UNL     1       5.716  -4.950   0.000  0.00  0.00    +0.013 A 
ATOM      8  C   UNL     1       5.001  -5.362   0.000  0.00  0.00    +0.034 C 
ATOM      9  C   UNL     1       6.430  -5.362   0.000  0.00  0.00    +0.096 A 
ATOM     10  N   UNL     1       7.145  -4.950   0.000  0.00  0.00    -0.243 NA
ATOM     11  C   UNL     1       7.145  -4.125   0.000  0.00  0.00    +0.100 A 
ATOM     12  C   UNL     1       6.430  -3.712   0.000  0.00  0.00    +0.037 A 
ENDBRANCH   4   6
ENDBRANCH   1   2
BRANCH   1  13
ATOM     13  C   UNL     1       2.143  -3.712   0.000  0.00  0.00    +0.041 C 
BRANCH  13  14
ATOM     14  C   UNL     1       1.429  -4.125   0.000  0.00  0.00    +0.074 C 
BRANCH  14  21
ATOM     15  C   UNL     1       0.000  -1.650   0.000  0.00  0.00    +0.034 C 
ATOM     16  C   UNL     1       0.000  -2.475   0.000  0.00  0.00    +0.131 C 
ATOM     17  O   UNL     1      -0.715  -2.888   0.000  0.00  0.00    -0.356 OA
ATOM     18  C   UNL     1      -0.715  -3.712   0.000  0.00  0.00    +0.131 C 
ATOM     19  C   UNL     1      -1.429  -4.125   0.000  0.00  0.00    +0.034 C 
ATOM     20  C   UNL     1       0.000  -4.125   0.000  0.00  0.00    +0.102 C 
ATOM     21  N   UNL     1       0.715  -3.712   0.000  0.00  0.00    -0.269 NA
ATOM     22  C   UNL     1       0.715  -2.888   0.000  0.00  0.00    +0.102 C 
ENDBRANCH  14  21
ENDBRANCH  13  14
ENDBRANCH   1  13
TORSDOF 5
