REMARK  Name = 
REMARK  4 active torsions:
REMARK  status: ('A' for Active; 'I' for Inactive)
REMARK    1  A    between atoms: N_4  and  C_9
REMARK    2  A    between atoms: C_9  and  C_12
REMARK    3  A    between atoms: C_12  and  N_13
REMARK    4  A    between atoms: N_16  and  C_17
REMARK                            x       y       z     vdW  Elec       q    Type
REMARK                         _______ _______ _______ _____ _____    ______ ____
ROOT
ATOM      1  C   UNL     1       3.572  -6.188   0.000  0.00  0.00    +0.066 C 
ATOM      2  C   UNL     1       3.985  -5.473   0.000  0.00  0.00    +0.018 C 
ATOM      3  C   UNL     1       3.160  -6.902   0.000  0.00  0.00    +0.018 C 
ENDROOT
BRANCH   1  10
ATOM      4  C   UNL     1       2.143  -3.712   0.000  0.00  0.00    +0.034 C 
ATOM      5  C   UNL     1       2.143  -4.537   0.000  0.00  0.00    +0.131 C 
ATOM      6  O   UNL     1       1.429  -4.950   0.000  0.00  0.00    -0.356 OA
ATOM      7  C   UNL     1       1.429  -5.775   0.000  0.00  0.00    +0.131 C 
ATOM      8  C   UNL     1       0.715  -6.188   0.000  0.00  0.00    +0.034 C 
ATOM      9  C   UNL     1       2.143  -6.188   0.000  0.00  0.00    +0.102 C 
ATOM     10  N   UNL     1       2.858  -5.775   0.000  0.00  0.00    -0.269 NA
ATOM     11  C   UNL     1       2.858  -4.950   0.000  0.00  0.00    +0.102 C 
ENDBRANCH   1  10
BRANCH   1  12
ATOM     12  C   UNL     1       4.287  -6.600   0.000  0.00  0.00    +0.131 C 
BRANCH  12  13
ATOM     13  N   UNL     1       5.001  -6.188   0.000  0.00  0.00    -0.186 NA
ATOM     14  C   UNL     1       5.716  -6.600   0.000  0.00  0.00    +0.344 C 
ATOM     15  N   UNL     1       6.430  -6.188   0.000  0.00  0.00    -0.159 NA
ATOM     16  O   UNL     1       5.716  -7.425   0.000  0.00  0.00    -0.249 OA
BRANCH  15  17
ATOM     17  C   UNL     1       7.145  -6.600   0.000  0.00  0.00    +0.094 A 
ATOM     18  C   UNL     1       7.145  -7.425   0.000  0.00  0.00    +0.115 A 
ATOM     19  N   UNL     1       7.859  -7.838   0.000  0.00  0.00    -0.241 NA
ATOM     20  C   UNL     1       8.574  -7.425   0.000  0.00  0.00    +0.099 A 
ATOM     21  C   UNL     1       8.574  -6.600   0.000  0.00  0.00    +0.022 A 
ATOM     22  C   UNL     1       7.859  -6.188   0.000  0.00  0.00    +0.020 A 
ENDBRANCH  15  17
ENDBRANCH  12  13
ENDBRANCH   1  12
TORSDOF 4
