REMARK  Name = 
REMARK  6 active torsions:
REMARK  status: ('A' for Active; 'I' for Inactive)
REMARK    1  A    between atoms: O_2  and  C_3
REMARK    2  A    between atoms: C_3  and  C_4
REMARK    3  A    between atoms: C_4  and  N_5
REMARK    4  A    between atoms: C_6  and  C_8
REMARK    5  A    between atoms: C_8  and  C_9
REMARK    6  A    between atoms: C_12  and  C_14
REMARK                            x       y       z     vdW  Elec       q    Type
REMARK                         _______ _______ _______ _____ _____    ______ ____
ROOT
ATOM      1  N   UNL     1       0.743  -2.437   0.000  0.00  0.00    -0.203 NA
ATOM      2  C   UNL     1       1.457  -2.025   0.000  0.00  0.00    +0.248 C 
ATOM      3  O   UNL     1       1.457  -1.200   0.000  0.00  0.00    -0.273 OA
ENDROOT
BRANCH   1   4
ATOM      4  C   UNL     1       0.028  -2.025   0.000  0.00  0.00    +0.142 C 
BRANCH   4   5
ATOM      5  C   UNL     1      -0.686  -2.437   0.000  0.00  0.00    +0.113 C 
ATOM      6  C   UNL     1      -1.099  -1.723   0.000  0.00  0.00    +0.029 C 
ATOM      7  C   UNL     1      -1.813  -2.135   0.000  0.00  0.00    +0.005 C 
ATOM      8  C   UNL     1      -1.401  -2.850   0.000  0.00  0.00    +0.029 C 
BRANCH   5  10
ATOM      9  C   UNL     1      -0.686  -3.866   0.000  0.00  0.00    +0.174 C 
ATOM     10  O   UNL     1      -0.274  -3.152   0.000  0.00  0.00    -0.354 OA
ENDBRANCH   5  10
ENDBRANCH   4   5
ENDBRANCH   1   4
BRANCH   2  11
ATOM     11  C   UNL     1       2.171  -2.437   0.000  0.00  0.00    +0.133 C 
BRANCH  11  12
ATOM     12  C   UNL     1       2.886  -2.025   0.000  0.00  0.00    +0.075 A 
ATOM     13  N   UNL     1       3.640  -2.360   0.000  0.00  0.00    -0.247 NA
ATOM     14  C   UNL     1       4.192  -1.747   0.000  0.00  0.00    +0.087 A 
ATOM     15  S   UNL     1       3.779  -1.033   0.000  0.00  0.00    -0.071 S 
ATOM     16  C   UNL     1       2.972  -1.204   0.000  0.00  0.00    +0.052 A 
BRANCH  14  17
ATOM     17  C   UNL     1       5.012  -1.833   0.000  0.00  0.00    +0.047 C 
ATOM     18  C   UNL     1       5.348  -2.587   0.000  0.00  0.00    +0.007 C 
ATOM     19  C   UNL     1       5.497  -1.166   0.000  0.00  0.00    +0.007 C 
ENDBRANCH  14  17
ENDBRANCH  11  12
ENDBRANCH   2  11
TORSDOF 6
