REMARK  Name = 
REMARK  5 active torsions:
REMARK  status: ('A' for Active; 'I' for Inactive)
REMARK    1  A    between atoms: C_2  and  C_4
REMARK    2  A    between atoms: C_4  and  N_5
REMARK    3  A    between atoms: C_4  and  C_9
REMARK    4  A    between atoms: N_11  and  C_12
REMARK    5  A    between atoms: C_12  and  C_13
REMARK                            x       y       z     vdW  Elec       q    Type
REMARK                         _______ _______ _______ _____ _____    ______ ____
ROOT
ATOM      1  C   UNL     1       6.430  -5.362   0.000  0.00  0.00    +0.142 C 
ENDROOT
BRANCH   1   2
ATOM      2  C   UNL     1       7.145  -4.950   0.000  0.00  0.00    +0.004 A 
ATOM      3  C   UNL     1       7.859  -5.362   0.000  0.00  0.00    +0.032 A 
ATOM      4  C   UNL     1       8.574  -4.950   0.000  0.00  0.00    +0.132 A 
ATOM      5  N   UNL     1       9.288  -5.362   0.000  0.00  0.00    -0.288 N 
ATOM      6  C   UNL     1       9.288  -6.188   0.000  0.00  0.00    +0.124 C 
ATOM      7  C   UNL     1      10.003  -6.600   0.000  0.00  0.00    +0.164 C 
ATOM      8  O   UNL     1      10.717  -6.188   0.000  0.00  0.00    -0.350 OA
ATOM      9  C   UNL     1      10.717  -5.362   0.000  0.00  0.00    +0.164 C 
ATOM     10  C   UNL     1      10.003  -4.950   0.000  0.00  0.00    +0.124 C 
ATOM     11  N   UNL     1       8.574  -4.125   0.000  0.00  0.00    -0.229 NA
ATOM     12  C   UNL     1       7.859  -3.712   0.000  0.00  0.00    +0.100 A 
ATOM     13  C   UNL     1       7.145  -4.125   0.000  0.00  0.00    +0.018 A 
ENDBRANCH   1   2
BRANCH   1  15
ATOM     14  C   UNL     1       5.001  -5.362   0.000  0.00  0.00    +0.262 C 
ATOM     15  N   UNL     1       5.716  -4.950   0.000  0.00  0.00    -0.199 NA
ATOM     16  O   UNL     1       5.001  -6.188   0.000  0.00  0.00    -0.271 OA
BRANCH  14  17
ATOM     17  C   UNL     1       4.287  -4.950   0.000  0.00  0.00    +0.173 C 
BRANCH  17  18
ATOM     18  N   UNL     1       3.572  -5.362   0.000  0.00  0.00    -0.198 NA
ATOM     19  C   UNL     1       2.858  -4.950   0.000  0.00  0.00    +0.242 C 
ATOM     20  C   UNL     1       2.858  -4.125   0.000  0.00  0.00    +0.096 C 
ATOM     21  O   UNL     1       2.143  -5.362   0.000  0.00  0.00    -0.273 OA
ENDBRANCH  17  18
BRANCH  17  23
ATOM     22  C   UNL     1       5.001  -3.712   0.000  0.00  0.00    +0.002 C 
ATOM     23  C   UNL     1       4.287  -4.125   0.000  0.00  0.00    +0.029 C 
ATOM     24  C   UNL     1       3.572  -3.712   0.000  0.00  0.00    +0.002 C 
ENDBRANCH  17  23
ENDBRANCH  14  17
ENDBRANCH   1  15
TORSDOF 5
