REMARK  Name = 
REMARK  2 active torsions:
REMARK  status: ('A' for Active; 'I' for Inactive)
REMARK    1  A    between atoms: C_2  and  N_4
REMARK    2  A    between atoms: C_5  and  C_7
REMARK                            x       y       z     vdW  Elec       q    Type
REMARK                         _______ _______ _______ _____ _____    ______ ____
ROOT
ATOM      1  C   UNL     1       0.715  -1.238   0.000  0.00  0.00    +0.074 A 
ATOM      2  C   UNL     1       0.000  -1.650   0.000  0.00  0.00    +0.105 A 
ATOM      3  N   UNL     1       0.000  -2.475   0.000  0.00  0.00    -0.229 NA
ATOM      4  C   UNL     1       0.715  -2.888   0.000  0.00  0.00    +0.132 A 
ATOM      5  N   UNL     1       0.715  -3.712   0.000  0.00  0.00    -0.288 N 
ATOM      6  C   UNL     1       0.000  -4.125   0.000  0.00  0.00    +0.124 C 
ATOM      7  C   UNL     1       0.000  -4.950   0.000  0.00  0.00    +0.164 C 
ATOM      8  O   UNL     1       0.715  -5.362   0.000  0.00  0.00    -0.350 OA
ATOM      9  C   UNL     1       1.429  -4.950   0.000  0.00  0.00    +0.164 C 
ATOM     10  C   UNL     1       1.429  -4.125   0.000  0.00  0.00    +0.124 C 
ATOM     11  C   UNL     1       1.429  -2.475   0.000  0.00  0.00    +0.034 A 
ATOM     12  C   UNL     1       1.429  -1.650   0.000  0.00  0.00    +0.009 A 
ENDROOT
BRANCH   1  14
ATOM     13  N   UNL     1       0.000   0.000   0.000  0.00  0.00    -0.203 NA
ATOM     14  C   UNL     1       0.715  -0.412   0.000  0.00  0.00    +0.266 C 
ATOM     15  O   UNL     1       1.429   0.000   0.000  0.00  0.00    -0.268 OA
BRANCH  13  17
ATOM     16  C   UNL     1      -0.715   1.238   0.000  0.00  0.00    +0.023 C 
ATOM     17  C   UNL     1       0.000   0.825   0.000  0.00  0.00    +0.096 C 
ATOM     18  C   UNL     1       0.715   1.238   0.000  0.00  0.00    +0.023 C 
ENDBRANCH  13  17
ENDBRANCH   1  14
TORSDOF 2
