REMARK  Name = 
REMARK  4 active torsions:
REMARK  status: ('A' for Active; 'I' for Inactive)
REMARK    1  A    between atoms: C_7  and  C_8
REMARK    2  A    between atoms: C_8  and  C_9
REMARK    3  A    between atoms: C_9  and  N_10
REMARK    4  A    between atoms: N_10  and  C_11
REMARK                            x       y       z     vdW  Elec       q    Type
REMARK                         _______ _______ _______ _____ _____    ______ ____
ROOT
ATOM      1  C   UNL     1       3.650   1.013   0.000  0.00  0.00    +0.077 C 
ATOM      2  C   UNL     1       3.292   0.269   0.000  0.00  0.00    +0.040 C 
ATOM      3  C   UNL     1       2.614   0.739   0.000  0.00  0.00    +0.004 C 
ATOM      4  C   UNL     1       1.958   0.239   0.000  0.00  0.00    +0.000 C 
ATOM      5  C   UNL     1       2.231  -0.540   0.000  0.00  0.00    +0.000 C 
ATOM      6  C   UNL     1       3.055  -0.521   0.000  0.00  0.00    +0.004 C 
ATOM      7  C   UNL     1       4.036  -0.088   0.000  0.00  0.00    +0.118 C 
ATOM      8  O   UNL     1       4.632  -0.658   0.000  0.00  0.00    -0.356 OA
ATOM      9  C   UNL     1       5.359  -0.267   0.000  0.00  0.00    +0.142 C 
ATOM     10  C   UNL     1       5.211   0.545   0.000  0.00  0.00    +0.036 C 
ATOM     11  C   UNL     1       4.394   0.655   0.000  0.00  0.00    +0.046 C 
ENDROOT
BRANCH   1  12
ATOM     12  N   UNL     1       3.377   1.792   0.000  0.00  0.00    -0.219 NA
BRANCH  12  13
ATOM     13  C   UNL     1       2.567   1.944   0.000  0.00  0.00    +0.093 C 
BRANCH  13  14
ATOM     14  C   UNL     1       2.294   2.723   0.000  0.00  0.00    +0.045 C 
BRANCH  14  17
ATOM     15  C   UNL     1       1.218   1.472   0.000  0.00  0.00    +0.032 C 
ATOM     16  C   UNL     1       0.945   2.251   0.000  0.00  0.00    -0.007 A 
ATOM     17  C   UNL     1       1.483   2.876   0.000  0.00  0.00    -0.022 A 
ATOM     18  C   UNL     1       1.210   3.655   0.000  0.00  0.00    +0.016 A 
ATOM     19  C   UNL     1       0.400   3.808   0.000  0.00  0.00    +0.099 A 
ATOM     20  N   UNL     1      -0.138   3.182   0.000  0.00  0.00    -0.243 NA
ATOM     21  C   UNL     1       0.135   2.404   0.000  0.00  0.00    +0.094 A 
ENDBRANCH  14  17
ENDBRANCH  13  14
ENDBRANCH  12  13
ENDBRANCH   1  12
TORSDOF 4
