REMARK  Name = 
REMARK  5 active torsions:
REMARK  status: ('A' for Active; 'I' for Inactive)
REMARK    1  A    between atoms: C_2  and  C_12
REMARK    2  A    between atoms: N_3  and  C_4
REMARK    3  A    between atoms: C_4  and  C_5
REMARK    4  A    between atoms: C_5  and  C_6
REMARK    5  A    between atoms: C_18  and  C_20
REMARK                            x       y       z     vdW  Elec       q    Type
REMARK                         _______ _______ _______ _____ _____    ______ ____
ROOT
ATOM      1  O   UNL     1      -0.715  -0.412   0.000  0.00  0.00    -0.273 OA
ATOM      2  C   UNL     1      -0.715  -1.238   0.000  0.00  0.00    +0.243 C 
ATOM      3  N   UNL     1       0.000  -1.650   0.000  0.00  0.00    -0.205 NA
ENDROOT
BRANCH   2   4
ATOM      4  C   UNL     1      -1.429  -1.650   0.000  0.00  0.00    +0.098 C 
ATOM      5  C   UNL     1      -2.143  -1.238   0.000  0.00  0.00    +0.102 C 
ATOM      6  N   UNL     1      -2.858  -1.650   0.000  0.00  0.00    -0.279 N 
ATOM      7  C   UNL     1      -3.572  -1.238   0.000  0.00  0.00    +0.225 C 
ATOM      8  O   UNL     1      -3.572  -0.412   0.000  0.00  0.00    -0.275 OA
ATOM      9  C   UNL     1      -2.858  -2.475   0.000  0.00  0.00    +0.093 C 
ATOM     10  C   UNL     1      -2.143  -2.888   0.000  0.00  0.00    +0.022 C 
ATOM     11  C   UNL     1      -1.429  -2.475   0.000  0.00  0.00    +0.013 C 
BRANCH   7  12
ATOM     12  C   UNL     1      -4.287  -1.650   0.000  0.00  0.00    +0.077 C 
ATOM     13  C   UNL     1      -5.112  -1.650   0.000  0.00  0.00    +0.010 C 
ATOM     14  C   UNL     1      -4.699  -2.365   0.000  0.00  0.00    +0.010 C 
ENDBRANCH   7  12
ENDBRANCH   2   4
BRANCH   3  15
ATOM     15  C   UNL     1       0.715  -1.238   0.000  0.00  0.00    +0.121 C 
BRANCH  15  16
ATOM     16  C   UNL     1       1.429  -1.650   0.000  0.00  0.00    +0.069 C 
BRANCH  16  17
ATOM     17  C   UNL     1       2.143  -1.238   0.000  0.00  0.00    +0.061 A 
ATOM     18  N   UNL     1       2.858  -1.650   0.000  0.00  0.00    -0.248 NA
ATOM     19  C   UNL     1       3.572  -1.238   0.000  0.00  0.00    +0.098 A 
ATOM     20  C   UNL     1       3.572  -0.412   0.000  0.00  0.00    +0.021 A 
ATOM     21  C   UNL     1       2.858   0.000   0.000  0.00  0.00    +0.003 A 
ATOM     22  C   UNL     1       2.143  -0.412   0.000  0.00  0.00    +0.015 A 
ENDBRANCH  16  17
ENDBRANCH  15  16
ENDBRANCH   3  15
TORSDOF 5
