REMARK  Name = 
REMARK  5 active torsions:
REMARK  status: ('A' for Active; 'I' for Inactive)
REMARK    1  A    between atoms: N_7  and  C_8
REMARK    2  A    between atoms: C_8  and  C_9
REMARK    3  A    between atoms: N_11  and  C_12
REMARK    4  A    between atoms: C_12  and  C_13
REMARK    5  A    between atoms: C_13  and  C_14
REMARK                            x       y       z     vdW  Elec       q    Type
REMARK                         _______ _______ _______ _____ _____    ______ ____
ROOT
ATOM      1  C   UNL     1       3.163  -2.952   0.000  0.00  0.00    +0.265 C 
ATOM      2  N   UNL     1       3.878  -3.364   0.000  0.00  0.00    -0.203 NA
ATOM      3  O   UNL     1       3.163  -2.127   0.000  0.00  0.00    -0.271 OA
ENDROOT
BRANCH   1   4
ATOM      4  C   UNL     1       2.449  -3.364   0.000  0.00  0.00    +0.196 C 
BRANCH   4   7
ATOM      5  C   UNL     1       0.809  -4.094   0.000  0.00  0.00    +0.051 C 
ATOM      6  C   UNL     1       0.981  -3.287   0.000  0.00  0.00    +0.048 A 
ATOM      7  N   UNL     1       1.734  -2.952   0.000  0.00  0.00    -0.285 N 
ATOM      8  C   UNL     1       1.648  -2.131   0.000  0.00  0.00    +0.292 A 
ATOM      9  O   UNL     1       2.261  -1.579   0.000  0.00  0.00    -0.259 OA
ATOM     10  S   UNL     1       0.841  -1.960   0.000  0.00  0.00    -0.026 S 
ATOM     11  C   UNL     1       0.429  -2.674   0.000  0.00  0.00    +0.053 A 
ENDBRANCH   4   7
ENDBRANCH   1   4
BRANCH   2  12
ATOM     12  C   UNL     1       4.592  -2.952   0.000  0.00  0.00    +0.125 C 
BRANCH  12  13
ATOM     13  C   UNL     1       5.307  -3.364   0.000  0.00  0.00    +0.109 C 
BRANCH  13  14
ATOM     14  C   UNL     1       6.021  -2.952   0.000  0.00  0.00    +0.227 C 
ATOM     15  N   UNL     1       6.736  -3.364   0.000  0.00  0.00    -0.279 N 
ATOM     16  C   UNL     1       6.822  -4.185   0.000  0.00  0.00    +0.093 C 
ATOM     17  C   UNL     1       7.629  -4.356   0.000  0.00  0.00    +0.023 C 
ATOM     18  C   UNL     1       8.041  -3.642   0.000  0.00  0.00    +0.023 C 
ATOM     19  C   UNL     1       7.489  -3.029   0.000  0.00  0.00    +0.093 C 
ATOM     20  O   UNL     1       6.021  -2.127   0.000  0.00  0.00    -0.275 OA
ENDBRANCH  13  14
ENDBRANCH  12  13
ENDBRANCH   2  12
TORSDOF 5
