REMARK  Name = 
REMARK  4 active torsions:
REMARK  status: ('A' for Active; 'I' for Inactive)
REMARK    1  A    between atoms: N_3  and  C_4
REMARK    2  A    between atoms: C_4  and  C_5
REMARK    3  A    between atoms: C_5  and  C_6
REMARK    4  A    between atoms: C_16  and  C_18
REMARK                            x       y       z     vdW  Elec       q    Type
REMARK                         _______ _______ _______ _____ _____    ______ ____
ROOT
ATOM      1  O   UNL     1      -2.143  -2.888   0.000  0.00  0.00    -0.251 OA
ATOM      2  C   UNL     1      -2.143  -3.712   0.000  0.00  0.00    +0.323 C 
ATOM      3  N   UNL     1      -2.858  -4.125   0.000  0.00  0.00    -0.262 N 
ATOM      4  C   UNL     1      -3.572  -3.712   0.000  0.00  0.00    +0.104 C 
ATOM      5  C   UNL     1      -4.287  -4.125   0.000  0.00  0.00    +0.097 C 
ATOM      6  C   UNL     1      -4.287  -4.950   0.000  0.00  0.00    +0.013 C 
ATOM      7  C   UNL     1      -3.572  -5.362   0.000  0.00  0.00    +0.022 C 
ATOM      8  C   UNL     1      -2.858  -4.950   0.000  0.00  0.00    +0.095 C 
ATOM      9  N   UNL     1      -1.429  -4.125   0.000  0.00  0.00    -0.188 NA
ENDROOT
BRANCH   5  10
ATOM     10  C   UNL     1      -5.001  -3.712   0.000  0.00  0.00    +0.227 C 
ATOM     11  N   UNL     1      -5.716  -4.125   0.000  0.00  0.00    -0.274 N 
ATOM     12  C   UNL     1      -6.430  -3.712   0.000  0.00  0.00    +0.125 C 
ATOM     13  C   UNL     1      -7.145  -4.125   0.000  0.00  0.00    +0.164 C 
ATOM     14  O   UNL     1      -7.145  -4.950   0.000  0.00  0.00    -0.350 OA
ATOM     15  C   UNL     1      -6.430  -5.362   0.000  0.00  0.00    +0.164 C 
ATOM     16  C   UNL     1      -5.716  -4.950   0.000  0.00  0.00    +0.125 C 
ATOM     17  O   UNL     1      -5.001  -2.888   0.000  0.00  0.00    -0.275 OA
ENDBRANCH   5  10
BRANCH   9  18
ATOM     18  C   UNL     1      -0.715  -3.712   0.000  0.00  0.00    +0.123 C 
BRANCH  18  19
ATOM     19  C   UNL     1       0.000  -4.125   0.000  0.00  0.00    +0.069 C 
BRANCH  19  20
ATOM     20  C   UNL     1       0.715  -3.712   0.000  0.00  0.00    +0.061 A 
ATOM     21  N   UNL     1       1.429  -4.125   0.000  0.00  0.00    -0.248 NA
ATOM     22  C   UNL     1       2.143  -3.712   0.000  0.00  0.00    +0.098 A 
ATOM     23  C   UNL     1       2.143  -2.888   0.000  0.00  0.00    +0.021 A 
ATOM     24  C   UNL     1       1.429  -2.475   0.000  0.00  0.00    +0.003 A 
ATOM     25  C   UNL     1       0.715  -2.888   0.000  0.00  0.00    +0.015 A 
ENDBRANCH  19  20
ENDBRANCH  18  19
ENDBRANCH   9  18
TORSDOF 4
