REMARK  Name = 
REMARK  7 active torsions:
REMARK  status: ('A' for Active; 'I' for Inactive)
REMARK    1  A    between atoms: O_2  and  C_3
REMARK    2  A    between atoms: C_3  and  C_4
REMARK    3  A    between atoms: C_4  and  N_5
REMARK    4  A    between atoms: C_7  and  C_12
REMARK    5  A    between atoms: N_14  and  C_15
REMARK    6  A    between atoms: C_15  and  C_16
REMARK    7  A    between atoms: C_15  and  C_19
REMARK                            x       y       z     vdW  Elec       q    Type
REMARK                         _______ _______ _______ _____ _____    ______ ____
ROOT
ATOM      1  N   UNL     1      -3.572   7.965   0.000  0.00  0.00    -0.214 N 
ATOM      2  C   UNL     1      -4.287   7.553   0.000  0.00  0.00    +0.277 A 
ATOM      3  O   UNL     1      -5.001   7.965   0.000  0.00  0.00    -0.266 OA
ATOM      4  C   UNL     1      -4.287   6.728   0.000  0.00  0.00    +0.064 A 
ATOM      5  C   UNL     1      -3.572   6.315   0.000  0.00  0.00    +0.030 A 
ATOM      6  C   UNL     1      -2.858   6.728   0.000  0.00  0.00    +0.156 A 
ATOM      7  N   UNL     1      -2.858   7.553   0.000  0.00  0.00    -0.162 NA
ENDROOT
BRANCH   6   8
ATOM      8  C   UNL     1      -2.143   6.315   0.000  0.00  0.00    +0.284 C 
ATOM      9  N   UNL     1      -2.143   5.490   0.000  0.00  0.00    -0.202 NA
ATOM     10  O   UNL     1      -1.429   6.728   0.000  0.00  0.00    -0.267 OA
BRANCH   9  11
ATOM     11  C   UNL     1      -1.429   5.078   0.000  0.00  0.00    +0.096 C 
BRANCH  11  12
ATOM     12  C   UNL     1      -1.429   4.253   0.000  0.00  0.00    +0.020 C 
ATOM     13  C   UNL     1      -1.841   3.538   0.000  0.00  0.00    +0.002 C 
ATOM     14  C   UNL     1      -1.016   3.538   0.000  0.00  0.00    +0.002 C 
ENDBRANCH  11  12
BRANCH  11  15
ATOM     15  C   UNL     1      -0.715   5.490   0.000  0.00  0.00    +0.020 C 
ATOM     16  C   UNL     1       0.111   5.490   0.000  0.00  0.00    +0.002 C 
ATOM     17  C   UNL     1      -0.302   6.205   0.000  0.00  0.00    +0.002 C 
ENDBRANCH  11  15
ENDBRANCH   9  11
ENDBRANCH   6   8
BRANCH   1  18
ATOM     18  C   UNL     1      -3.572   8.790   0.000  0.00  0.00    +0.163 C 
BRANCH  18  19
ATOM     19  C   UNL     1      -4.287   9.203   0.000  0.00  0.00    +0.169 C 
BRANCH  19  21
ATOM     20  C   UNL     1      -5.001  10.440   0.000  0.00  0.00    +0.174 C 
ATOM     21  O   UNL     1      -4.287  10.028   0.000  0.00  0.00    -0.349 OA
ENDBRANCH  19  21
ENDBRANCH  18  19
ENDBRANCH   1  18
TORSDOF 7
