REMARK  Name = 
REMARK  1 active torsions:
REMARK  status: ('A' for Active; 'I' for Inactive)
REMARK    1  A    between atoms: C_6  and  C_8
REMARK                            x       y       z     vdW  Elec       q    Type
REMARK                         _______ _______ _______ _____ _____    ______ ____
ROOT
ATOM      1 CL   UNL     1       0.000   0.000   0.000  0.00  0.00    +0.000 Cl
ENDROOT
TORSDOF 0
REMARK  Name = 
REMARK  1 active torsions:
REMARK  status: ('A' for Active; 'I' for Inactive)
REMARK    1  A    between atoms: C_6  and  C_8
REMARK                            x       y       z     vdW  Elec       q    Type
REMARK                         _______ _______ _______ _____ _____    ______ ____
ROOT
ATOM      1  C   UNL     1       4.224   2.351   0.000  0.00  0.00    +0.077 C 
ATOM      2  C   UNL     1       4.224   1.526   0.000  0.00  0.00    +0.181 A 
ATOM      3  N   UNL     1       3.557   1.041   0.000  0.00  0.00    -0.195 NA
ATOM      4  C   UNL     1       3.812   0.256   0.000  0.00  0.00    +0.237 A 
ATOM      5  O   UNL     1       4.637   0.256   0.000  0.00  0.00    -0.337 OA
ATOM      6  N   UNL     1       4.892   1.041   0.000  0.00  0.00    -0.061 NA
ENDROOT
BRANCH   4   7
ATOM      7  C   UNL     1       3.327  -0.411   0.000  0.00  0.00    +0.097 C 
ATOM      8  C   UNL     1       2.506  -0.325   0.000  0.00  0.00    +0.098 C 
ATOM      9  N   UNL     1       2.022  -0.992   0.000  0.00  0.00    -0.218 NA
ATOM     10  C   UNL     1       2.357  -1.746   0.000  0.00  0.00    +0.089 C 
ATOM     11  C   UNL     1       3.178  -1.832   0.000  0.00  0.00    +0.019 C 
ATOM     12  C   UNL     1       3.663  -1.165   0.000  0.00  0.00    +0.012 C 
ENDBRANCH   4   7
TORSDOF 1
