REMARK  Name = 
REMARK  6 active torsions:
REMARK  status: ('A' for Active; 'I' for Inactive)
REMARK    1  A    between atoms: C_2  and  C_3
REMARK    2  A    between atoms: C_3  and  C_4
REMARK    3  A    between atoms: C_4  and  O_5
REMARK    4  A    between atoms: O_5  and  C_6
REMARK    5  A    between atoms: C_6  and  C_7
REMARK    6  A    between atoms: C_13  and  C_16
REMARK                            x       y       z     vdW  Elec       q    Type
REMARK                         _______ _______ _______ _____ _____    ______ ____
ROOT
ATOM      1  C   UNL     1       6.430  -5.362   0.000  0.00  0.00    +0.277 C 
ATOM      2  N   UNL     1       7.145  -4.950   0.000  0.00  0.00    -0.156 NA
ATOM      3  C   UNL     1       7.859  -5.362   0.000  0.00  0.00    +0.176 A 
ATOM      4  N   UNL     1       7.859  -6.188   0.000  0.00  0.00    -0.131 NA
ATOM      5  N   UNL     1       8.574  -6.600   0.000  0.00  0.00    -0.151 NA
ATOM      6  C   UNL     1       9.288  -6.188   0.000  0.00  0.00    +0.080 A 
ATOM      7  C   UNL     1       9.288  -5.362   0.000  0.00  0.00    +0.019 A 
ATOM      8  C   UNL     1       8.574  -4.950   0.000  0.00  0.00    +0.039 A 
ATOM      9  O   UNL     1       6.430  -6.188   0.000  0.00  0.00    -0.270 OA
ENDROOT
BRANCH   6  10
ATOM     10  C   UNL     1      10.003  -6.600   0.000  0.00  0.00    +0.042 C 
ATOM     11  C   UNL     1      10.415  -7.314   0.000  0.00  0.00    +0.006 C 
ATOM     12  C   UNL     1      10.828  -6.600   0.000  0.00  0.00    +0.006 C 
ENDBRANCH   6  10
BRANCH   1  13
ATOM     13  C   UNL     1       5.716  -4.950   0.000  0.00  0.00    +0.229 C 
BRANCH  13  14
ATOM     14  O   UNL     1       5.001  -5.362   0.000  0.00  0.00    -0.344 OA
BRANCH  14  15
ATOM     15  C   UNL     1       4.287  -4.950   0.000  0.00  0.00    +0.143 C 
BRANCH  15  16
ATOM     16  C   UNL     1       3.572  -5.362   0.000  0.00  0.00    +0.032 C 
BRANCH  16  18
ATOM     17  C   UNL     1       2.143  -5.362   0.000  0.00  0.00    +0.000 C 
ATOM     18  C   UNL     1       2.858  -4.950   0.000  0.00  0.00    +0.003 C 
ENDBRANCH  16  18
ENDBRANCH  15  16
ENDBRANCH  14  15
ENDBRANCH  13  14
ENDBRANCH   1  13
TORSDOF 6
