REMARK  Name = 
REMARK  8 active torsions:
REMARK  status: ('A' for Active; 'I' for Inactive)
REMARK    1  A    between atoms: C_2  and  C_3
REMARK    2  A    between atoms: C_3  and  C_4
REMARK    3  A    between atoms: C_4  and  C_5
REMARK    4  A    between atoms: C_5  and  C_6
REMARK    5  A    between atoms: C_5  and  C_21
REMARK    6  A    between atoms: C_6  and  N_7
REMARK    7  A    between atoms: C_11  and  C_12
REMARK    8  A    between atoms: C_12  and  N_13
REMARK                            x       y       z     vdW  Elec       q    Type
REMARK                         _______ _______ _______ _____ _____    ______ ____
ROOT
ATOM      1  N   UNL     1       7.587  -8.029   0.000  0.00  0.00    -0.268 NA
ATOM      2  C   UNL     1       7.999  -8.743   0.000  0.00  0.00    +0.104 C 
ATOM      3  C   UNL     1       8.824  -8.743   0.000  0.00  0.00    +0.153 C 
ATOM      4  O   UNL     1       9.237  -8.029   0.000  0.00  0.00    -0.352 OA
ATOM      5  C   UNL     1       8.824  -7.314   0.000  0.00  0.00    +0.159 C 
ATOM      6  C   UNL     1       7.999  -7.314   0.000  0.00  0.00    +0.105 C 
ENDROOT
BRANCH   1   7
ATOM      7  C   UNL     1       6.762  -8.029   0.000  0.00  0.00    +0.087 C 
BRANCH   7   8
ATOM      8  C   UNL     1       6.349  -7.314   0.000  0.00  0.00    +0.108 C 
BRANCH   8   9
ATOM      9  C   UNL     1       6.762  -6.600   0.000  0.00  0.00    +0.074 C 
ATOM     10  N   UNL     1       7.174  -5.886   0.000  0.00  0.00    -0.196 NA
ENDBRANCH   8   9
BRANCH   8  11
ATOM     11  C   UNL     1       5.524  -7.314   0.000  0.00  0.00    +0.033 C 
BRANCH  11  12
ATOM     12  C   UNL     1       5.112  -6.600   0.000  0.00  0.00    +0.107 C 
BRANCH  12  14
ATOM     13  N   UNL     1       3.462  -6.600   0.000  0.00  0.00    -0.196 NA
ATOM     14  C   UNL     1       4.287  -6.600   0.000  0.00  0.00    +0.073 C 
ENDBRANCH  12  14
ENDBRANCH  11  12
ENDBRANCH   8  11
ENDBRANCH   7   8
ENDBRANCH   1   7
BRANCH   3  15
ATOM     15  C   UNL     1       9.237  -9.458   0.000  0.00  0.00    +0.145 C 
BRANCH  15  16
ATOM     16  N   UNL     1      10.062  -9.458   0.000  0.00  0.00    -0.216 NA
ATOM     17  C   UNL     1      10.474 -10.172   0.000  0.00  0.00    +0.169 A 
ATOM     18  N   UNL     1      10.062 -10.887   0.000  0.00  0.00    -0.131 NA
ATOM     19  N   UNL     1      10.474 -11.601   0.000  0.00  0.00    -0.145 NA
ATOM     20  C   UNL     1      11.299 -11.601   0.000  0.00  0.00    +0.122 A 
ATOM     21  C   UNL     1      11.712 -10.887   0.000  0.00  0.00    +0.025 A 
ATOM     22  C   UNL     1      11.299 -10.172   0.000  0.00  0.00    +0.039 A 
ENDBRANCH  15  16
ENDBRANCH   3  15
TORSDOF 8
