REMARK  Name = 
REMARK  4 active torsions:
REMARK  status: ('A' for Active; 'I' for Inactive)
REMARK    1  A    between atoms: C_2  and  N_3
REMARK    2  A    between atoms: C_2  and  C_12
REMARK    3  A    between atoms: N_3  and  C_4
REMARK    4  A    between atoms: C_12  and  N_14
REMARK                            x       y       z     vdW  Elec       q    Type
REMARK                         _______ _______ _______ _____ _____    ______ ____
ROOT
ATOM      1  C   UNL     1       1.541  -2.708   0.000  0.00  0.00    +0.021 C 
ATOM      2  C   UNL     1       1.877  -3.462   0.000  0.00  0.00    +0.095 C 
ENDROOT
BRANCH   2   3
ATOM      3  C   UNL     1       1.392  -4.130   0.000  0.00  0.00    +0.121 C 
ATOM      4  C   UNL     1       1.728  -4.883   0.000  0.00  0.00    +0.028 C 
BRANCH   3   5
ATOM      5  N   UNL     1       0.572  -4.043   0.000  0.00  0.00    -0.250 N 
ATOM      6  N   UNL     1       0.159  -3.329   0.000  0.00  0.00    -0.168 NA
ATOM      7  C   UNL     1      -0.648  -3.500   0.000  0.00  0.00    +0.117 A 
ATOM      8  C   UNL     1      -0.734  -4.321   0.000  0.00  0.00    +0.018 A 
ATOM      9  C   UNL     1      -1.449  -4.733   0.000  0.00  0.00    +0.034 C 
ATOM     10  C   UNL     1       0.020  -4.656   0.000  0.00  0.00    +0.092 A 
ENDBRANCH   3   5
ENDBRANCH   2   3
BRANCH   2  11
ATOM     11  N   UNL     1       2.697  -3.548   0.000  0.00  0.00    -0.214 NA
BRANCH  11  12
ATOM     12  C   UNL     1       3.182  -2.881   0.000  0.00  0.00    +0.128 C 
ATOM     13  C   UNL     1       4.007  -2.881   0.000  0.00  0.00    +0.193 C 
ATOM     14  O   UNL     1       4.492  -3.548   0.000  0.00  0.00    -0.220 OA
ATOM     15  C   UNL     1       4.262  -2.096   0.000  0.00  0.00    +0.185 C 
ATOM     16  S   UNL     1       3.595  -1.611   0.000  0.00  0.00    -0.006 S 
ATOM     17  O   UNL     1       4.147  -0.998   0.000  0.00  0.00    -0.173 OA
ATOM     18  O   UNL     1       3.043  -0.998   0.000  0.00  0.00    -0.173 OA
ATOM     19  C   UNL     1       2.928  -2.096   0.000  0.00  0.00    +0.171 C 
ENDBRANCH  11  12
ENDBRANCH   2  11
TORSDOF 4
