REMARK  Name = 
REMARK  3 active torsions:
REMARK  status: ('A' for Active; 'I' for Inactive)
REMARK    1  A    between atoms: N_5  and  C_6
REMARK    2  A    between atoms: C_6  and  C_7
REMARK    3  A    between atoms: N_9  and  C_10
REMARK                            x       y       z     vdW  Elec       q    Type
REMARK                         _______ _______ _______ _____ _____    ______ ____
ROOT
ATOM      1  C   UNL     1       1.877  -3.462   0.000  0.00  0.00    +0.266 C 
ATOM      2  N   UNL     1       1.392  -4.130   0.000  0.00  0.00    -0.206 NA
ATOM      3  O   UNL     1       1.541  -2.708   0.000  0.00  0.00    -0.271 OA
ENDROOT
BRANCH   2   4
ATOM      4  C   UNL     1       0.572  -4.043   0.000  0.00  0.00    +0.095 C 
ATOM      5  C   UNL     1       0.159  -3.329   0.000  0.00  0.00    +0.022 C 
ATOM      6  C   UNL     1      -0.648  -3.500   0.000  0.00  0.00    +0.002 C 
ATOM      7  C   UNL     1      -0.734  -4.321   0.000  0.00  0.00    +0.002 C 
ATOM      8  C   UNL     1       0.020  -4.656   0.000  0.00  0.00    +0.022 C 
ENDBRANCH   2   4
BRANCH   1   9
ATOM      9  C   UNL     1       2.697  -3.548   0.000  0.00  0.00    +0.214 C 
BRANCH   9  13
ATOM     10  N   UNL     1       3.595  -0.786   0.000  0.00  0.00    -0.125 NA
ATOM     11  C   UNL     1       3.595  -1.611   0.000  0.00  0.00    +0.129 A 
ATOM     12  C   UNL     1       2.928  -2.096   0.000  0.00  0.00    +0.115 A 
ATOM     13  N   UNL     1       3.182  -2.881   0.000  0.00  0.00    -0.239 N 
ATOM     14  N   UNL     1       4.007  -2.881   0.000  0.00  0.00    -0.166 NA
ATOM     15  C   UNL     1       4.262  -2.096   0.000  0.00  0.00    +0.140 A 
ENDBRANCH   9  13
ENDBRANCH   1   9
TORSDOF 3
