REMARK  Name = 
REMARK  2 active torsions:
REMARK  status: ('A' for Active; 'I' for Inactive)
REMARK    1  A    between atoms: C_2  and  C_3
REMARK    2  A    between atoms: C_3  and  N_4
REMARK                            x       y       z     vdW  Elec       q    Type
REMARK                         _______ _______ _______ _____ _____    ______ ____
ROOT
ATOM      1  O   UNL     1      -2.751  -1.712   0.000  0.00  0.00    -0.271 OA
ATOM      2  C   UNL     1      -2.037  -1.299   0.000  0.00  0.00    +0.270 C 
ATOM      3  N   UNL     1      -1.322  -1.712   0.000  0.00  0.00    -0.153 NA
ATOM      4  C   UNL     1      -1.322  -2.537   0.000  0.00  0.00    +0.177 C 
ATOM      5  S   UNL     1      -1.990  -3.022   0.000  0.00  0.00    -0.076 S 
ATOM      6  C   UNL     1      -1.735  -3.806   0.000  0.00  0.00    +0.091 C 
ATOM      7  C   UNL     1      -0.910  -3.806   0.000  0.00  0.00    +0.140 C 
ATOM      8  N   UNL     1      -0.655  -3.022   0.000  0.00  0.00    -0.248 NA
ENDROOT
BRANCH   2   9
ATOM      9  C   UNL     1      -2.037  -0.474   0.000  0.00  0.00    +0.196 C 
BRANCH   9  10
ATOM     10  N   UNL     1      -2.751  -0.062   0.000  0.00  0.00    -0.285 N 
ATOM     11  C   UNL     1      -2.751   0.763   0.000  0.00  0.00    +0.261 A 
ATOM     12  O   UNL     1      -2.037   1.176   0.000  0.00  0.00    -0.267 OA
ATOM     13  C   UNL     1      -3.466   1.176   0.000  0.00  0.00    +0.061 A 
ATOM     14  C   UNL     1      -4.180   0.763   0.000  0.00  0.00    +0.006 A 
ATOM     15  C   UNL     1      -4.180  -0.062   0.000  0.00  0.00    +0.019 A 
ATOM     16  C   UNL     1      -3.466  -0.474   0.000  0.00  0.00    +0.079 A 
ENDBRANCH   9  10
ENDBRANCH   2   9
TORSDOF 2
