REMARK  Name = 
REMARK  4 active torsions:
REMARK  status: ('A' for Active; 'I' for Inactive)
REMARK    1  A    between atoms: C_2  and  C_3
REMARK    2  A    between atoms: C_3  and  N_4
REMARK    3  A    between atoms: C_3  and  C_17
REMARK    4  A    between atoms: N_7  and  C_8
REMARK                            x       y       z     vdW  Elec       q    Type
REMARK                         _______ _______ _______ _____ _____    ______ ____
ROOT
ATOM      1  N   UNL     1       4.095  -1.760   0.000  0.00  0.00    -0.186 NA
ATOM      2  C   UNL     1       4.508  -2.475   0.000  0.00  0.00    +0.344 C 
ATOM      3  N   UNL     1       5.333  -2.475   0.000  0.00  0.00    -0.156 NA
ATOM      4  O   UNL     1       4.095  -3.189   0.000  0.00  0.00    -0.249 OA
ENDROOT
BRANCH   3   5
ATOM      5  C   UNL     1       5.745  -3.189   0.000  0.00  0.00    +0.127 A 
ATOM      6  C   UNL     1       5.333  -3.904   0.000  0.00  0.00    +0.276 A 
ATOM      7  O   UNL     1       4.508  -3.904   0.000  0.00  0.00    -0.266 OA
ATOM      8  N   UNL     1       5.745  -4.618   0.000  0.00  0.00    -0.291 N 
ATOM      9  C   UNL     1       5.333  -5.333   0.000  0.00  0.00    +0.134 C 
ATOM     10  C   UNL     1       6.570  -4.618   0.000  0.00  0.00    +0.078 A 
ATOM     11  C   UNL     1       6.983  -3.904   0.000  0.00  0.00    +0.016 A 
ATOM     12  C   UNL     1       6.570  -3.189   0.000  0.00  0.00    -0.000 A 
ATOM     13  C   UNL     1       6.983  -2.475   0.000  0.00  0.00    +0.033 C 
ENDBRANCH   3   5
BRANCH   1  14
ATOM     14  C   UNL     1       3.270  -1.760   0.000  0.00  0.00    +0.124 C 
BRANCH  14  15
ATOM     15  C   UNL     1       2.858  -1.046   0.000  0.00  0.00    +0.135 C 
ATOM     16  O   UNL     1       3.193  -0.292   0.000  0.00  0.00    -0.354 OA
ATOM     17  C   UNL     1       2.580   0.260   0.000  0.00  0.00    +0.142 C 
ATOM     18  C   UNL     1       1.866  -0.153   0.000  0.00  0.00    +0.035 C 
ATOM     19  C   UNL     1       2.037  -0.960   0.000  0.00  0.00    +0.034 C 
ENDBRANCH  14  15
BRANCH  14  21
ATOM     20  C   UNL     1       2.033  -2.475   0.000  0.00  0.00    +0.002 C 
ATOM     21  C   UNL     1       2.858  -2.475   0.000  0.00  0.00    +0.024 C 
ENDBRANCH  14  21
ENDBRANCH   1  14
TORSDOF 4
