REMARK  Name = 
REMARK  3 active torsions:
REMARK  status: ('A' for Active; 'I' for Inactive)
REMARK    1  A    between atoms: N_1  and  C_4
REMARK    2  A    between atoms: C_11  and  N_14
REMARK    3  A    between atoms: C_12  and  C_18
REMARK                            x       y       z     vdW  Elec       q    Type
REMARK                         _______ _______ _______ _____ _____    ______ ____
ROOT
ATOM      1  C   UNL     1      -1.327   2.296   0.000  0.00  0.00    +0.210 C 
ATOM      2  C   UNL     1      -0.659   1.812   0.000  0.00  0.00    +0.088 C 
ATOM      3  C   UNL     1      -0.914   1.023   0.000  0.00  0.00    +0.221 C 
ATOM      4  C   UNL     1      -1.741   1.023   0.000  0.00  0.00    +0.180 C 
ATOM      5  O   UNL     1      -1.995   1.812   0.000  0.00  0.00    -0.333 OA
ENDROOT
BRANCH   1   6
ATOM      6  N   UNL     1      -1.327   3.122   0.000  0.00  0.00    -0.256 N 
ATOM      7  C   UNL     1      -0.609   3.536   0.000  0.00  0.00    +0.082 A 
ATOM      8  C   UNL     1      -0.609   4.358   0.000  0.00  0.00    +0.053 A 
ATOM      9  C   UNL     1      -1.327   4.771   0.000  0.00  0.00    +0.280 A 
ATOM     10  O   UNL     1      -1.327   5.598   0.000  0.00  0.00    -0.265 OA
ATOM     11  N   UNL     1      -2.041   4.358   0.000  0.00  0.00    -0.153 NA
ATOM     12  C   UNL     1       0.104   4.771   0.000  0.00  0.00    +0.038 C 
ATOM     13  C   UNL     1      -2.041   3.536   0.000  0.00  0.00    +0.354 A 
ATOM     14  O   UNL     1      -2.759   3.122   0.000  0.00  0.00    -0.244 OA
ENDBRANCH   1   6
BRANCH   3  15
ATOM     15  N   UNL     1      -0.426   0.355   0.000  0.00  0.00    +0.090 NA
ATOM     16  N   UNL     1       0.392   0.443   0.000  0.00  0.00    -0.014 NA
ATOM     17  N   UNL     1       1.215   0.530   0.000  0.00  0.00    -0.328 NA
ENDBRANCH   3  15
BRANCH   4  18
ATOM     18  C   UNL     1      -2.225   0.355   0.000  0.00  0.00    +0.214 C 
ATOM     19  O   UNL     1      -3.047   0.443   0.000  0.00  0.00    -0.218 OA
ENDBRANCH   4  18
TORSDOF 3
