REMARK  Name = 
REMARK  2 active torsions:
REMARK  status: ('A' for Active; 'I' for Inactive)
REMARK    1  A    between atoms: C_2  and  N_3
REMARK    2  A    between atoms: C_2  and  C_12
REMARK                            x       y       z     vdW  Elec       q    Type
REMARK                         _______ _______ _______ _____ _____    ______ ____
ROOT
ATOM      1  N   UNL     1       1.847  -1.211   0.000  0.00  0.00    -0.186 NA
ATOM      2  C   UNL     1       2.561  -1.624   0.000  0.00  0.00    +0.345 C 
ATOM      3  N   UNL     1       3.276  -1.211   0.000  0.00  0.00    -0.136 NA
ATOM      4  C   UNL     1       3.990  -1.624   0.000  0.00  0.00    +0.187 A 
ATOM      5  S   UNL     1       4.076  -2.444   0.000  0.00  0.00    -0.049 S 
ATOM      6  C   UNL     1       4.883  -2.616   0.000  0.00  0.00    +0.059 A 
ATOM      7  C   UNL     1       5.296  -1.901   0.000  0.00  0.00    +0.108 A 
ATOM      8  N   UNL     1       4.744  -1.288   0.000  0.00  0.00    -0.221 NA
ATOM      9  O   UNL     1       2.561  -2.449   0.000  0.00  0.00    -0.249 OA
ENDROOT
BRANCH   1  11
ATOM     10  C   UNL     1       1.132  -2.449   0.000  0.00  0.00    +0.026 C 
ATOM     11  C   UNL     1       1.132  -1.624   0.000  0.00  0.00    +0.124 C 
BRANCH  11  12
ATOM     12  C   UNL     1       0.418  -1.211   0.000  0.00  0.00    +0.135 C 
ATOM     13  O   UNL     1       0.331  -0.391   0.000  0.00  0.00    -0.354 OA
ATOM     14  C   UNL     1      -0.476  -0.219   0.000  0.00  0.00    +0.142 C 
ATOM     15  C   UNL     1      -0.888  -0.934   0.000  0.00  0.00    +0.035 C 
ATOM     16  C   UNL     1      -0.336  -1.547   0.000  0.00  0.00    +0.034 C 
ENDBRANCH  11  12
ENDBRANCH   1  11
TORSDOF 2
