REMARK  Name = 
REMARK  7 active torsions:
REMARK  status: ('A' for Active; 'I' for Inactive)
REMARK    1  A    between atoms: C_2  and  C_3
REMARK    2  A    between atoms: C_2  and  C_21
REMARK    3  A    between atoms: C_3  and  N_4
REMARK    4  A    between atoms: N_4  and  C_6
REMARK    5  A    between atoms: C_6  and  C_7
REMARK    6  A    between atoms: C_7  and  C_9
REMARK    7  A    between atoms: C_9  and  N_10
REMARK                            x       y       z     vdW  Elec       q    Type
REMARK                         _______ _______ _______ _____ _____    ______ ____
ROOT
ATOM      1  C   UNL     1       2.849  -0.381   0.000  0.00  0.00    +0.142 C 
ENDROOT
BRANCH   1   2
ATOM      2  N   UNL     1       2.135  -0.793   0.000  0.00  0.00    -0.306 N 
ATOM      3  C   UNL     1       1.381  -0.457   0.000  0.00  0.00    +0.079 A 
ATOM      4  C   UNL     1       0.829  -1.071   0.000  0.00  0.00    +0.098 A 
ATOM      5  C   UNL     1       0.022  -0.899   0.000  0.00  0.00    +0.016 A 
ATOM      6  C   UNL     1      -0.233  -0.114   0.000  0.00  0.00    -0.024 A 
ATOM      7  C   UNL     1       0.319   0.499   0.000  0.00  0.00    -0.024 A 
ATOM      8  C   UNL     1       0.064   1.283   0.000  0.00  0.00    +0.031 C 
ATOM      9  C   UNL     1      -1.040   0.057   0.000  0.00  0.00    +0.031 C 
ATOM     10  N   UNL     1       1.241  -1.785   0.000  0.00  0.00    -0.224 NA
ATOM     11  C   UNL     1       1.126   0.327   0.000  0.00  0.00    +0.014 A 
ATOM     12  C   UNL     1       2.048  -1.613   0.000  0.00  0.00    +0.179 A 
ENDBRANCH   1   2
BRANCH   1  13
ATOM     13  C   UNL     1       3.563  -0.793   0.000  0.00  0.00    +0.190 C 
ATOM     14  O   UNL     1       3.563  -1.618   0.000  0.00  0.00    -0.220 OA
BRANCH  13  15
ATOM     15  C   UNL     1       4.278  -0.381   0.000  0.00  0.00    +0.107 C 
BRANCH  15  16
ATOM     16  N   UNL     1       4.992  -0.793   0.000  0.00  0.00    -0.268 NA
ATOM     17  C   UNL     1       4.992  -1.618   0.000  0.00  0.00    +0.090 C 
BRANCH  16  18
ATOM     18  C   UNL     1       5.707  -0.381   0.000  0.00  0.00    +0.087 C 
BRANCH  18  20
ATOM     19  C   UNL     1       6.421  -1.618   0.000  0.00  0.00    +0.018 C 
ATOM     20  C   UNL     1       6.421  -0.793   0.000  0.00  0.00    +0.107 C 
BRANCH  20  21
ATOM     21  C   UNL     1       7.136  -0.381   0.000  0.00  0.00    +0.074 C 
ATOM     22  N   UNL     1       7.850   0.032   0.000  0.00  0.00    -0.196 NA
ENDBRANCH  20  21
ENDBRANCH  18  20
ENDBRANCH  16  18
ENDBRANCH  15  16
ENDBRANCH  13  15
ENDBRANCH   1  13
TORSDOF 7
