REMARK  Name = 
REMARK  4 active torsions:
REMARK  status: ('A' for Active; 'I' for Inactive)
REMARK    1  A    between atoms: C_2  and  N_3
REMARK    2  A    between atoms: C_7  and  C_8
REMARK    3  A    between atoms: C_8  and  N_9
REMARK    4  A    between atoms: C_14  and  O_15
REMARK                            x       y       z     vdW  Elec       q    Type
REMARK                         _______ _______ _______ _____ _____    ______ ____
ROOT
ATOM      1  C   UNL     1      -1.429  -4.125   0.000  0.00  0.00    +0.146 C 
ENDROOT
BRANCH   1   2
ATOM      2  N   UNL     1      -2.143  -3.712   0.000  0.00  0.00    -0.201 NA
ATOM      3  C   UNL     1      -2.858  -4.125   0.000  0.00  0.00    +0.239 A 
ATOM      4  N   UNL     1      -3.572  -3.712   0.000  0.00  0.00    -0.177 NA
ATOM      5  C   UNL     1      -4.287  -4.125   0.000  0.00  0.00    +0.229 A 
ATOM      6  C   UNL     1      -4.287  -4.950   0.000  0.00  0.00    +0.078 A 
ATOM      7  C   UNL     1      -3.572  -5.362   0.000  0.00  0.00    +0.107 A 
ATOM      8  N   UNL     1      -2.858  -4.950   0.000  0.00  0.00    -0.211 NA
BRANCH   5   9
ATOM      9  O   UNL     1      -5.001  -3.712   0.000  0.00  0.00    -0.456 OA
ATOM     10  C   UNL     1      -5.716  -4.125   0.000  0.00  0.00    +0.254 C 
ENDBRANCH   5   9
ENDBRANCH   1   2
BRANCH   1  13
ATOM     11  N   UNL     1       0.000  -2.475   0.000  0.00  0.00    -0.268 NA
ATOM     12  C   UNL     1      -0.715  -2.888   0.000  0.00  0.00    +0.104 C 
ATOM     13  C   UNL     1      -0.715  -3.712   0.000  0.00  0.00    +0.153 C 
ATOM     14  O   UNL     1       0.000  -4.125   0.000  0.00  0.00    -0.352 OA
ATOM     15  C   UNL     1       0.715  -3.712   0.000  0.00  0.00    +0.159 C 
ATOM     16  C   UNL     1       0.715  -2.888   0.000  0.00  0.00    +0.105 C 
BRANCH  11  18
ATOM     17  C   UNL     1       0.715  -1.238   0.000  0.00  0.00    +0.019 C 
ATOM     18  C   UNL     1       0.000  -1.650   0.000  0.00  0.00    +0.072 C 
ENDBRANCH  11  18
ENDBRANCH   1  13
TORSDOF 4
