REMARK  Name = 
REMARK  3 active torsions:
REMARK  status: ('A' for Active; 'I' for Inactive)
REMARK    1  A    between atoms: C_2  and  C_3
REMARK    2  A    between atoms: C_3  and  N_4
REMARK    3  A    between atoms: N_12  and  C_13
REMARK                            x       y       z     vdW  Elec       q    Type
REMARK                         _______ _______ _______ _____ _____    ______ ____
ROOT
ATOM      1  N   UNL     1      -2.556  -0.174   0.000  0.00  0.00    -0.269 N 
ATOM      2  C   UNL     1      -2.556   0.651   0.000  0.00  0.00    +0.353 A 
ATOM      3  O   UNL     1      -1.841   1.063   0.000  0.00  0.00    -0.244 OA
ATOM      4  N   UNL     1      -3.270   1.063   0.000  0.00  0.00    -0.153 NA
ATOM      5  C   UNL     1      -3.985   0.651   0.000  0.00  0.00    +0.285 A 
ATOM      6  O   UNL     1      -4.699   1.063   0.000  0.00  0.00    -0.265 OA
ATOM      7  C   UNL     1      -3.985  -0.174   0.000  0.00  0.00    +0.081 A 
ATOM      8  C   UNL     1      -3.270  -0.587   0.000  0.00  0.00    +0.085 A 
ENDROOT
BRANCH   1   9
ATOM      9  C   UNL     1      -1.841  -0.587   0.000  0.00  0.00    +0.197 C 
BRANCH   9  11
ATOM     10  O   UNL     1      -2.556  -1.824   0.000  0.00  0.00    -0.271 OA
ATOM     11  C   UNL     1      -1.841  -1.412   0.000  0.00  0.00    +0.265 C 
ATOM     12  N   UNL     1      -1.127  -1.824   0.000  0.00  0.00    -0.206 NA
BRANCH  12  13
ATOM     13  C   UNL     1      -1.127  -2.649   0.000  0.00  0.00    +0.095 C 
ATOM     14  C   UNL     1      -1.540  -3.364   0.000  0.00  0.00    +0.023 C 
ATOM     15  C   UNL     1      -0.715  -3.364   0.000  0.00  0.00    +0.023 C 
ENDBRANCH  12  13
ENDBRANCH   9  11
ENDBRANCH   1   9
TORSDOF 3
