REMARK  Name = 
REMARK  6 active torsions:
REMARK  status: ('A' for Active; 'I' for Inactive)
REMARK    1  A    between atoms: C_4  and  C_5
REMARK    2  A    between atoms: C_5  and  S_6
REMARK    3  A    between atoms: S_6  and  N_9
REMARK    4  A    between atoms: N_9  and  C_10
REMARK    5  A    between atoms: C_10  and  C_11
REMARK    6  A    between atoms: C_11  and  C_12
REMARK                            x       y       z     vdW  Elec       q    Type
REMARK                         _______ _______ _______ _____ _____    ______ ____
ROOT
ATOM      1  S   UNL     1       2.286  -0.737   0.000  0.00  0.00    +0.063 S 
ATOM      2  O   UNL     1       2.199   0.084   0.000  0.00  0.00    -0.156 OA
ATOM      3  O   UNL     1       2.372  -1.557   0.000  0.00  0.00    -0.156 OA
ENDROOT
BRANCH   1   4
ATOM      4  C   UNL     1       1.465  -0.823   0.000  0.00  0.00    +0.219 C 
BRANCH   4   9
ATOM      5  C   UNL     1       0.568   1.939   0.000  0.00  0.00    +0.075 C 
ATOM      6  C   UNL     1       0.568   1.114   0.000  0.00  0.00    +0.155 A 
ATOM      7  O   UNL     1      -0.100   0.629   0.000  0.00  0.00    -0.358 OA
ATOM      8  N   UNL     1       0.155  -0.155   0.000  0.00  0.00    -0.080 NA
ATOM      9  C   UNL     1       0.980  -0.155   0.000  0.00  0.00    +0.126 A 
ATOM     10  C   UNL     1       1.235   0.629   0.000  0.00  0.00    +0.055 A 
ENDBRANCH   4   9
ENDBRANCH   1   4
BRANCH   1  11
ATOM     11  N   UNL     1       3.106  -0.650   0.000  0.00  0.00    -0.082 NA
BRANCH  11  12
ATOM     12  C   UNL     1       3.591  -1.318   0.000  0.00  0.00    +0.118 C 
BRANCH  12  13
ATOM     13  C   UNL     1       4.412  -1.231   0.000  0.00  0.00    +0.056 C 
BRANCH  13  14
ATOM     14  C   UNL     1       4.896  -1.899   0.000  0.00  0.00    +0.184 C 
ATOM     15  O   UNL     1       5.717  -1.813   0.000  0.00  0.00    -0.220 OA
ENDBRANCH  13  14
ENDBRANCH  12  13
ENDBRANCH  11  12
ENDBRANCH   1  11
TORSDOF 6
