REMARK  Name = 
REMARK  6 active torsions:
REMARK  status: ('A' for Active; 'I' for Inactive)
REMARK    1  A    between atoms: C_3  and  C_5
REMARK    2  A    between atoms: C_5  and  S_6
REMARK    3  A    between atoms: S_6  and  C_7
REMARK    4  A    between atoms: N_15  and  C_16
REMARK    5  A    between atoms: C_16  and  C_17
REMARK    6  A    between atoms: C_17  and  O_18
REMARK                            x       y       z     vdW  Elec       q    Type
REMARK                         _______ _______ _______ _____ _____    ______ ____
ROOT
ATOM      1  C   UNL     1       4.262  -3.037   0.000  0.00  0.00    +0.172 A 
ATOM      2  N   UNL     1       5.016  -3.372   0.000  0.00  0.00    -0.304 N 
ATOM      3  C   UNL     1       5.568  -2.759   0.000  0.00  0.00    +0.079 A 
ATOM      4  C   UNL     1       5.156  -2.045   0.000  0.00  0.00    +0.099 A 
ATOM      5  C   UNL     1       5.568  -1.330   0.000  0.00  0.00    +0.021 A 
ATOM      6  C   UNL     1       6.393  -1.330   0.000  0.00  0.00    +0.002 A 
ATOM      7  C   UNL     1       6.806  -2.045   0.000  0.00  0.00    +0.002 A 
ATOM      8  C   UNL     1       6.393  -2.759   0.000  0.00  0.00    +0.019 A 
ATOM      9  N   UNL     1       4.349  -2.216   0.000  0.00  0.00    -0.221 NA
ENDROOT
BRANCH   1  10
ATOM     10  S   UNL     1       3.548  -3.449   0.000  0.00  0.00    -0.067 S 
BRANCH  10  11
ATOM     11  C   UNL     1       2.833  -3.037   0.000  0.00  0.00    +0.152 C 
BRANCH  11  14
ATOM     12  C   UNL     1       0.690  -3.449   0.000  0.00  0.00    +0.139 C 
ATOM     13  N   UNL     1       1.405  -3.037   0.000  0.00  0.00    -0.203 NA
ATOM     14  C   UNL     1       2.119  -3.449   0.000  0.00  0.00    +0.253 C 
ATOM     15  O   UNL     1       2.119  -4.274   0.000  0.00  0.00    -0.272 OA
ENDBRANCH  11  14
ENDBRANCH  10  11
ENDBRANCH   1  10
BRANCH   2  16
ATOM     16  C   UNL     1       5.188  -4.179   0.000  0.00  0.00    +0.140 C 
BRANCH  16  17
ATOM     17  C   UNL     1       5.972  -4.434   0.000  0.00  0.00    +0.167 C 
BRANCH  17  18
ATOM     18  O   UNL     1       6.144  -5.241   0.000  0.00  0.00    -0.349 OA
ATOM     19  C   UNL     1       6.928  -5.496   0.000  0.00  0.00    +0.174 C 
ENDBRANCH  17  18
ENDBRANCH  16  17
ENDBRANCH   2  16
TORSDOF 6
