REMARK  Name = 
REMARK  2 active torsions:
REMARK  status: ('A' for Active; 'I' for Inactive)
REMARK    1  A    between atoms: C_4  and  N_5
REMARK    2  A    between atoms: N_8  and  C_9
REMARK                            x       y       z     vdW  Elec       q    Type
REMARK                         _______ _______ _______ _____ _____    ______ ____
ROOT
ATOM      1  N   UNL     1       4.287  -4.125   0.000  0.00  0.00    -0.159 NA
ATOM      2  C   UNL     1       4.287  -4.950   0.000  0.00  0.00    +0.343 C 
ATOM      3  N   UNL     1       5.001  -5.362   0.000  0.00  0.00    -0.189 NA
ATOM      4  O   UNL     1       3.572  -5.362   0.000  0.00  0.00    -0.249 OA
ENDROOT
BRANCH   1  11
ATOM      5  C   UNL     1       2.858  -1.650   0.000  0.00  0.00    +0.134 C 
ATOM      6  N   UNL     1       2.858  -2.475   0.000  0.00  0.00    -0.291 N 
ATOM      7  C   UNL     1       2.143  -2.888   0.000  0.00  0.00    +0.261 A 
ATOM      8  O   UNL     1       1.429  -2.475   0.000  0.00  0.00    -0.267 OA
ATOM      9  C   UNL     1       2.143  -3.712   0.000  0.00  0.00    +0.062 A 
ATOM     10  C   UNL     1       2.858  -4.125   0.000  0.00  0.00    +0.023 A 
ATOM     11  C   UNL     1       3.572  -3.712   0.000  0.00  0.00    +0.092 A 
ATOM     12  C   UNL     1       3.572  -2.888   0.000  0.00  0.00    +0.095 A 
ENDBRANCH   1  11
BRANCH   3  13
ATOM     13  C   UNL     1       5.001  -6.188   0.000  0.00  0.00    +0.102 C 
ATOM     14  C   UNL     1       4.287  -6.600   0.000  0.00  0.00    +0.054 C 
ATOM     15  C   UNL     1       4.287  -7.425   0.000  0.00  0.00    +0.144 C 
ATOM     16  O   UNL     1       5.001  -7.838   0.000  0.00  0.00    -0.354 OA
ATOM     17  C   UNL     1       5.716  -7.425   0.000  0.00  0.00    +0.144 C 
ATOM     18  C   UNL     1       5.716  -6.600   0.000  0.00  0.00    +0.054 C 
ENDBRANCH   3  13
TORSDOF 2
