REMARK  Name = 
REMARK  2 active torsions:
REMARK  status: ('A' for Active; 'I' for Inactive)
REMARK    1  A    between atoms: C_7  and  N_8
REMARK    2  A    between atoms: N_11  and  C_12
REMARK                            x       y       z     vdW  Elec       q    Type
REMARK                         _______ _______ _______ _____ _____    ______ ____
ROOT
ATOM      1  N   UNL     1      -1.015   1.202   0.000  0.00  0.00    -0.158 NA
ATOM      2  C   UNL     1      -0.432   0.619   0.000  0.00  0.00    +0.344 C 
ATOM      3  N   UNL     1       0.365   0.832   0.000  0.00  0.00    -0.189 NA
ATOM      4  O   UNL     1      -0.645  -0.178   0.000  0.00  0.00    -0.249 OA
ENDROOT
BRANCH   1  10
ATOM      5  C   UNL     1      -4.416  -0.449   0.000  0.00  0.00    +0.115 C 
ATOM      6  N   UNL     1      -4.203   0.348   0.000  0.00  0.00    -0.275 N 
ATOM      7  C   UNL     1      -3.406   0.561   0.000  0.00  0.00    +0.220 A 
ATOM      8  N   UNL     1      -2.823  -0.022   0.000  0.00  0.00    -0.211 NA
ATOM      9  C   UNL     1      -2.026   0.192   0.000  0.00  0.00    +0.120 A 
ATOM     10  C   UNL     1      -1.812   0.989   0.000  0.00  0.00    +0.113 A 
ATOM     11  C   UNL     1      -2.396   1.572   0.000  0.00  0.00    +0.120 A 
ATOM     12  N   UNL     1      -3.192   1.358   0.000  0.00  0.00    -0.211 NA
ATOM     13  C   UNL     1      -4.786   0.931   0.000  0.00  0.00    +0.115 C 
ENDBRANCH   1  10
BRANCH   3  14
ATOM     14  C   UNL     1       0.948   0.249   0.000  0.00  0.00    +0.101 C 
ATOM     15  C   UNL     1       0.948  -0.576   0.000  0.00  0.00    +0.044 C 
ATOM     16  C   UNL     1       0.146  -0.769   0.000  0.00  0.00    +0.004 C 
ATOM     17  C   UNL     1       0.756  -1.378   0.000  0.00  0.00    +0.004 C 
ATOM     18  C   UNL     1       1.773  -0.576   0.000  0.00  0.00    +0.118 C 
ATOM     19  O   UNL     1       2.558  -0.831   0.000  0.00  0.00    -0.356 OA
ATOM     20  C   UNL     1       3.043  -0.164   0.000  0.00  0.00    +0.142 C 
ATOM     21  C   UNL     1       2.558   0.504   0.000  0.00  0.00    +0.036 C 
ATOM     22  C   UNL     1       1.773   0.249   0.000  0.00  0.00    +0.050 C 
ENDBRANCH   3  14
TORSDOF 2
