REMARK  Name = 
REMARK  4 active torsions:
REMARK  status: ('A' for Active; 'I' for Inactive)
REMARK    1  A    between atoms: O_2  and  C_3
REMARK    2  A    between atoms: C_3  and  C_4
REMARK    3  A    between atoms: C_4  and  N_5
REMARK    4  A    between atoms: C_9  and  S_12
REMARK                            x       y       z     vdW  Elec       q    Type
REMARK                         _______ _______ _______ _____ _____    ______ ____
ROOT
ATOM      1  N   UNL     1      -0.778  -0.875   0.000  0.00  0.00    -0.218 NA
ATOM      2  C   UNL     1      -1.309  -0.243   0.000  0.00  0.00    +0.148 A 
ATOM      3  N   UNL     1      -1.027   0.532   0.000  0.00  0.00    -0.226 NA
ATOM      4  C   UNL     1      -1.557   1.165   0.000  0.00  0.00    +0.119 A 
ATOM      5  C   UNL     1      -2.369   1.021   0.000  0.00  0.00    +0.125 A 
ATOM      6  C   UNL     1      -2.651   0.246   0.000  0.00  0.00    +0.023 A 
ATOM      7  C   UNL     1      -2.121  -0.386   0.000  0.00  0.00    +0.037 A 
ENDROOT
BRANCH   5   8
ATOM      8  S   UNL     1      -2.900   1.653   0.000  0.00  0.00    +0.012 S 
ATOM      9  C   UNL     1      -2.268   2.183   0.000  0.00  0.00    +0.182 C 
ATOM     10  O   UNL     1      -3.532   1.123   0.000  0.00  0.00    -0.169 OA
ATOM     11  O   UNL     1      -3.430   2.285   0.000  0.00  0.00    -0.169 OA
ENDBRANCH   5   8
BRANCH   1  12
ATOM     12  C   UNL     1      -1.061  -1.650   0.000  0.00  0.00    +0.141 C 
BRANCH  12  13
ATOM     13  C   UNL     1      -0.530  -2.282   0.000  0.00  0.00    +0.118 C 
ATOM     14  C   UNL     1      -1.245  -2.695   0.000  0.00  0.00    +0.061 C 
ATOM     15  C   UNL     1      -1.245  -3.519   0.000  0.00  0.00    +0.145 C 
ATOM     16  O   UNL     1      -0.530  -3.932   0.000  0.00  0.00    -0.354 OA
ATOM     17  C   UNL     1       0.184  -3.519   0.000  0.00  0.00    +0.145 C 
ATOM     18  C   UNL     1       0.184  -2.695   0.000  0.00  0.00    +0.061 C 
BRANCH  13  20
ATOM     19  C   UNL     1       0.812  -1.793   0.000  0.00  0.00    +0.174 C 
ATOM     20  O   UNL     1       0.000  -1.650   0.000  0.00  0.00    -0.354 OA
ENDBRANCH  13  20
ENDBRANCH  12  13
ENDBRANCH   1  12
TORSDOF 4
