REMARK  Name = 
REMARK  2 active torsions:
REMARK  status: ('A' for Active; 'I' for Inactive)
REMARK    1  A    between atoms: C_4  and  C_7
REMARK    2  A    between atoms: C_7  and  C_10
REMARK                            x       y       z     vdW  Elec       q    Type
REMARK                         _______ _______ _______ _____ _____    ______ ____
ROOT
ATOM      1  C   UNL     1       0.568   1.939   0.000  0.00  0.00    +0.154 C 
ATOM      2  N   UNL     1       0.568   1.114   0.000  0.00  0.00    -0.248 N 
ATOM      3  N   UNL     1      -0.100   0.629   0.000  0.00  0.00    -0.168 NA
ATOM      4  C   UNL     1       0.155  -0.155   0.000  0.00  0.00    +0.120 A 
ATOM      5  C   UNL     1       0.980  -0.155   0.000  0.00  0.00    +0.046 A 
ATOM      6  C   UNL     1       1.235   0.629   0.000  0.00  0.00    +0.095 A 
ENDROOT
BRANCH   5   7
ATOM      7  C   UNL     1       1.465  -0.823   0.000  0.00  0.00    +0.166 C 
ATOM      8  O   UNL     1       2.133  -0.338   0.000  0.00  0.00    -0.220 OA
ATOM      9  C   UNL     1       0.798  -1.308   0.000  0.00  0.00    +0.039 C 
BRANCH   7  10
ATOM     10  C   UNL     1       1.950  -1.490   0.000  0.00  0.00    +0.144 C 
ATOM     11  N   UNL     1       2.771  -1.404   0.000  0.00  0.00    -0.128 NA
ENDBRANCH   7  10
ENDBRANCH   5   7
TORSDOF 2
