REMARK  Name = 
REMARK  6 active torsions:
REMARK  status: ('A' for Active; 'I' for Inactive)
REMARK    1  A    between atoms: C_2  and  O_3
REMARK    2  A    between atoms: O_3  and  C_4
REMARK    3  A    between atoms: C_6  and  N_7
REMARK    4  A    between atoms: N_7  and  C_8
REMARK    5  A    between atoms: C_8  and  C_9
REMARK    6  A    between atoms: C_9  and  C_10
REMARK                            x       y       z     vdW  Elec       q    Type
REMARK                         _______ _______ _______ _____ _____    ______ ____
ROOT
ATOM      1  C   UNL     1       0.412  -0.171   0.000  0.00  0.00    +0.118 C 
ATOM      2  C   UNL     1       0.996   0.412   0.000  0.00  0.00    +0.040 C 
ATOM      3  C   UNL     1       1.408  -0.302   0.000  0.00  0.00    +0.004 C 
ATOM      4  C   UNL     1       2.233  -0.302   0.000  0.00  0.00    +0.000 C 
ATOM      5  C   UNL     1       2.646   0.412   0.000  0.00  0.00    +0.000 C 
ATOM      6  C   UNL     1       2.233   1.127   0.000  0.00  0.00    +0.000 C 
ATOM      7  C   UNL     1       1.408   1.127   0.000  0.00  0.00    +0.004 C 
ATOM      8  C   UNL     1       0.412   0.996   0.000  0.00  0.00    +0.077 C 
ATOM      9  C   UNL     1      -0.171   0.412   0.000  0.00  0.00    +0.047 C 
ENDROOT
BRANCH   1  10
ATOM     10  O   UNL     1       0.412  -0.996   0.000  0.00  0.00    -0.356 OA
BRANCH  10  12
ATOM     11  C   UNL     1       1.127  -2.233   0.000  0.00  0.00    +0.035 C 
ATOM     12  C   UNL     1       1.127  -1.408   0.000  0.00  0.00    +0.142 C 
ENDBRANCH  10  12
ENDBRANCH   1  10
BRANCH   8  13
ATOM     13  N   UNL     1       0.412   1.821   0.000  0.00  0.00    -0.219 NA
BRANCH  13  14
ATOM     14  C   UNL     1       1.127   2.233   0.000  0.00  0.00    +0.098 C 
BRANCH  14  15
ATOM     15  C   UNL     1       1.127   3.058   0.000  0.00  0.00    +0.107 C 
BRANCH  15  16
ATOM     16  C   UNL     1       1.841   3.471   0.000  0.00  0.00    +0.238 A 
ATOM     17  O   UNL     1       2.595   3.135   0.000  0.00  0.00    -0.337 OA
ATOM     18  N   UNL     1       3.147   3.748   0.000  0.00  0.00    -0.061 NA
ATOM     19  C   UNL     1       2.735   4.463   0.000  0.00  0.00    +0.181 A 
ATOM     20  C   UNL     1       3.070   5.216   0.000  0.00  0.00    +0.077 C 
ATOM     21  N   UNL     1       1.928   4.291   0.000  0.00  0.00    -0.195 NA
ENDBRANCH  15  16
ENDBRANCH  14  15
ENDBRANCH  13  14
ENDBRANCH   8  13
TORSDOF 6
