REMARK  Name = 
REMARK  4 active torsions:
REMARK  status: ('A' for Active; 'I' for Inactive)
REMARK    1  A    between atoms: N_3  and  C_4
REMARK    2  A    between atoms: C_4  and  C_5
REMARK    3  A    between atoms: C_5  and  C_6
REMARK    4  A    between atoms: C_17  and  N_19
REMARK                            x       y       z     vdW  Elec       q    Type
REMARK                         _______ _______ _______ _____ _____    ______ ____
ROOT
ATOM      1  O   UNL     1      -1.041  -0.324   0.000  0.00  0.00    -0.251 OA
ATOM      2  C   UNL     1      -1.041  -1.149   0.000  0.00  0.00    +0.323 C 
ATOM      3  N   UNL     1      -1.756  -1.562   0.000  0.00  0.00    -0.261 N 
ATOM      4  C   UNL     1      -2.438  -1.097   0.000  0.00  0.00    +0.111 C 
ATOM      5  C   UNL     1      -3.226  -1.340   0.000  0.00  0.00    +0.077 C 
ATOM      6  C   UNL     1      -3.527  -2.108   0.000  0.00  0.00    +0.018 C 
ATOM      7  C   UNL     1      -3.115  -2.823   0.000  0.00  0.00    +0.003 C 
ATOM      8  C   UNL     1      -2.299  -2.946   0.000  0.00  0.00    +0.022 C 
ATOM      9  C   UNL     1      -1.694  -2.385   0.000  0.00  0.00    +0.095 C 
ATOM     10  N   UNL     1      -0.327  -1.562   0.000  0.00  0.00    -0.188 NA
ENDROOT
BRANCH   5  11
ATOM     11  N   UNL     1      -3.787  -0.736   0.000  0.00  0.00    -0.272 NA
ATOM     12  C   UNL     1      -3.628   0.074   0.000  0.00  0.00    +0.072 C 
ATOM     13  C   UNL     1      -4.348   0.476   0.000  0.00  0.00    +0.019 C 
ATOM     14  C   UNL     1      -4.953  -0.086   0.000  0.00  0.00    +0.019 C 
ATOM     15  C   UNL     1      -4.606  -0.834   0.000  0.00  0.00    +0.072 C 
ENDBRANCH   5  11
BRANCH  10  16
ATOM     16  C   UNL     1       0.388  -1.149   0.000  0.00  0.00    +0.122 C 
BRANCH  16  17
ATOM     17  C   UNL     1       1.102  -1.562   0.000  0.00  0.00    +0.051 C 
BRANCH  17  18
ATOM     18  C   UNL     1       1.817  -1.149   0.000  0.00  0.00    -0.001 A 
ATOM     19  C   UNL     1       2.531  -1.562   0.000  0.00  0.00    +0.095 A 
ATOM     20  N   UNL     1       3.245  -1.149   0.000  0.00  0.00    -0.243 NA
ATOM     21  C   UNL     1       3.245  -0.324   0.000  0.00  0.00    +0.099 A 
ATOM     22  C   UNL     1       2.531   0.088   0.000  0.00  0.00    +0.020 A 
ATOM     23  C   UNL     1       1.817  -0.324   0.000  0.00  0.00    -0.001 A 
ENDBRANCH  17  18
ENDBRANCH  16  17
ENDBRANCH  10  16
TORSDOF 4
