REMARK  Name = 
REMARK  4 active torsions:
REMARK  status: ('A' for Active; 'I' for Inactive)
REMARK    1  A    between atoms: C_2  and  C_3
REMARK    2  A    between atoms: C_3  and  N_6
REMARK    3  A    between atoms: C_7  and  C_9
REMARK    4  A    between atoms: C_9  and  C_10
REMARK                            x       y       z     vdW  Elec       q    Type
REMARK                         _______ _______ _______ _____ _____    ______ ____
ROOT
ATOM      1  C   UNL     1       1.256  -1.005   0.000  0.00  0.00    +0.077 A 
ATOM      2  N   UNL     1       0.589  -1.490   0.000  0.00  0.00    -0.228 NA
ATOM      3  C   UNL     1       0.844  -2.275   0.000  0.00  0.00    +0.170 A 
ATOM      4  N   UNL     1       0.359  -2.942   0.000  0.00  0.00    -0.220 N 
ATOM      5  C   UNL     1      -0.466  -2.942   0.000  0.00  0.00    +0.329 C 
ATOM      6  O   UNL     1      -0.951  -2.275   0.000  0.00  0.00    -0.250 OA
ATOM      7  N   UNL     1      -0.721  -3.727   0.000  0.00  0.00    -0.186 NA
ATOM      8  C   UNL     1      -0.053  -4.212   0.000  0.00  0.00    +0.139 C 
ATOM      9  C   UNL     1       0.614  -3.727   0.000  0.00  0.00    +0.125 C 
ATOM     10  S   UNL     1       1.669  -2.275   0.000  0.00  0.00    -0.051 S 
ATOM     11  C   UNL     1       1.924  -1.490   0.000  0.00  0.00    +0.053 A 
ENDROOT
BRANCH   1  12
ATOM     12  C   UNL     1       1.256  -0.180   0.000  0.00  0.00    +0.133 C 
BRANCH  12  14
ATOM     13  N   UNL     1       1.971   1.057   0.000  0.00  0.00    -0.209 NA
ATOM     14  C   UNL     1       1.971   0.232   0.000  0.00  0.00    +0.247 C 
ATOM     15  O   UNL     1       2.685  -0.180   0.000  0.00  0.00    -0.273 OA
BRANCH  13  16
ATOM     16  C   UNL     1       2.685   1.470   0.000  0.00  0.00    +0.079 C 
ATOM     17  C   UNL     1       3.098   0.755   0.000  0.00  0.00    +0.022 C 
ATOM     18  C   UNL     1       2.273   2.184   0.000  0.00  0.00    +0.022 C 
BRANCH  16  20
ATOM     19  C   UNL     1       3.400   2.707   0.000  0.00  0.00    +0.002 C 
ATOM     20  C   UNL     1       3.400   1.882   0.000  0.00  0.00    +0.020 C 
ENDBRANCH  16  20
ENDBRANCH  13  16
ENDBRANCH  12  14
ENDBRANCH   1  12
TORSDOF 4
