REMARK  Name = 
REMARK  3 active torsions:
REMARK  status: ('A' for Active; 'I' for Inactive)
REMARK    1  A    between atoms: O_2  and  C_3
REMARK    2  A    between atoms: C_3  and  C_4
REMARK    3  A    between atoms: C_4  and  N_5
REMARK                            x       y       z     vdW  Elec       q    Type
REMARK                         _______ _______ _______ _____ _____    ______ ____
ROOT
ATOM      1  C   UNL     1      -1.061  -1.650   0.000  0.00  0.00    +0.141 C 
ENDROOT
BRANCH   1   2
ATOM      2  N   UNL     1      -0.778  -0.875   0.000  0.00  0.00    -0.218 NA
ATOM      3  C   UNL     1      -1.309  -0.243   0.000  0.00  0.00    +0.147 A 
ATOM      4  N   UNL     1      -1.027   0.532   0.000  0.00  0.00    -0.234 NA
ATOM      5  C   UNL     1      -1.557   1.165   0.000  0.00  0.00    +0.061 A 
ATOM      6  C   UNL     1      -1.275   1.940   0.000  0.00  0.00    +0.052 C 
ATOM      7  C   UNL     1      -2.369   1.021   0.000  0.00  0.00    +0.015 A 
ATOM      8  C   UNL     1      -2.651   0.246   0.000  0.00  0.00    +0.004 A 
ATOM      9  C   UNL     1      -2.121  -0.386   0.000  0.00  0.00    +0.036 A 
ENDBRANCH   1   2
BRANCH   1  10
ATOM     10  C   UNL     1      -0.530  -2.282   0.000  0.00  0.00    +0.118 C 
ATOM     11  C   UNL     1      -1.245  -2.695   0.000  0.00  0.00    +0.061 C 
ATOM     12  C   UNL     1      -1.245  -3.519   0.000  0.00  0.00    +0.145 C 
ATOM     13  O   UNL     1      -0.530  -3.932   0.000  0.00  0.00    -0.354 OA
ATOM     14  C   UNL     1       0.184  -3.519   0.000  0.00  0.00    +0.145 C 
ATOM     15  C   UNL     1       0.184  -2.695   0.000  0.00  0.00    +0.061 C 
BRANCH  10  17
ATOM     16  C   UNL     1       0.812  -1.793   0.000  0.00  0.00    +0.174 C 
ATOM     17  O   UNL     1       0.000  -1.650   0.000  0.00  0.00    -0.354 OA
ENDBRANCH  10  17
ENDBRANCH   1  10
TORSDOF 3
