REMARK  Name = 
REMARK  1 active torsions:
REMARK  status: ('A' for Active; 'I' for Inactive)
REMARK    1  A    between atoms: N_3  and  C_4
REMARK                            x       y       z     vdW  Elec       q    Type
REMARK                         _______ _______ _______ _____ _____    ______ ____
ROOT
ATOM      1  O   UNL     1      -3.398  -1.289   0.000  0.00  0.00    -0.249 OA
ATOM      2  C   UNL     1      -2.684  -0.877   0.000  0.00  0.00    +0.345 C 
ATOM      3  N   UNL     1      -1.970  -1.289   0.000  0.00  0.00    -0.134 NA
ATOM      4  C   UNL     1      -1.970  -2.114   0.000  0.00  0.00    +0.209 A 
ATOM      5  S   UNL     1      -2.637  -2.599   0.000  0.00  0.00    -0.027 S 
ATOM      6  C   UNL     1      -2.382  -3.384   0.000  0.00  0.00    +0.161 A 
ATOM      7  N   UNL     1      -1.557  -3.384   0.000  0.00  0.00    -0.137 NA
ATOM      8  N   UNL     1      -1.302  -2.599   0.000  0.00  0.00    -0.123 NA
ATOM      9  N   UNL     1      -2.684  -0.052   0.000  0.00  0.00    -0.189 NA
ENDROOT
BRANCH   9  10
ATOM     10  C   UNL     1      -3.398   0.361   0.000  0.00  0.00    +0.097 C 
ATOM     11  C   UNL     1      -3.337   1.183   0.000  0.00  0.00    +0.022 C 
ATOM     12  C   UNL     1      -3.942   1.744   0.000  0.00  0.00    +0.002 C 
ATOM     13  C   UNL     1      -4.757   1.621   0.000  0.00  0.00    +0.000 C 
ATOM     14  C   UNL     1      -5.170   0.907   0.000  0.00  0.00    +0.000 C 
ATOM     15  C   UNL     1      -4.868   0.139   0.000  0.00  0.00    +0.002 C 
ATOM     16  C   UNL     1      -4.080  -0.104   0.000  0.00  0.00    +0.022 C 
ENDBRANCH   9  10
TORSDOF 1
