REMARK  Name = 
REMARK  4 active torsions:
REMARK  status: ('A' for Active; 'I' for Inactive)
REMARK    1  A    between atoms: C_8  and  C_9
REMARK    2  A    between atoms: C_9  and  C_10
REMARK    3  A    between atoms: N_12  and  C_13
REMARK    4  A    between atoms: C_13  and  C_14
REMARK                            x       y       z     vdW  Elec       q    Type
REMARK                         _______ _______ _______ _____ _____    ______ ____
ROOT
ATOM      1  C   UNL     1      -0.707  -1.849   0.000  0.00  0.00    +0.246 C 
ATOM      2  N   UNL     1       0.007  -1.436   0.000  0.00  0.00    -0.202 NA
ATOM      3  O   UNL     1      -0.707  -2.674   0.000  0.00  0.00    -0.273 OA
ENDROOT
BRANCH   1   4
ATOM      4  C   UNL     1      -1.421  -1.436   0.000  0.00  0.00    +0.115 C 
BRANCH   4   7
ATOM      5  C   UNL     1      -1.609  -3.221   0.000  0.00  0.00    +0.054 C 
ATOM      6  C   UNL     1      -2.222  -2.669   0.000  0.00  0.00    +0.077 A 
ATOM      7  C   UNL     1      -2.136  -1.849   0.000  0.00  0.00    +0.015 A 
ATOM      8  C   UNL     1      -2.890  -1.513   0.000  0.00  0.00    +0.054 A 
ATOM      9  C   UNL     1      -3.061  -0.706   0.000  0.00  0.00    +0.051 C 
ATOM     10  N   UNL     1      -3.442  -2.126   0.000  0.00  0.00    -0.253 N 
ATOM     11  C   UNL     1      -4.262  -2.040   0.000  0.00  0.00    +0.153 C 
ATOM     12  N   UNL     1      -3.029  -2.841   0.000  0.00  0.00    -0.174 NA
ENDBRANCH   4   7
ENDBRANCH   1   4
BRANCH   2  13
ATOM     13  C   UNL     1       0.722  -1.849   0.000  0.00  0.00    +0.146 C 
BRANCH  13  14
ATOM     14  C   UNL     1       1.436  -1.436   0.000  0.00  0.00    +0.157 C 
ATOM     15  C   UNL     1       2.221  -1.181   0.000  0.00  0.00    +0.090 C 
ATOM     16  S   UNL     1       2.221  -0.356   0.000  0.00  0.00    -0.138 S 
ATOM     17  C   UNL     1       1.436  -0.101   0.000  0.00  0.00    +0.060 C 
ATOM     18  C   UNL     1       0.952  -0.769   0.000  0.00  0.00    +0.045 C 
ATOM     19  O   UNL     1       1.772  -2.190   0.000  0.00  0.00    -0.223 OA
ENDBRANCH  13  14
ENDBRANCH   2  13
TORSDOF 4
