REMARK  Name = 
REMARK  3 active torsions:
REMARK  status: ('A' for Active; 'I' for Inactive)
REMARK    1  A    between atoms: C_2  and  C_3
REMARK    2  A    between atoms: C_3  and  N_4
REMARK    3  A    between atoms: N_12  and  C_13
REMARK                            x       y       z     vdW  Elec       q    Type
REMARK                         _______ _______ _______ _____ _____    ______ ____
ROOT
ATOM      1  O   UNL     1       3.521  -2.156   0.000  0.00  0.00    -0.271 OA
ATOM      2  C   UNL     1       2.807  -1.744   0.000  0.00  0.00    +0.265 C 
ATOM      3  N   UNL     1       2.807  -0.919   0.000  0.00  0.00    -0.206 NA
ENDROOT
BRANCH   3   4
ATOM      4  C   UNL     1       3.521  -0.506   0.000  0.00  0.00    +0.095 C 
ATOM      5  C   UNL     1       4.203  -0.971   0.000  0.00  0.00    +0.022 C 
ATOM      6  C   UNL     1       4.991  -0.728   0.000  0.00  0.00    +0.002 C 
ATOM      7  C   UNL     1       5.293   0.040   0.000  0.00  0.00    +0.000 C 
ATOM      8  C   UNL     1       4.880   0.754   0.000  0.00  0.00    +0.000 C 
ATOM      9  C   UNL     1       4.064   0.877   0.000  0.00  0.00    +0.002 C 
ATOM     10  C   UNL     1       3.459   0.316   0.000  0.00  0.00    +0.022 C 
ENDBRANCH   3   4
BRANCH   2  11
ATOM     11  C   UNL     1       2.092  -2.156   0.000  0.00  0.00    +0.197 C 
BRANCH  11  12
ATOM     12  N   UNL     1       2.092  -2.981   0.000  0.00  0.00    -0.269 N 
ATOM     13  C   UNL     1       1.378  -3.394   0.000  0.00  0.00    +0.353 A 
ATOM     14  O   UNL     1       0.663  -2.981   0.000  0.00  0.00    -0.244 OA
ATOM     15  N   UNL     1       1.378  -4.219   0.000  0.00  0.00    -0.153 NA
ATOM     16  C   UNL     1       2.092  -4.631   0.000  0.00  0.00    +0.285 A 
ATOM     17  O   UNL     1       2.092  -5.456   0.000  0.00  0.00    -0.265 OA
ATOM     18  C   UNL     1       2.807  -4.219   0.000  0.00  0.00    +0.081 A 
ATOM     19  C   UNL     1       2.807  -3.394   0.000  0.00  0.00    +0.085 A 
ENDBRANCH  11  12
ENDBRANCH   2  11
TORSDOF 3
