REMARK  Name = 
REMARK  4 active torsions:
REMARK  status: ('A' for Active; 'I' for Inactive)
REMARK    1  A    between atoms: C_2  and  C_12
REMARK    2  A    between atoms: N_3  and  C_4
REMARK    3  A    between atoms: C_4  and  C_5
REMARK    4  A    between atoms: C_5  and  C_6
REMARK                            x       y       z     vdW  Elec       q    Type
REMARK                         _______ _______ _______ _____ _____    ______ ____
ROOT
ATOM      1  C   UNL     1       2.143  -0.412   0.000  0.00  0.00    +0.091 A 
ATOM      2  C   UNL     1       1.429   0.000   0.000  0.00  0.00    +0.169 A 
ATOM      3  N   UNL     1       0.715  -0.412   0.000  0.00  0.00    -0.308 N 
ATOM      4  C   UNL     1       0.000   0.000   0.000  0.00  0.00    +0.135 C 
ATOM      5  C   UNL     1       0.000   0.825   0.000  0.00  0.00    +0.201 C 
ATOM      6  S   UNL     1       0.715   1.238   0.000  0.00  0.00    +0.084 S 
ATOM      7  O   UNL     1       1.245   1.869   0.000  0.00  0.00    -0.151 OA
ATOM      8  O   UNL     1       0.184   1.869   0.000  0.00  0.00    -0.151 OA
ATOM      9  C   UNL     1       0.715  -1.238   0.000  0.00  0.00    +0.077 A 
ATOM     10  C   UNL     1       1.429  -1.650   0.000  0.00  0.00    +0.019 A 
ATOM     11  N   UNL     1       1.429   0.825   0.000  0.00  0.00    -0.114 NA
ATOM     12  C   UNL     1       2.143  -1.238   0.000  0.00  0.00    +0.009 A 
ENDROOT
BRANCH   1  14
ATOM     13  O   UNL     1       2.858   0.825   0.000  0.00  0.00    -0.268 OA
ATOM     14  C   UNL     1       2.858   0.000   0.000  0.00  0.00    +0.268 C 
ATOM     15  N   UNL     1       3.572  -0.412   0.000  0.00  0.00    -0.201 NA
BRANCH  15  16
ATOM     16  C   UNL     1       4.287   0.000   0.000  0.00  0.00    +0.122 C 
BRANCH  16  17
ATOM     17  C   UNL     1       5.001  -0.412   0.000  0.00  0.00    +0.069 C 
BRANCH  17  18
ATOM     18  C   UNL     1       5.716   0.000   0.000  0.00  0.00    +0.061 A 
ATOM     19  N   UNL     1       6.430  -0.412   0.000  0.00  0.00    -0.248 NA
ATOM     20  C   UNL     1       7.145   0.000   0.000  0.00  0.00    +0.098 A 
ATOM     21  C   UNL     1       7.145   0.825   0.000  0.00  0.00    +0.021 A 
ATOM     22  C   UNL     1       6.430   1.238   0.000  0.00  0.00    +0.003 A 
ATOM     23  C   UNL     1       5.716   0.825   0.000  0.00  0.00    +0.015 A 
ENDBRANCH  17  18
ENDBRANCH  16  17
ENDBRANCH  15  16
ENDBRANCH   1  14
TORSDOF 4
