REMARK  Name = 
REMARK  7 active torsions:
REMARK  status: ('A' for Active; 'I' for Inactive)
REMARK    1  A    between atoms: C_2  and  C_4
REMARK    2  A    between atoms: C_4  and  C_5
REMARK    3  A    between atoms: C_5  and  C_7
REMARK    4  A    between atoms: C_7  and  N_8
REMARK    5  A    between atoms: C_9  and  C_11
REMARK    6  A    between atoms: C_11  and  C_12
REMARK    7  A    between atoms: C_15  and  C_17
REMARK                            x       y       z     vdW  Elec       q    Type
REMARK                         _______ _______ _______ _____ _____    ______ ____
ROOT
ATOM      1  N   UNL     1       3.006  -5.233   0.000  0.00  0.00    -0.205 NA
ATOM      2  C   UNL     1       3.721  -4.820   0.000  0.00  0.00    +0.247 C 
ATOM      3  O   UNL     1       3.721  -3.995   0.000  0.00  0.00    -0.273 OA
ENDROOT
BRANCH   1   4
ATOM      4  C   UNL     1       2.292  -4.820   0.000  0.00  0.00    +0.115 C 
BRANCH   4   5
ATOM      5  C   UNL     1       1.577  -5.233   0.000  0.00  0.00    +0.024 C 
ATOM      6  C   UNL     1       1.577  -6.058   0.000  0.00  0.00    +0.002 C 
BRANCH   5   7
ATOM      7  C   UNL     1       0.863  -4.820   0.000  0.00  0.00    +0.035 C 
BRANCH   7   9
ATOM      8  C   UNL     1      -0.566  -4.820   0.000  0.00  0.00    +0.035 C 
ATOM      9  C   UNL     1       0.148  -5.233   0.000  0.00  0.00    +0.152 C 
ATOM     10  O   UNL     1       0.148  -6.058   0.000  0.00  0.00    -0.223 OA
ENDBRANCH   7   9
ENDBRANCH   5   7
ENDBRANCH   4   5
ENDBRANCH   1   4
BRANCH   2  11
ATOM     11  C   UNL     1       4.435  -5.233   0.000  0.00  0.00    +0.133 C 
BRANCH  11  12
ATOM     12  C   UNL     1       5.150  -4.820   0.000  0.00  0.00    +0.075 A 
ATOM     13  N   UNL     1       5.903  -5.156   0.000  0.00  0.00    -0.247 NA
ATOM     14  C   UNL     1       6.455  -4.543   0.000  0.00  0.00    +0.087 A 
ATOM     15  S   UNL     1       6.043  -3.828   0.000  0.00  0.00    -0.071 S 
ATOM     16  C   UNL     1       5.236  -4.000   0.000  0.00  0.00    +0.052 A 
BRANCH  14  17
ATOM     17  C   UNL     1       7.276  -4.629   0.000  0.00  0.00    +0.041 C 
ATOM     18  C   UNL     1       7.362  -3.808   0.000  0.00  0.00    +0.006 C 
ATOM     19  C   UNL     1       7.189  -5.449   0.000  0.00  0.00    +0.006 C 
ATOM     20  C   UNL     1       8.096  -4.715   0.000  0.00  0.00    +0.006 C 
ENDBRANCH  14  17
ENDBRANCH  11  12
ENDBRANCH   2  11
TORSDOF 7
