REMARK  Name = 
REMARK  7 active torsions:
REMARK  status: ('A' for Active; 'I' for Inactive)
REMARK    1  A    between atoms: CG1_2  and  CB_3
REMARK    2  A    between atoms: CB_3  and  CA_5
REMARK    3  A    between atoms: CA_5  and  N_6
REMARK    4  A    between atoms: CA_5  and  C_18
REMARK    5  A    between atoms: C_7  and  C_9
REMARK    6  A    between atoms: C_9  and  C_10
REMARK    7  A    between atoms: N_13  and  C_15
REMARK                            x       y       z     vdW  Elec       q    Type
REMARK                         _______ _______ _______ _____ _____    ______ ____
ROOT
ATOM      1  N   ILE A   1       1.874  -3.835   0.000  0.00  0.00    -0.195 NA
ATOM      2  C   UNK A   0       2.589  -3.422   0.000  0.00  0.00    +0.248 C 
ATOM      3  O   UNK A   0       2.589  -2.598   0.000  0.00  0.00    -0.273 OA
ENDROOT
BRANCH   1   4
ATOM      4  CA  ILE A   1       1.160  -3.422   0.000  0.00  0.00    +0.198 C 
BRANCH   4   5
ATOM      5  C   ILE A   1       1.160  -2.598   0.000  0.00  0.00    +0.384 C 
ATOM      6  OXT ILE A   1       0.445  -2.185   0.000  0.00  0.00    -0.244 OA
ATOM      7  O   ILE A   1       1.874  -2.185   0.000  0.00  0.00    -0.244 OA
ENDBRANCH   4   5
BRANCH   4   8
ATOM      8  CB  ILE A   1       0.445  -3.835   0.000  0.00  0.00    +0.031 C 
ATOM      9  CG2 ILE A   1       0.445  -4.660   0.000  0.00  0.00    +0.002 C 
BRANCH   8  11
ATOM     10  CD1 ILE A   1      -0.984  -3.835   0.000  0.00  0.00    +0.000 C 
ATOM     11  CG1 ILE A   1      -0.269  -3.422   0.000  0.00  0.00    +0.002 C 
ENDBRANCH   8  11
ENDBRANCH   4   8
ENDBRANCH   1   4
BRANCH   2  12
ATOM     12  C   UNK A   0       3.303  -3.835   0.000  0.00  0.00    +0.134 C 
BRANCH  12  13
ATOM     13  C   UNK A   0       4.018  -3.422   0.000  0.00  0.00    +0.089 A 
ATOM     14  N   UNK A   0       4.771  -3.758   0.000  0.00  0.00    -0.173 NA
ATOM     15  N   UNK A   0       5.323  -3.145   0.000  0.00  0.00    -0.252 N 
ATOM     16  C   UNK A   0       4.911  -2.430   0.000  0.00  0.00    +0.096 A 
ATOM     17  C   UNK A   0       4.104  -2.602   0.000  0.00  0.00    +0.037 A 
BRANCH  15  18
ATOM     18  C   UNK A   0       6.144  -3.231   0.000  0.00  0.00    +0.105 C 
ATOM     19  C   UNK A   0       6.479  -3.985   0.000  0.00  0.00    +0.026 C 
ATOM     20  C   UNK A   0       6.629  -2.564   0.000  0.00  0.00    +0.026 C 
ENDBRANCH  15  18
ENDBRANCH  12  13
ENDBRANCH   2  12
TORSDOF 7
