REMARK  Name = 
REMARK  3 active torsions:
REMARK  status: ('A' for Active; 'I' for Inactive)
REMARK    1  A    between atoms: C_2  and  N_3
REMARK    2  A    between atoms: C_4  and  C_6
REMARK    3  A    between atoms: C_6  and  N_7
REMARK                            x       y       z     vdW  Elec       q    Type
REMARK                         _______ _______ _______ _____ _____    ______ ____
ROOT
ATOM      1  C   UNL     1       2.171  -2.437   0.000  0.00  0.00    +0.214 C 
ENDROOT
BRANCH   1   2
ATOM      2  N   UNL     1       2.886  -2.025   0.000  0.00  0.00    -0.239 N 
ATOM      3  N   UNL     1       3.640  -2.360   0.000  0.00  0.00    -0.150 NA
ATOM      4  C   UNL     1       4.192  -1.747   0.000  0.00  0.00    +0.191 A 
ATOM      5  N   UNL     1       5.012  -1.833   0.000  0.00  0.00    -0.105 NA
ATOM      6  C   UNL     1       3.779  -1.033   0.000  0.00  0.00    +0.060 A 
ATOM      7  C   UNL     1       2.972  -1.204   0.000  0.00  0.00    +0.099 A 
ENDBRANCH   1   2
BRANCH   1   9
ATOM      8  N   UNL     1       0.743  -2.437   0.000  0.00  0.00    -0.204 NA
ATOM      9  C   UNL     1       1.457  -2.025   0.000  0.00  0.00    +0.266 C 
ATOM     10  O   UNL     1       1.457  -1.200   0.000  0.00  0.00    -0.271 OA
BRANCH   8  12
ATOM     11  C   UNL     1      -0.686  -2.437   0.000  0.00  0.00    +0.025 C 
ATOM     12  C   UNL     1       0.028  -2.025   0.000  0.00  0.00    +0.115 C 
ENDBRANCH   8  12
ENDBRANCH   1   9
TORSDOF 3
