REMARK  Name = 
REMARK  4 active torsions:
REMARK  status: ('A' for Active; 'I' for Inactive)
REMARK    1  A    between atoms: C_1  and  C_8
REMARK    2  A    between atoms: N_5  and  C_7
REMARK    3  A    between atoms: N_5  and  C_8
REMARK    4  A    between atoms: N_5  and  C_16
REMARK                            x       y       z     vdW  Elec       q    Type
REMARK                         _______ _______ _______ _____ _____    ______ ____
ROOT
ATOM      1  N   UNL     1      -0.217  -3.742   0.000  0.00  0.00    -0.263 NA
ENDROOT
BRANCH   1   2
ATOM      2  C   UNL     1      -0.217  -2.917   0.000  0.00  0.00    +0.107 C 
ATOM      3  C   UNL     1      -0.883  -2.433   0.000  0.00  0.00    +0.107 C 
ATOM      4  N   UNL     1      -0.629  -1.650   0.000  0.00  0.00    -0.214 NA
ATOM      5  C   UNL     1       0.196  -1.650   0.000  0.00  0.00    +0.123 C 
ATOM      6  C   UNL     1       0.454  -2.433   0.000  0.00  0.00    +0.185 C 
ATOM      7  O   UNL     1       1.238  -2.688   0.000  0.00  0.00    -0.220 OA
ENDBRANCH   1   2
BRANCH   1   8
ATOM      8  C   UNL     1      -0.929  -4.154   0.000  0.00  0.00    +0.073 C 
ATOM      9  C   UNL     1      -1.646  -3.742   0.000  0.00  0.00    +0.019 C 
ENDBRANCH   1   8
BRANCH   1  10
ATOM     10  C   UNL     1       0.500  -4.154   0.000  0.00  0.00    +0.160 C 
BRANCH  10  11
ATOM     11  C   UNL     1       0.500  -4.979   0.000  0.00  0.00    +0.242 A 
ATOM     12  O   UNL     1      -0.167  -5.467   0.000  0.00  0.00    -0.422 OA
ATOM     13  C   UNL     1       0.087  -6.250   0.000  0.00  0.00    +0.227 A 
ATOM     14  N   UNL     1       0.912  -6.250   0.000  0.00  0.00    -0.112 NA
ATOM     15  C   UNL     1      -0.400  -6.917   0.000  0.00  0.00    +0.097 C 
ATOM     16  N   UNL     1       1.167  -5.467   0.000  0.00  0.00    -0.110 NA
ENDBRANCH  10  11
ENDBRANCH   1  10
TORSDOF 4
REMARK  Name = 
REMARK  4 active torsions:
REMARK  status: ('A' for Active; 'I' for Inactive)
REMARK    1  A    between atoms: C_1  and  C_8
REMARK    2  A    between atoms: N_5  and  C_7
REMARK    3  A    between atoms: N_5  and  C_8
REMARK    4  A    between atoms: N_5  and  C_16
REMARK                            x       y       z     vdW  Elec       q    Type
REMARK                         _______ _______ _______ _____ _____    ______ ____
ROOT
ATOM      1 CL   UNL     1       2.000   0.000   0.000  0.00  0.00    +0.000 Cl
ENDROOT
TORSDOF 0
REMARK  Name = 
REMARK  4 active torsions:
REMARK  status: ('A' for Active; 'I' for Inactive)
REMARK    1  A    between atoms: C_1  and  C_8
REMARK    2  A    between atoms: N_5  and  C_7
REMARK    3  A    between atoms: N_5  and  C_8
REMARK    4  A    between atoms: N_5  and  C_16
REMARK                            x       y       z     vdW  Elec       q    Type
REMARK                         _______ _______ _______ _____ _____    ______ ____
ROOT
ATOM      1 CL   UNL     1       0.000   0.000   0.000  0.00  0.00    +0.000 Cl
ENDROOT
TORSDOF 0
