REMARK  Name = 
REMARK  3 active torsions:
REMARK  status: ('A' for Active; 'I' for Inactive)
REMARK    1  A    between atoms: O_2  and  C_3
REMARK    2  A    between atoms: C_3  and  C_4
REMARK    3  A    between atoms: C_4  and  N_5
REMARK                            x       y       z     vdW  Elec       q    Type
REMARK                         _______ _______ _______ _____ _____    ______ ____
ROOT
ATOM      1  N   UNL     1       1.139  -1.365   0.000  0.00  0.00    -0.290 N 
ATOM      2  C   UNL     1       1.923  -1.110   0.000  0.00  0.00    +0.154 A 
ATOM      3  C   UNL     1       1.923  -0.285   0.000  0.00  0.00    +0.171 A 
ATOM      4  N   UNL     1       2.638   0.127   0.000  0.00  0.00    -0.263 N 
ATOM      5  C   UNL     1       3.352  -0.285   0.000  0.00  0.00    +0.335 A 
ATOM      6  N   UNL     1       3.352  -1.110   0.000  0.00  0.00    -0.245 N 
ATOM      7  C   UNL     1       4.067  -1.523   0.000  0.00  0.00    +0.138 C 
ATOM      8  O   UNL     1       4.067   0.127   0.000  0.00  0.00    -0.246 OA
ATOM      9  C   UNL     1       2.638   0.952   0.000  0.00  0.00    +0.137 C 
ATOM     10  N   UNL     1       1.139  -0.030   0.000  0.00  0.00    -0.193 NA
ATOM     11  C   UNL     1       2.638  -1.523   0.000  0.00  0.00    +0.283 A 
ATOM     12  O   UNL     1       2.638  -2.348   0.000  0.00  0.00    -0.265 OA
ATOM     13  C   UNL     1       0.654  -0.698   0.000  0.00  0.00    +0.237 A 
ATOM     14  N   UNL     1      -0.171  -0.698   0.000  0.00  0.00    -0.092 NA
ATOM     15  N   UNL     1      -0.584   0.017   0.000  0.00  0.00    +0.007 NA
ENDROOT
BRANCH   1  16
ATOM     16  C   UNL     1       0.884  -2.150   0.000  0.00  0.00    +0.141 C 
BRANCH  16  17
ATOM     17  C   UNL     1       0.077  -2.321   0.000  0.00  0.00    +0.167 C 
BRANCH  17  19
ATOM     18  C   UNL     1      -0.985  -3.278   0.000  0.00  0.00    +0.174 C 
ATOM     19  O   UNL     1      -0.178  -3.106   0.000  0.00  0.00    -0.349 OA
ENDBRANCH  17  19
ENDBRANCH  16  17
ENDBRANCH   1  16
TORSDOF 3
