REMARK  Name = 
REMARK  4 active torsions:
REMARK  status: ('A' for Active; 'I' for Inactive)
REMARK    1  A    between atoms: N_3  and  C_4
REMARK    2  A    between atoms: C_4  and  C_5
REMARK    3  A    between atoms: N_10  and  C_11
REMARK    4  A    between atoms: C_16  and  N_17
REMARK                            x       y       z     vdW  Elec       q    Type
REMARK                         _______ _______ _______ _____ _____    ______ ____
ROOT
ATOM      1  C   UNL     1       2.143  -2.062   0.000  0.00  0.00    +0.106 A 
ATOM      2  C   UNL     1       2.858  -2.475   0.000  0.00  0.00    +0.147 A 
ATOM      3  N   UNL     1       3.572  -2.062   0.000  0.00  0.00    -0.228 NA
ATOM      4  C   UNL     1       3.572  -1.238   0.000  0.00  0.00    +0.100 A 
ATOM      5  C   UNL     1       2.858  -0.825   0.000  0.00  0.00    +0.022 A 
ATOM      6  C   UNL     1       2.143  -1.238   0.000  0.00  0.00    +0.021 A 
ENDROOT
BRANCH   2   7
ATOM      7  N   UNL     1       2.858  -3.300   0.000  0.00  0.00    -0.292 N 
ATOM      8  C   UNL     1       2.190  -3.785   0.000  0.00  0.00    +0.092 C 
ATOM      9  C   UNL     1       2.445  -4.569   0.000  0.00  0.00    +0.023 C 
ATOM     10  C   UNL     1       3.270  -4.569   0.000  0.00  0.00    +0.023 C 
ATOM     11  C   UNL     1       3.525  -3.785   0.000  0.00  0.00    +0.092 C 
ENDBRANCH   2   7
BRANCH   1  14
ATOM     12  O   UNL     1       0.715  -1.238   0.000  0.00  0.00    -0.249 OA
ATOM     13  C   UNL     1       0.715  -2.062   0.000  0.00  0.00    +0.344 C 
ATOM     14  N   UNL     1       1.429  -2.475   0.000  0.00  0.00    -0.158 NA
ATOM     15  N   UNL     1       0.000  -2.475   0.000  0.00  0.00    -0.184 NA
BRANCH  15  16
ATOM     16  C   UNL     1      -0.715  -2.062   0.000  0.00  0.00    +0.146 C 
BRANCH  16  17
ATOM     17  C   UNL     1      -1.429  -2.475   0.000  0.00  0.00    +0.137 C 
ATOM     18  O   UNL     1      -2.183  -2.139   0.000  0.00  0.00    -0.354 OA
ATOM     19  C   UNL     1      -2.735  -2.752   0.000  0.00  0.00    +0.142 C 
ATOM     20  C   UNL     1      -2.322  -3.467   0.000  0.00  0.00    +0.035 C 
ATOM     21  C   UNL     1      -1.515  -3.296   0.000  0.00  0.00    +0.034 C 
ENDBRANCH  16  17
ENDBRANCH  15  16
ENDBRANCH   1  14
TORSDOF 4
