REMARK  Name = 
REMARK  4 active torsions:
REMARK  status: ('A' for Active; 'I' for Inactive)
REMARK    1  A    between atoms: C_2  and  C_3
REMARK    2  A    between atoms: C_3  and  N_4
REMARK    3  A    between atoms: N_10  and  C_11
REMARK    4  A    between atoms: C_11  and  C_12
REMARK                            x       y       z     vdW  Elec       q    Type
REMARK                         _______ _______ _______ _____ _____    ______ ____
ROOT
ATOM      1  O   UNL     1       2.102  -1.171   0.000  0.00  0.00    -0.271 OA
ATOM      2  C   UNL     1       2.102  -1.996   0.000  0.00  0.00    +0.266 C 
ATOM      3  N   UNL     1       2.816  -2.408   0.000  0.00  0.00    -0.201 NA
ENDROOT
BRANCH   3   4
ATOM      4  C   UNL     1       3.530  -1.996   0.000  0.00  0.00    +0.145 C 
BRANCH   4   5
ATOM      5  C   UNL     1       4.245  -2.408   0.000  0.00  0.00    +0.137 C 
ATOM      6  O   UNL     1       4.331  -3.229   0.000  0.00  0.00    -0.354 OA
ATOM      7  C   UNL     1       5.138  -3.400   0.000  0.00  0.00    +0.142 C 
ATOM      8  C   UNL     1       5.551  -2.686   0.000  0.00  0.00    +0.035 C 
ATOM      9  C   UNL     1       4.999  -2.073   0.000  0.00  0.00    +0.034 C 
ENDBRANCH   4   5
ENDBRANCH   3   4
BRANCH   2  10
ATOM     10  C   UNL     1       1.387  -2.408   0.000  0.00  0.00    +0.217 C 
BRANCH  10  11
ATOM     11  N   UNL     1       0.672  -1.996   0.000  0.00  0.00    -0.201 N 
ATOM     12  C   UNL     1       0.586  -1.175   0.000  0.00  0.00    +0.310 A 
ATOM     13  O   UNL     1       1.199  -0.623   0.000  0.00  0.00    -0.258 OA
ATOM     14  S   UNL     1      -0.221  -1.004   0.000  0.00  0.00    -0.003 S 
ATOM     15  C   UNL     1      -0.633  -1.718   0.000  0.00  0.00    +0.160 A 
ATOM     16  N   UNL     1      -0.081  -2.331   0.000  0.00  0.00    -0.157 NA
ENDBRANCH  10  11
ENDBRANCH   2  10
TORSDOF 4
