REMARK  Name = 
REMARK  5 active torsions:
REMARK  status: ('A' for Active; 'I' for Inactive)
REMARK    1  A    between atoms: C_2  and  C_5
REMARK    2  A    between atoms: C_8  and  C_9
REMARK    3  A    between atoms: C_9  and  C_10
REMARK    4  A    between atoms: C_10  and  N_11
REMARK    5  A    between atoms: C_12  and  C_14
REMARK                            x       y       z     vdW  Elec       q    Type
REMARK                         _______ _______ _______ _____ _____    ______ ____
ROOT
ATOM      1  C   UNL     1       0.715  -2.888   0.000  0.00  0.00    +0.076 C 
ENDROOT
BRANCH   1   4
ATOM      2  C   UNL     1      -1.306  -2.197   0.000  0.00  0.00    +0.065 A 
ATOM      3  N   UNL     1      -0.754  -2.811   0.000  0.00  0.00    -0.247 NA
ATOM      4  C   UNL     1       0.000  -2.475   0.000  0.00  0.00    +0.090 A 
ATOM      5  S   UNL     1      -0.086  -1.655   0.000  0.00  0.00    -0.071 S 
ATOM      6  C   UNL     1      -0.893  -1.483   0.000  0.00  0.00    +0.051 A 
BRANCH   2   8
ATOM      7  C   UNL     1      -2.947  -2.370   0.000  0.00  0.00    +0.006 C 
ATOM      8  C   UNL     1      -2.126  -2.284   0.000  0.00  0.00    +0.036 C 
ATOM      9  C   UNL     1      -2.212  -1.463   0.000  0.00  0.00    +0.006 C 
ATOM     10  C   UNL     1      -2.040  -3.104   0.000  0.00  0.00    +0.006 C 
ENDBRANCH   2   8
ENDBRANCH   1   4
BRANCH   1  11
ATOM     11  C   UNL     1       1.429  -2.475   0.000  0.00  0.00    +0.122 C 
BRANCH  11  12
ATOM     12  N   UNL     1       2.143  -2.888   0.000  0.00  0.00    -0.205 NA
ATOM     13  C   UNL     1       2.858  -2.475   0.000  0.00  0.00    +0.241 C 
ATOM     14  O   UNL     1       2.858  -1.650   0.000  0.00  0.00    -0.273 OA
BRANCH  13  15
ATOM     15  C   UNL     1       3.572  -2.888   0.000  0.00  0.00    +0.083 C 
ATOM     16  C   UNL     1       3.572  -3.712   0.000  0.00  0.00    +0.035 C 
ATOM     17  C   UNL     1       4.287  -4.125   0.000  0.00  0.00    -0.030 C 
ATOM     18  C   UNL     1       5.001  -3.712   0.000  0.00  0.00    -0.031 C 
ATOM     19  C   UNL     1       5.001  -2.888   0.000  0.00  0.00    +0.026 C 
ATOM     20  C   UNL     1       4.287  -2.475   0.000  0.00  0.00    +0.014 C 
ENDBRANCH  13  15
ENDBRANCH  11  12
ENDBRANCH   1  11
TORSDOF 5
