REMARK  Name = 
REMARK  7 active torsions:
REMARK  status: ('A' for Active; 'I' for Inactive)
REMARK    1  A    between atoms: C_2  and  C_3
REMARK    2  A    between atoms: C_3  and  C_4
REMARK    3  A    between atoms: C_3  and  C_6
REMARK    4  A    between atoms: C_3  and  C_19
REMARK    5  A    between atoms: C_6  and  N_7
REMARK    6  A    between atoms: C_8  and  C_10
REMARK    7  A    between atoms: C_10  and  C_12
REMARK                            x       y       z     vdW  Elec       q    Type
REMARK                         _______ _______ _______ _____ _____    ______ ____
ROOT
ATOM      1  N   UNL     1      -0.147   3.177   0.000  0.00  0.00    -0.205 NA
ATOM      2  C   UNL     1      -0.147   2.352   0.000  0.00  0.00    +0.245 C 
ATOM      3  O   UNL     1      -0.861   1.939   0.000  0.00  0.00    -0.273 OA
ENDROOT
BRANCH   2   4
ATOM      4  C   UNL     1       0.568   1.939   0.000  0.00  0.00    +0.104 C 
ATOM      5  C   UNL     1       1.282   2.352   0.000  0.00  0.00    +0.015 C 
BRANCH   4   6
ATOM      6  C   UNL     1       0.568   1.114   0.000  0.00  0.00    +0.036 A 
ATOM      7  C   UNL     1      -0.100   0.629   0.000  0.00  0.00    +0.151 A 
ATOM      8  C   UNL     1      -0.884   0.884   0.000  0.00  0.00    +0.075 C 
ATOM      9  O   UNL     1       0.155  -0.155   0.000  0.00  0.00    -0.358 OA
ATOM     10  N   UNL     1       0.980  -0.155   0.000  0.00  0.00    -0.082 NA
ATOM     11  C   UNL     1       1.235   0.629   0.000  0.00  0.00    +0.097 A 
ATOM     12  C   UNL     1       2.020   0.884   0.000  0.00  0.00    +0.055 C 
ENDBRANCH   4   6
ENDBRANCH   2   4
BRANCH   1  13
ATOM     13  C   UNL     1      -0.861   3.589   0.000  0.00  0.00    +0.126 C 
BRANCH  13  14
ATOM     14  C   UNL     1      -0.861   4.414   0.000  0.00  0.00    +0.114 C 
BRANCH  14  15
ATOM     15  C   UNL     1      -0.036   4.414   0.000  0.00  0.00    +0.365 C 
ATOM     16  O   UNL     1       0.376   5.129   0.000  0.00  0.00    -0.246 OA
ATOM     17  O   UNL     1       0.376   3.700   0.000  0.00  0.00    -0.246 OA
ENDBRANCH  14  15
BRANCH  14  19
ATOM     18  C   UNL     1      -1.576   5.652   0.000  0.00  0.00    +0.001 C 
ATOM     19  C   UNL     1      -0.861   5.239   0.000  0.00  0.00    +0.012 C 
ENDBRANCH  14  19
BRANCH  14  20
ATOM     20  C   UNL     1      -1.686   4.414   0.000  0.00  0.00    +0.012 C 
ATOM     21  C   UNL     1      -2.099   3.700   0.000  0.00  0.00    +0.001 C 
ENDBRANCH  14  20
ENDBRANCH  13  14
ENDBRANCH   1  13
TORSDOF 7
