REMARK  Name = 
REMARK  6 active torsions:
REMARK  status: ('A' for Active; 'I' for Inactive)
REMARK    1  A    between atoms: C_2  and  O_3
REMARK    2  A    between atoms: C_2  and  C_11
REMARK    3  A    between atoms: O_3  and  C_4
REMARK    4  A    between atoms: C_4  and  C_5
REMARK    5  A    between atoms: N_13  and  C_14
REMARK    6  A    between atoms: C_16  and  C_21
REMARK                            x       y       z     vdW  Elec       q    Type
REMARK                         _______ _______ _______ _____ _____    ______ ____
ROOT
ATOM      1  C   UNL     1       4.287  -4.125   0.000  0.00  0.00    +0.273 C 
ATOM      2  N   UNL     1       5.001  -3.712   0.000  0.00  0.00    -0.172 NA
ATOM      3  O   UNL     1       4.287  -4.950   0.000  0.00  0.00    -0.270 OA
ENDROOT
BRANCH   2   4
ATOM      4  C   UNL     1       5.716  -4.125   0.000  0.00  0.00    +0.131 A 
ATOM      5  C   UNL     1       5.716  -4.950   0.000  0.00  0.00    +0.295 A 
ATOM      6  O   UNL     1       5.001  -5.362   0.000  0.00  0.00    -0.264 OA
ATOM      7  N   UNL     1       6.430  -5.362   0.000  0.00  0.00    -0.205 NA
ATOM      8  C   UNL     1       7.145  -4.950   0.000  0.00  0.00    +0.106 A 
ATOM      9  C   UNL     1       7.145  -4.125   0.000  0.00  0.00    +0.092 A 
ATOM     10  C   UNL     1       6.430  -3.712   0.000  0.00  0.00    +0.027 A 
BRANCH   9  11
ATOM     11  C   UNL     1       7.859  -3.712   0.000  0.00  0.00    +0.420 C 
ATOM     12  F   UNL     1       7.447  -2.998   0.000  0.00  0.00    -0.166 F 
ATOM     13  F   UNL     1       8.272  -4.427   0.000  0.00  0.00    -0.166 F 
ATOM     14  F   UNL     1       8.574  -3.300   0.000  0.00  0.00    -0.166 F 
ENDBRANCH   9  11
ENDBRANCH   2   4
BRANCH   1  16
ATOM     15  C   UNL     1       3.572  -2.888   0.000  0.00  0.00    +0.042 C 
ATOM     16  C   UNL     1       3.572  -3.712   0.000  0.00  0.00    +0.193 C 
BRANCH  16  17
ATOM     17  O   UNL     1       2.858  -4.125   0.000  0.00  0.00    -0.344 OA
BRANCH  17  18
ATOM     18  C   UNL     1       2.143  -3.712   0.000  0.00  0.00    +0.172 C 
BRANCH  18  19
ATOM     19  C   UNL     1       1.429  -4.125   0.000  0.00  0.00    +0.145 C 
ATOM     20  O   UNL     1       0.715  -3.712   0.000  0.00  0.00    -0.354 OA
ATOM     21  C   UNL     1       0.000  -4.125   0.000  0.00  0.00    +0.142 C 
ATOM     22  C   UNL     1       0.000  -4.950   0.000  0.00  0.00    +0.032 C 
ATOM     23  C   UNL     1       0.715  -5.362   0.000  0.00  0.00    +0.005 C 
ATOM     24  C   UNL     1       1.429  -4.950   0.000  0.00  0.00    +0.032 C 
ENDBRANCH  18  19
ENDBRANCH  17  18
ENDBRANCH  16  17
ENDBRANCH   1  16
TORSDOF 6
