REMARK  Name = 
REMARK  1 active torsions:
REMARK  status: ('A' for Active; 'I' for Inactive)
REMARK    1  A    between atoms: C_3  and  C_5
REMARK                            x       y       z     vdW  Elec       q    Type
REMARK                         _______ _______ _______ _____ _____    ______ ____
ROOT
ATOM      1  C   UNL     1       0.715  -1.238   0.000  0.00  0.00    +0.212 C 
ATOM      2  O   UNL     1       0.000  -1.650   0.000  0.00  0.00    -0.344 OA
ATOM      3  C   UNL     1       0.000  -2.475   0.000  0.00  0.00    +0.164 C 
ATOM      4  C   UNL     1       0.715  -2.888   0.000  0.00  0.00    +0.126 C 
ATOM      5  N   UNL     1       1.429  -2.475   0.000  0.00  0.00    -0.273 N 
ATOM      6  C   UNL     1       2.143  -2.888   0.000  0.00  0.00    +0.220 A 
ATOM      7  N   UNL     1       2.143  -3.712   0.000  0.00  0.00    -0.212 NA
ATOM      8  C   UNL     1       2.858  -4.125   0.000  0.00  0.00    +0.099 A 
ATOM      9  C   UNL     1       3.572  -3.712   0.000  0.00  0.00    +0.017 A 
ATOM     10  C   UNL     1       4.287  -4.125   0.000  0.00  0.00    +0.034 C 
ATOM     11  C   UNL     1       3.572  -2.888   0.000  0.00  0.00    +0.099 A 
ATOM     12  N   UNL     1       2.858  -2.475   0.000  0.00  0.00    -0.212 NA
ATOM     13  C   UNL     1       1.429  -1.650   0.000  0.00  0.00    +0.133 C 
ENDROOT
BRANCH   1  16
ATOM     14  C   UNL     1       0.000   0.825   0.000  0.00  0.00    +0.139 C 
ATOM     15  N   UNL     1       0.000   0.000   0.000  0.00  0.00    -0.201 NA
ATOM     16  C   UNL     1       0.715  -0.412   0.000  0.00  0.00    +0.270 C 
ATOM     17  O   UNL     1       1.429   0.000   0.000  0.00  0.00    -0.271 OA
ENDBRANCH   1  16
TORSDOF 1
