REMARK  Name = 
REMARK  7 active torsions:
REMARK  status: ('A' for Active; 'I' for Inactive)
REMARK    1  A    between atoms: O_2  and  C_3
REMARK    2  A    between atoms: C_3  and  C_4
REMARK    3  A    between atoms: C_4  and  N_5
REMARK    4  A    between atoms: C_8  and  C_9
REMARK    5  A    between atoms: C_9  and  N_10
REMARK    6  A    between atoms: C_11  and  C_13
REMARK    7  A    between atoms: C_13  and  N_14
REMARK                            x       y       z     vdW  Elec       q    Type
REMARK                         _______ _______ _______ _____ _____    ______ ____
ROOT
ATOM      1  N   UNL     1      -2.858   3.300   0.000  0.00  0.00    -0.271 NA
ATOM      2  C   UNL     1      -2.858   2.475   0.000  0.00  0.00    +0.072 C 
ATOM      3  C   UNL     1      -2.143   2.062   0.000  0.00  0.00    +0.019 C 
ATOM      4  C   UNL     1      -1.429   2.475   0.000  0.00  0.00    +0.024 C 
ATOM      5  C   UNL     1      -1.429   3.300   0.000  0.00  0.00    +0.019 C 
ATOM      6  C   UNL     1      -2.143   3.712   0.000  0.00  0.00    +0.072 C 
ENDROOT
BRANCH   1   7
ATOM      7  C   UNL     1      -3.572   3.712   0.000  0.00  0.00    +0.105 C 
BRANCH   7   8
ATOM      8  C   UNL     1      -4.287   3.300   0.000  0.00  0.00    +0.160 C 
BRANCH   8  10
ATOM      9  C   UNL     1      -5.716   3.300   0.000  0.00  0.00    +0.174 C 
ATOM     10  O   UNL     1      -5.001   3.712   0.000  0.00  0.00    -0.350 OA
ENDBRANCH   8  10
ENDBRANCH   7   8
ENDBRANCH   1   7
BRANCH   4  11
ATOM     11  C   UNL     1      -0.715   2.062   0.000  0.00  0.00    +0.115 C 
BRANCH  11  12
ATOM     12  N   UNL     1       0.000   2.475   0.000  0.00  0.00    -0.204 NA
ATOM     13  C   UNL     1       0.715   2.062   0.000  0.00  0.00    +0.266 C 
ATOM     14  O   UNL     1       0.715   1.238   0.000  0.00  0.00    -0.271 OA
BRANCH  13  15
ATOM     15  C   UNL     1       1.429   2.475   0.000  0.00  0.00    +0.214 C 
BRANCH  15  16
ATOM     16  N   UNL     1       2.143   2.062   0.000  0.00  0.00    -0.240 N 
ATOM     17  N   UNL     1       2.230   1.242   0.000  0.00  0.00    -0.167 NA
ATOM     18  C   UNL     1       3.037   1.071   0.000  0.00  0.00    +0.122 A 
ATOM     19  C   UNL     1       3.449   1.785   0.000  0.00  0.00    +0.043 A 
ATOM     20  C   UNL     1       2.897   2.398   0.000  0.00  0.00    +0.097 A 
ENDBRANCH  15  16
ENDBRANCH  13  15
ENDBRANCH  11  12
ENDBRANCH   4  11
TORSDOF 7
