REMARK  Name = 
REMARK  5 active torsions:
REMARK  status: ('A' for Active; 'I' for Inactive)
REMARK    1  A    between atoms: C_2  and  C_5
REMARK    2  A    between atoms: C_5  and  N_6
REMARK    3  A    between atoms: N_6  and  C_7
REMARK    4  A    between atoms: C_7  and  C_8
REMARK    5  A    between atoms: C_13  and  N_14
REMARK                            x       y       z     vdW  Elec       q    Type
REMARK                         _______ _______ _______ _____ _____    ______ ____
ROOT
ATOM      1  C   UNL     1       0.715  -1.238   0.000  0.00  0.00    +0.027 A 
ATOM      2  C   UNL     1       0.000  -1.650   0.000  0.00  0.00    +0.129 A 
ATOM      3  N   UNL     1       0.000  -2.475   0.000  0.00  0.00    -0.229 NA
ATOM      4  C   UNL     1       0.715  -2.888   0.000  0.00  0.00    +0.100 A 
ATOM      5  C   UNL     1       1.429  -2.475   0.000  0.00  0.00    +0.020 A 
ATOM      6  C   UNL     1       1.429  -1.650   0.000  0.00  0.00    +0.001 A 
ENDROOT
BRANCH   2   7
ATOM      7  N   UNL     1      -0.715  -1.238   0.000  0.00  0.00    -0.288 N 
ATOM      8  C   UNL     1      -0.715  -0.412   0.000  0.00  0.00    +0.124 C 
ATOM      9  C   UNL     1      -1.429   0.000   0.000  0.00  0.00    +0.164 C 
ATOM     10  O   UNL     1      -2.143  -0.412   0.000  0.00  0.00    -0.350 OA
ATOM     11  C   UNL     1      -2.143  -1.238   0.000  0.00  0.00    +0.164 C 
ATOM     12  C   UNL     1      -1.429  -1.650   0.000  0.00  0.00    +0.124 C 
ENDBRANCH   2   7
BRANCH   1  13
ATOM     13  C   UNL     1       0.715  -0.412   0.000  0.00  0.00    +0.118 C 
BRANCH  13  14
ATOM     14  N   UNL     1       1.429   0.000   0.000  0.00  0.00    -0.213 NA
BRANCH  14  15
ATOM     15  C   UNL     1       1.429   0.825   0.000  0.00  0.00    +0.089 C 
BRANCH  15  17
ATOM     16  C   UNL     1       2.858   1.650   0.000  0.00  0.00    +0.001 C 
ATOM     17  C   UNL     1       2.143   1.238   0.000  0.00  0.00    +0.016 C 
ATOM     18  C   UNL     1       2.556   0.523   0.000  0.00  0.00    +0.001 C 
ATOM     19  C   UNL     1       1.731   1.952   0.000  0.00  0.00    +0.001 C 
ENDBRANCH  15  17
ENDBRANCH  14  15
ENDBRANCH  13  14
ENDBRANCH   1  13
TORSDOF 5
