REMARK  Name = 
REMARK  3 active torsions:
REMARK  status: ('A' for Active; 'I' for Inactive)
REMARK    1  A    between atoms: C_3  and  C_14
REMARK    2  A    between atoms: C_6  and  C_8
REMARK    3  A    between atoms: C_14  and  C_16
REMARK                            x       y       z     vdW  Elec       q    Type
REMARK                         _______ _______ _______ _____ _____    ______ ____
ROOT
ATOM      1  O   UNL     1       2.143  -0.412   0.000  0.00  0.00    -0.263 OA
ATOM      2  C   UNL     1       2.143  -1.238   0.000  0.00  0.00    +0.303 A 
ATOM      3  N   UNL     1       1.429  -1.650   0.000  0.00  0.00    -0.190 NA
ATOM      4  C   UNL     1       1.429  -2.475   0.000  0.00  0.00    +0.163 A 
ATOM      5  N   UNL     1       2.143  -2.888   0.000  0.00  0.00    -0.133 NA
ATOM      6  N   UNL     1       2.858  -2.475   0.000  0.00  0.00    -0.139 NA
ATOM      7  C   UNL     1       2.858  -1.650   0.000  0.00  0.00    +0.199 A 
ENDROOT
BRANCH   4   8
ATOM      8  C   UNL     1       0.715  -2.888   0.000  0.00  0.00    +0.061 C 
ATOM      9  C   UNL     1       0.000  -2.475   0.000  0.00  0.00    +0.008 C 
ATOM     10  C   UNL     1      -0.715  -2.888   0.000  0.00  0.00    +0.000 C 
ATOM     11  C   UNL     1      -0.715  -3.712   0.000  0.00  0.00    +0.000 C 
ATOM     12  C   UNL     1       0.000  -4.125   0.000  0.00  0.00    +0.000 C 
ATOM     13  C   UNL     1       0.715  -3.712   0.000  0.00  0.00    +0.008 C 
ENDBRANCH   4   8
BRANCH   7  14
ATOM     14  C   UNL     1       3.572  -1.238   0.000  0.00  0.00    +0.220 C 
ATOM     15  O   UNL     1       3.572  -0.412   0.000  0.00  0.00    -0.285 OA
BRANCH  14  16
ATOM     16  C   UNL     1       4.287  -1.650   0.000  0.00  0.00    +0.044 A 
ATOM     17  C   UNL     1       4.287  -2.475   0.000  0.00  0.00    +0.024 A 
ATOM     18  C   UNL     1       5.001  -2.888   0.000  0.00  0.00    +0.099 A 
ATOM     19  N   UNL     1       5.716  -2.475   0.000  0.00  0.00    -0.242 NA
ATOM     20  C   UNL     1       5.716  -1.650   0.000  0.00  0.00    +0.099 A 
ATOM     21  C   UNL     1       5.001  -1.238   0.000  0.00  0.00    +0.024 A 
ENDBRANCH  14  16
ENDBRANCH   7  14
TORSDOF 3
