REMARK  Name = 
REMARK  4 active torsions:
REMARK  status: ('A' for Active; 'I' for Inactive)
REMARK    1  A    between atoms: N_9  and  C_10
REMARK    2  A    between atoms: C_10  and  C_11
REMARK    3  A    between atoms: C_10  and  C_14
REMARK    4  A    between atoms: C_11  and  C_12
REMARK                            x       y       z     vdW  Elec       q    Type
REMARK                         _______ _______ _______ _____ _____    ______ ____
ROOT
ATOM      1  C   UNL     1      -0.811   0.290   0.000  0.00  0.00    +0.053 C 
ATOM      2  C   UNL     1      -0.476   1.044   0.000  0.00  0.00    +0.068 A 
ATOM      3  N   UNL     1       0.331   1.216   0.000  0.00  0.00    -0.227 NA
ATOM      4  C   UNL     1       0.418   2.036   0.000  0.00  0.00    +0.187 A 
ATOM      5  N   UNL     1       1.132   2.449   0.000  0.00  0.00    -0.136 NA
ATOM      6  C   UNL     1       1.847   2.036   0.000  0.00  0.00    +0.345 C 
ATOM      7  N   UNL     1       2.561   2.449   0.000  0.00  0.00    -0.189 NA
ATOM      8  O   UNL     1       1.847   1.211   0.000  0.00  0.00    -0.249 OA
ATOM      9  S   UNL     1      -0.336   2.372   0.000  0.00  0.00    -0.049 S 
ATOM     10  C   UNL     1      -0.888   1.759   0.000  0.00  0.00    +0.053 A 
ENDROOT
BRANCH   7  11
ATOM     11  C   UNL     1       3.276   2.036   0.000  0.00  0.00    +0.100 C 
BRANCH  11  12
ATOM     12  C   UNL     1       3.276   1.211   0.000  0.00  0.00    +0.020 C 
ATOM     13  C   UNL     1       2.863   0.497   0.000  0.00  0.00    +0.002 C 
ATOM     14  C   UNL     1       3.688   0.497   0.000  0.00  0.00    +0.002 C 
ENDBRANCH  11  12
BRANCH  11  15
ATOM     15  C   UNL     1       3.990   2.449   0.000  0.00  0.00    +0.057 C 
BRANCH  15  16
ATOM     16  C   UNL     1       4.704   2.036   0.000  0.00  0.00    +0.184 C 
ATOM     17  O   UNL     1       5.419   2.449   0.000  0.00  0.00    -0.220 OA
ENDBRANCH  15  16
ENDBRANCH  11  15
ENDBRANCH   7  11
TORSDOF 4
