REMARK  Name = 
REMARK  5 active torsions:
REMARK  status: ('A' for Active; 'I' for Inactive)
REMARK    1  A    between atoms: C_2  and  N_3
REMARK    2  A    between atoms: C_2  and  C_12
REMARK    3  A    between atoms: N_3  and  C_4
REMARK    4  A    between atoms: C_4  and  C_5
REMARK    5  A    between atoms: C_12  and  N_14
REMARK                            x       y       z     vdW  Elec       q    Type
REMARK                         _______ _______ _______ _____ _____    ______ ____
ROOT
ATOM      1  C   UNL     1       1.181  -3.057   0.000  0.00  0.00    +0.021 C 
ATOM      2  C   UNL     1       1.181  -2.232   0.000  0.00  0.00    +0.095 C 
ENDROOT
BRANCH   2   3
ATOM      3  C   UNL     1       1.895  -1.820   0.000  0.00  0.00    +0.121 C 
ATOM      4  C   UNL     1       1.895  -0.995   0.000  0.00  0.00    +0.028 C 
BRANCH   3   5
ATOM      5  N   UNL     1       2.610  -2.232   0.000  0.00  0.00    -0.250 N 
ATOM      6  N   UNL     1       2.696  -3.053   0.000  0.00  0.00    -0.168 NA
ATOM      7  C   UNL     1       3.503  -3.224   0.000  0.00  0.00    +0.117 A 
ATOM      8  C   UNL     1       3.916  -2.510   0.000  0.00  0.00    +0.018 A 
ATOM      9  C   UNL     1       4.736  -2.424   0.000  0.00  0.00    +0.034 C 
ATOM     10  C   UNL     1       3.363  -1.897   0.000  0.00  0.00    +0.092 A 
ENDBRANCH   3   5
ENDBRANCH   2   3
BRANCH   2  11
ATOM     11  N   UNL     1       0.466  -1.820   0.000  0.00  0.00    -0.215 NA
BRANCH  11  12
ATOM     12  C   UNL     1      -0.248  -2.232   0.000  0.00  0.00    +0.119 C 
BRANCH  12  13
ATOM     13  C   UNL     1      -0.963  -1.820   0.000  0.00  0.00    +0.143 C 
ATOM     14  C   UNL     1      -1.493  -1.188   0.000  0.00  0.00    +0.032 C 
ATOM     15  C   UNL     1      -2.305  -1.331   0.000  0.00  0.00    +0.003 C 
ATOM     16  C   UNL     1      -2.587  -2.106   0.000  0.00  0.00    +0.000 C 
ATOM     17  C   UNL     1      -2.057  -2.738   0.000  0.00  0.00    +0.003 C 
ATOM     18  C   UNL     1      -1.245  -2.595   0.000  0.00  0.00    +0.032 C 
ATOM     19  O   UNL     1      -0.432  -1.188   0.000  0.00  0.00    -0.224 OA
ENDBRANCH  12  13
ENDBRANCH  11  12
ENDBRANCH   2  11
TORSDOF 5
