REMARK  Name = 
REMARK  3 active torsions:
REMARK  status: ('A' for Active; 'I' for Inactive)
REMARK    1  A    between atoms: N_3  and  C_4
REMARK    2  A    between atoms: N_7  and  C_8
REMARK    3  A    between atoms: C_11  and  C_14
REMARK                            x       y       z     vdW  Elec       q    Type
REMARK                         _______ _______ _______ _____ _____    ______ ____
ROOT
ATOM      1  C   UNL     1       3.985  -0.174   0.000  0.00  0.00    +0.113 A 
ATOM      2  C   UNL     1       4.699  -0.587   0.000  0.00  0.00    +0.118 A 
ATOM      3  N   UNL     1       5.414  -0.174   0.000  0.00  0.00    -0.228 NA
ATOM      4  C   UNL     1       5.414   0.651   0.000  0.00  0.00    +0.139 A 
ATOM      5  N   UNL     1       4.699   1.063   0.000  0.00  0.00    -0.228 NA
ATOM      6  C   UNL     1       3.985   0.651   0.000  0.00  0.00    +0.118 A 
ENDROOT
BRANCH   1   9
ATOM      7  O   UNL     1       3.985  -1.824   0.000  0.00  0.00    -0.249 OA
ATOM      8  C   UNL     1       3.270  -1.412   0.000  0.00  0.00    +0.344 C 
ATOM      9  N   UNL     1       3.270  -0.587   0.000  0.00  0.00    -0.158 NA
ATOM     10  N   UNL     1       2.556  -1.824   0.000  0.00  0.00    -0.189 NA
BRANCH  10  11
ATOM     11  C   UNL     1       2.556  -2.649   0.000  0.00  0.00    +0.097 C 
ATOM     12  C   UNL     1       2.143  -3.364   0.000  0.00  0.00    +0.023 C 
ATOM     13  C   UNL     1       2.968  -3.364   0.000  0.00  0.00    +0.023 C 
ENDBRANCH  10  11
ENDBRANCH   1   9
BRANCH   4  14
ATOM     14  C   UNL     1       6.128   1.063   0.000  0.00  0.00    +0.059 C 
ATOM     15  C   UNL     1       6.953   1.063   0.000  0.00  0.00    +0.008 C 
ATOM     16  C   UNL     1       6.541   1.778   0.000  0.00  0.00    +0.008 C 
ENDBRANCH   4  14
TORSDOF 3
