REMARK  Name = 
REMARK  2 active torsions:
REMARK  status: ('A' for Active; 'I' for Inactive)
REMARK    1  A    between atoms: C_3  and  N_4
REMARK    2  A    between atoms: N_4  and  C_5
REMARK                            x       y       z     vdW  Elec       q    Type
REMARK                         _______ _______ _______ _____ _____    ______ ____
ROOT
ATOM      1 CL   UNL     1      -1.980   1.779   0.000  0.00  0.00    -0.076 Cl
ATOM      2  C   UNL     1      -1.980   0.954   0.000  0.00  0.00    +0.133 A 
ATOM      3  C   UNL     1      -2.694   0.542   0.000  0.00  0.00    +0.309 A 
ATOM      4  O   UNL     1      -3.409   0.954   0.000  0.00  0.00    -0.263 OA
ATOM      5  N   UNL     1      -2.694  -0.283   0.000  0.00  0.00    -0.105 NA
ATOM      6  N   UNL     1      -1.980  -0.696   0.000  0.00  0.00    -0.142 NA
ATOM      7  C   UNL     1      -1.265  -0.283   0.000  0.00  0.00    +0.139 A 
ATOM      8  C   UNL     1      -1.265   0.542   0.000  0.00  0.00    +0.102 A 
ENDROOT
BRANCH   8   9
ATOM      9  N   UNL     1      -0.551   0.954   0.000  0.00  0.00    -0.234 NA
BRANCH   9  10
ATOM     10  C   UNL     1       0.164   0.542   0.000  0.00  0.00    +0.122 C 
ATOM     11  C   UNL     1       0.878   0.954   0.000  0.00  0.00    +0.135 C 
ATOM     12  O   UNL     1       0.672   0.129   0.000  0.00  0.00    -0.357 OA
ATOM     13  C   UNL     1       0.878  -0.696   0.000  0.00  0.00    +0.117 C 
ATOM     14  C   UNL     1       1.593  -0.283   0.000  0.00  0.00    +0.032 C 
ATOM     15  C   UNL     1       1.593   0.542   0.000  0.00  0.00    +0.034 C 
ATOM     16  C   UNL     1       0.164  -0.283   0.000  0.00  0.00    +0.054 C 
ENDBRANCH   9  10
ENDBRANCH   8   9
TORSDOF 2
