REMARK  Name = 
REMARK  2 active torsions:
REMARK  status: ('A' for Active; 'I' for Inactive)
REMARK    1  A    between atoms: C_2  and  N_3
REMARK    2  A    between atoms: C_2  and  C_13
REMARK                            x       y       z     vdW  Elec       q    Type
REMARK                         _______ _______ _______ _____ _____    ______ ____
ROOT
ATOM      1  N   UNL     1       1.429  -1.650   0.000  0.00  0.00    -0.189 NA
ATOM      2  C   UNL     1       2.143  -2.062   0.000  0.00  0.00    +0.345 C 
ATOM      3  N   UNL     1       2.858  -1.650   0.000  0.00  0.00    -0.142 NA
ATOM      4  C   UNL     1       3.572  -2.062   0.000  0.00  0.00    +0.156 A 
ATOM      5  N   UNL     1       3.572  -2.888   0.000  0.00  0.00    -0.227 NA
ATOM      6  C   UNL     1       4.287  -3.300   0.000  0.00  0.00    +0.100 A 
ATOM      7  C   UNL     1       5.001  -2.888   0.000  0.00  0.00    +0.021 A 
ATOM      8  C   UNL     1       5.001  -2.062   0.000  0.00  0.00    +0.005 A 
ATOM      9  C   UNL     1       4.287  -1.650   0.000  0.00  0.00    +0.036 A 
ATOM     10  O   UNL     1       2.143  -2.888   0.000  0.00  0.00    -0.249 OA
ENDROOT
BRANCH   1  12
ATOM     11  C   UNL     1       0.715  -2.888   0.000  0.00  0.00    +0.023 C 
ATOM     12  C   UNL     1       0.715  -2.062   0.000  0.00  0.00    +0.097 C 
BRANCH  12  13
ATOM     13  C   UNL     1       0.000  -1.650   0.000  0.00  0.00    +0.023 C 
ATOM     14  C   UNL     1       0.000  -0.825   0.000  0.00  0.00    +0.019 C 
ATOM     15  C   UNL     1      -0.715  -0.412   0.000  0.00  0.00    +0.072 C 
ATOM     16  N   UNL     1      -1.429  -0.825   0.000  0.00  0.00    -0.272 NA
ATOM     17  C   UNL     1      -2.143  -0.412   0.000  0.00  0.00    +0.090 C 
ATOM     18  C   UNL     1      -1.429  -1.650   0.000  0.00  0.00    +0.072 C 
ATOM     19  C   UNL     1      -0.715  -2.062   0.000  0.00  0.00    +0.019 C 
ENDBRANCH  12  13
ENDBRANCH   1  12
TORSDOF 2
