REMARK  Name = 
REMARK  3 active torsions:
REMARK  status: ('A' for Active; 'I' for Inactive)
REMARK    1  A    between atoms: N_7  and  C_8
REMARK    2  A    between atoms: C_8  and  C_9
REMARK    3  A    between atoms: N_11  and  C_12
REMARK                            x       y       z     vdW  Elec       q    Type
REMARK                         _______ _______ _______ _____ _____    ______ ____
ROOT
ATOM      1  C   UNL     1       1.127   3.126   0.000  0.00  0.00    +0.138 C 
ATOM      2  N   UNL     1       1.841   3.538   0.000  0.00  0.00    -0.247 N 
ATOM      3  C   UNL     1       2.556   3.126   0.000  0.00  0.00    +0.334 A 
ATOM      4  O   UNL     1       2.556   2.301   0.000  0.00  0.00    -0.246 OA
ATOM      5  N   UNL     1       3.270   3.538   0.000  0.00  0.00    -0.271 N 
ATOM      6  C   UNL     1       3.270   4.363   0.000  0.00  0.00    +0.085 A 
ATOM      7  C   UNL     1       2.556   4.776   0.000  0.00  0.00    +0.080 A 
ATOM      8  C   UNL     1       1.841   4.363   0.000  0.00  0.00    +0.266 A 
ATOM      9  O   UNL     1       1.127   4.776   0.000  0.00  0.00    -0.267 OA
ENDROOT
BRANCH   5  10
ATOM     10  C   UNL     1       3.985   3.126   0.000  0.00  0.00    +0.197 C 
BRANCH  10  11
ATOM     11  C   UNL     1       3.985   2.301   0.000  0.00  0.00    +0.265 C 
ATOM     12  N   UNL     1       4.699   1.888   0.000  0.00  0.00    -0.206 NA
ATOM     13  O   UNL     1       3.270   1.888   0.000  0.00  0.00    -0.271 OA
BRANCH  12  14
ATOM     14  C   UNL     1       4.699   1.063   0.000  0.00  0.00    +0.095 C 
ATOM     15  C   UNL     1       4.287   0.349   0.000  0.00  0.00    +0.023 C 
ATOM     16  C   UNL     1       5.112   0.349   0.000  0.00  0.00    +0.023 C 
ENDBRANCH  12  14
ENDBRANCH  10  11
ENDBRANCH   5  10
TORSDOF 3
