REMARK  Name = 
REMARK  3 active torsions:
REMARK  status: ('A' for Active; 'I' for Inactive)
REMARK    1  A    between atoms: C_2  and  C_3
REMARK    2  A    between atoms: C_3  and  C_4
REMARK    3  A    between atoms: C_4  and  N_5
REMARK                            x       y       z     vdW  Elec       q    Type
REMARK                         _______ _______ _______ _____ _____    ______ ____
ROOT
ATOM      1  C   UNL     1       2.561  -1.624   0.000  0.00  0.00    +0.126 C 
ENDROOT
BRANCH   1   2
ATOM      2  N   UNL     1       3.276  -1.211   0.000  0.00  0.00    -0.186 NA
ATOM      3  C   UNL     1       3.990  -1.624   0.000  0.00  0.00    +0.345 C 
ATOM      4  N   UNL     1       4.704  -1.211   0.000  0.00  0.00    -0.134 NA
ATOM      5  C   UNL     1       5.419  -1.624   0.000  0.00  0.00    +0.209 A 
ATOM      6  S   UNL     1       5.505  -2.444   0.000  0.00  0.00    -0.027 S 
ATOM      7  C   UNL     1       6.312  -2.616   0.000  0.00  0.00    +0.161 A 
ATOM      8  N   UNL     1       6.725  -1.901   0.000  0.00  0.00    -0.137 NA
ATOM      9  N   UNL     1       6.173  -1.288   0.000  0.00  0.00    -0.123 NA
ATOM     10  O   UNL     1       3.990  -2.449   0.000  0.00  0.00    -0.249 OA
ENDBRANCH   1   2
BRANCH   1  11
ATOM     11  C   UNL     1       1.847  -1.211   0.000  0.00  0.00    +0.109 C 
BRANCH  11  13
ATOM     12  O   UNL     1       1.132  -2.449   0.000  0.00  0.00    -0.275 OA
ATOM     13  C   UNL     1       1.132  -1.624   0.000  0.00  0.00    +0.227 C 
ATOM     14  N   UNL     1       0.418  -1.211   0.000  0.00  0.00    -0.279 N 
ATOM     15  C   UNL     1       0.331  -0.391   0.000  0.00  0.00    +0.093 C 
ATOM     16  C   UNL     1      -0.476  -0.219   0.000  0.00  0.00    +0.023 C 
ATOM     17  C   UNL     1      -0.888  -0.934   0.000  0.00  0.00    +0.023 C 
ATOM     18  C   UNL     1      -0.336  -1.547   0.000  0.00  0.00    +0.093 C 
ENDBRANCH  11  13
ENDBRANCH   1  11
TORSDOF 3
