REMARK  Name = 
REMARK  6 active torsions:
REMARK  status: ('A' for Active; 'I' for Inactive)
REMARK    1  A    between atoms: C_2  and  C_4
REMARK    2  A    between atoms: C_4  and  N_5
REMARK    3  A    between atoms: C_4  and  C_13
REMARK    4  A    between atoms: N_5  and  C_6
REMARK    5  A    between atoms: C_6  and  C_7
REMARK    6  A    between atoms: C_7  and  N_8
REMARK                            x       y       z     vdW  Elec       q    Type
REMARK                         _______ _______ _______ _____ _____    ______ ____
ROOT
ATOM      1  C   UNL     1       4.287  -4.125   0.000  0.00  0.00    +0.149 C 
ENDROOT
BRANCH   1   2
ATOM      2  C   UNL     1       5.001  -3.712   0.000  0.00  0.00    +0.242 C 
ATOM      3  N   UNL     1       5.716  -4.125   0.000  0.00  0.00    -0.273 N 
ATOM      4  C   UNL     1       5.716  -4.950   0.000  0.00  0.00    +0.126 C 
ATOM      5  C   UNL     1       6.430  -5.362   0.000  0.00  0.00    +0.164 C 
ATOM      6  O   UNL     1       7.145  -4.950   0.000  0.00  0.00    -0.350 OA
ATOM      7  C   UNL     1       7.145  -4.125   0.000  0.00  0.00    +0.164 C 
ATOM      8  C   UNL     1       6.430  -3.712   0.000  0.00  0.00    +0.126 C 
ATOM      9  O   UNL     1       5.001  -2.888   0.000  0.00  0.00    -0.273 OA
ENDBRANCH   1   2
BRANCH   1  11
ATOM     10  C   UNL     1       5.001  -5.362   0.000  0.00  0.00    +0.002 C 
ATOM     11  C   UNL     1       4.287  -4.950   0.000  0.00  0.00    +0.025 C 
ATOM     12  C   UNL     1       3.572  -5.362   0.000  0.00  0.00    +0.002 C 
ENDBRANCH   1  11
BRANCH   1  13
ATOM     13  N   UNL     1       3.572  -3.712   0.000  0.00  0.00    -0.208 NA
BRANCH  13  14
ATOM     14  C   UNL     1       2.858  -4.125   0.000  0.00  0.00    +0.114 C 
BRANCH  14  15
ATOM     15  C   UNL     1       2.143  -3.712   0.000  0.00  0.00    +0.126 C 
BRANCH  15  16
ATOM     16  N   UNL     1       1.429  -4.125   0.000  0.00  0.00    -0.306 N 
ATOM     17  C   UNL     1       0.675  -3.789   0.000  0.00  0.00    +0.179 A 
ATOM     18  N   UNL     1       0.123  -4.402   0.000  0.00  0.00    -0.222 NA
ATOM     19  C   UNL     1       0.536  -5.117   0.000  0.00  0.00    +0.119 A 
ATOM     20  C   UNL     1       1.343  -4.946   0.000  0.00  0.00    +0.098 A 
ENDBRANCH  15  16
ENDBRANCH  14  15
ENDBRANCH  13  14
ENDBRANCH   1  13
TORSDOF 6
