REMARK  Name = 
REMARK  6 active torsions:
REMARK  status: ('A' for Active; 'I' for Inactive)
REMARK    1  A    between atoms: O_2  and  C_3
REMARK    2  A    between atoms: C_3  and  C_4
REMARK    3  A    between atoms: C_4  and  N_5
REMARK    4  A    between atoms: N_17  and  C_18
REMARK    5  A    between atoms: C_18  and  C_19
REMARK    6  A    between atoms: C_19  and  O_20
REMARK                            x       y       z     vdW  Elec       q    Type
REMARK                         _______ _______ _______ _____ _____    ______ ____
ROOT
ATOM      1  N   UNL     1       4.785  -2.735   0.000  0.00  0.00    -0.203 NA
ATOM      2  C   UNL     1       5.500  -3.147   0.000  0.00  0.00    +0.219 A 
ATOM      3  N   UNL     1       5.586  -3.968   0.000  0.00  0.00    -0.291 N 
ATOM      4  C   UNL     1       6.393  -4.139   0.000  0.00  0.00    +0.155 A 
ATOM      5  C   UNL     1       6.806  -3.425   0.000  0.00  0.00    +0.171 A 
ATOM      6  N   UNL     1       7.631  -3.425   0.000  0.00  0.00    -0.261 N 
ATOM      7  C   UNL     1       8.043  -4.139   0.000  0.00  0.00    +0.354 A 
ATOM      8  N   UNL     1       7.631  -4.854   0.000  0.00  0.00    -0.152 NA
ATOM      9  O   UNL     1       8.868  -4.139   0.000  0.00  0.00    -0.244 OA
ATOM     10  C   UNL     1       8.043  -2.710   0.000  0.00  0.00    +0.137 C 
ATOM     11  C   UNL     1       6.806  -4.854   0.000  0.00  0.00    +0.302 A 
ATOM     12  O   UNL     1       6.393  -5.568   0.000  0.00  0.00    -0.263 OA
ATOM     13  N   UNL     1       6.254  -2.812   0.000  0.00  0.00    -0.195 NA
ENDROOT
BRANCH   1  14
ATOM     14  C   UNL     1       4.071  -3.147   0.000  0.00  0.00    +0.147 C 
BRANCH  14  15
ATOM     15  C   UNL     1       3.357  -2.735   0.000  0.00  0.00    +0.166 C 
BRANCH  15  17
ATOM     16  C   UNL     1       1.927  -2.735   0.000  0.00  0.00    +0.174 C 
ATOM     17  O   UNL     1       2.642  -3.147   0.000  0.00  0.00    -0.349 OA
ENDBRANCH  15  17
ENDBRANCH  14  15
ENDBRANCH   1  14
BRANCH   3  18
ATOM     18  C   UNL     1       4.973  -4.520   0.000  0.00  0.00    +0.141 C 
BRANCH  18  19
ATOM     19  C   UNL     1       4.188  -4.265   0.000  0.00  0.00    +0.167 C 
BRANCH  19  20
ATOM     20  O   UNL     1       3.575  -4.817   0.000  0.00  0.00    -0.349 OA
ATOM     21  C   UNL     1       2.791  -4.562   0.000  0.00  0.00    +0.174 C 
ENDBRANCH  19  20
ENDBRANCH  18  19
ENDBRANCH   3  18
TORSDOF 6
