REMARK  Name = 
REMARK  6 active torsions:
REMARK  status: ('A' for Active; 'I' for Inactive)
REMARK    1  A    between atoms: C_2  and  C_4
REMARK    2  A    between atoms: C_4  and  N_5
REMARK    3  A    between atoms: C_4  and  C_9
REMARK    4  A    between atoms: N_11  and  C_12
REMARK    5  A    between atoms: C_12  and  C_14
REMARK    6  A    between atoms: C_14  and  N_15
REMARK                            x       y       z     vdW  Elec       q    Type
REMARK                         _______ _______ _______ _____ _____    ______ ____
ROOT
ATOM      1  C   UNL     1       6.369  -4.321   0.000  0.00  0.00    +0.261 C 
ATOM      2  N   UNL     1       7.083  -3.908   0.000  0.00  0.00    -0.204 NA
ATOM      3  O   UNL     1       6.369  -5.146   0.000  0.00  0.00    -0.271 OA
ENDROOT
BRANCH   2   4
ATOM      4  C   UNL     1       7.798  -4.321   0.000  0.00  0.00    +0.118 C 
ATOM      5  C   UNL     1       7.798  -5.146   0.000  0.00  0.00    +0.025 C 
BRANCH   4   6
ATOM      6  C   UNL     1       8.512  -3.908   0.000  0.00  0.00    +0.129 C 
BRANCH   6   7
ATOM      7  N   UNL     1       9.227  -4.321   0.000  0.00  0.00    -0.306 N 
ATOM      8  C   UNL     1       9.313  -5.141   0.000  0.00  0.00    +0.179 A 
ATOM      9  N   UNL     1      10.120  -5.312   0.000  0.00  0.00    -0.222 NA
ATOM     10  C   UNL     1      10.532  -4.598   0.000  0.00  0.00    +0.119 A 
ATOM     11  C   UNL     1       9.980  -3.985   0.000  0.00  0.00    +0.098 A 
ENDBRANCH   6   7
ENDBRANCH   4   6
ENDBRANCH   2   4
BRANCH   1  12
ATOM     12  C   UNL     1       5.654  -3.908   0.000  0.00  0.00    +0.173 C 
BRANCH  12  13
ATOM     13  N   UNL     1       4.940  -4.321   0.000  0.00  0.00    -0.198 NA
ATOM     14  C   UNL     1       4.225  -3.908   0.000  0.00  0.00    +0.242 C 
ATOM     15  C   UNL     1       4.225  -3.083   0.000  0.00  0.00    +0.096 C 
ATOM     16  O   UNL     1       3.511  -4.321   0.000  0.00  0.00    -0.273 OA
ENDBRANCH  12  13
BRANCH  12  18
ATOM     17  C   UNL     1       6.369  -2.671   0.000  0.00  0.00    +0.002 C 
ATOM     18  C   UNL     1       5.654  -3.083   0.000  0.00  0.00    +0.029 C 
ATOM     19  C   UNL     1       4.940  -2.671   0.000  0.00  0.00    +0.002 C 
ENDBRANCH  12  18
ENDBRANCH   1  12
TORSDOF 6
