REMARK  Name = 
REMARK  4 active torsions:
REMARK  status: ('A' for Active; 'I' for Inactive)
REMARK    1  A    between atoms: C_2  and  C_3
REMARK    2  A    between atoms: C_2  and  N_10
REMARK    3  A    between atoms: C_3  and  N_4
REMARK    4  A    between atoms: N_13  and  C_14
REMARK                            x       y       z     vdW  Elec       q    Type
REMARK                         _______ _______ _______ _____ _____    ______ ____
ROOT
ATOM      1  N   UNL     1       2.143  -1.238   0.000  0.00  0.00    -0.187 NA
ATOM      2  C   UNL     1       2.858  -1.650   0.000  0.00  0.00    +0.345 C 
ATOM      3  N   UNL     1       3.572  -1.238   0.000  0.00  0.00    -0.142 NA
ATOM      4  O   UNL     1       2.858  -2.475   0.000  0.00  0.00    -0.249 OA
ENDROOT
BRANCH   3   5
ATOM      5  C   UNL     1       4.287  -1.650   0.000  0.00  0.00    +0.154 A 
ATOM      6  N   UNL     1       4.373  -2.470   0.000  0.00  0.00    -0.234 N 
ATOM      7  C   UNL     1       3.760  -3.022   0.000  0.00  0.00    +0.155 C 
ATOM      8  N   UNL     1       5.180  -2.642   0.000  0.00  0.00    -0.172 NA
ATOM      9  C   UNL     1       5.593  -1.927   0.000  0.00  0.00    +0.082 A 
ATOM     10  C   UNL     1       6.413  -1.841   0.000  0.00  0.00    +0.054 C 
ATOM     11  C   UNL     1       5.040  -1.314   0.000  0.00  0.00    +0.052 A 
ENDBRANCH   3   5
BRANCH   1  13
ATOM     12  C   UNL     1       1.429  -2.475   0.000  0.00  0.00    +0.025 C 
ATOM     13  C   UNL     1       1.429  -1.650   0.000  0.00  0.00    +0.113 C 
BRANCH  13  14
ATOM     14  C   UNL     1       0.715  -1.238   0.000  0.00  0.00    +0.094 C 
BRANCH  14  15
ATOM     15  N   UNL     1       0.000  -1.650   0.000  0.00  0.00    -0.267 NA
ATOM     16  C   UNL     1      -0.715  -1.238   0.000  0.00  0.00    +0.105 C 
ATOM     17  C   UNL     1      -1.429  -1.650   0.000  0.00  0.00    +0.159 C 
ATOM     18  O   UNL     1      -1.429  -2.475   0.000  0.00  0.00    -0.351 OA
ATOM     19  C   UNL     1      -0.715  -2.888   0.000  0.00  0.00    +0.159 C 
ATOM     20  C   UNL     1       0.000  -2.475   0.000  0.00  0.00    +0.105 C 
ENDBRANCH  14  15
ENDBRANCH  13  14
ENDBRANCH   1  13
TORSDOF 4
