REMARK  Name = 
REMARK  4 active torsions:
REMARK  status: ('A' for Active; 'I' for Inactive)
REMARK    1  A    between atoms: C_2  and  C_4
REMARK    2  A    between atoms: C_7  and  C_8
REMARK    3  A    between atoms: C_8  and  C_9
REMARK    4  A    between atoms: C_9  and  N_10
REMARK                            x       y       z     vdW  Elec       q    Type
REMARK                         _______ _______ _______ _____ _____    ______ ____
ROOT
ATOM      1  C   UNL     1       1.429  -2.475   0.000  0.00  0.00    +0.127 C 
ENDROOT
BRANCH   1   2
ATOM      2  N   UNL     1       2.143  -2.888   0.000  0.00  0.00    -0.188 NA
ATOM      3  C   UNL     1       2.858  -2.475   0.000  0.00  0.00    +0.323 C 
ATOM      4  N   UNL     1       3.572  -2.888   0.000  0.00  0.00    -0.258 N 
ATOM      5  C   UNL     1       3.572  -3.712   0.000  0.00  0.00    +0.124 C 
ATOM      6  C   UNL     1       4.287  -4.125   0.000  0.00  0.00    +0.135 C 
ATOM      7  C   UNL     1       4.287  -4.950   0.000  0.00  0.00    +0.034 C 
ATOM      8  O   UNL     1       5.001  -3.712   0.000  0.00  0.00    -0.353 OA
ATOM      9  C   UNL     1       5.001  -2.888   0.000  0.00  0.00    +0.164 C 
ATOM     10  C   UNL     1       4.287  -2.475   0.000  0.00  0.00    +0.127 C 
ATOM     11  O   UNL     1       2.858  -1.650   0.000  0.00  0.00    -0.251 OA
ENDBRANCH   1   2
BRANCH   1  12
ATOM     12  C   UNL     1       0.715  -2.888   0.000  0.00  0.00    +0.111 C 
BRANCH  12  15
ATOM     13  C   UNL     1      -1.306  -2.197   0.000  0.00  0.00    +0.180 A 
ATOM     14  N   UNL     1      -0.754  -2.811   0.000  0.00  0.00    -0.195 NA
ATOM     15  C   UNL     1       0.000  -2.475   0.000  0.00  0.00    +0.238 A 
ATOM     16  O   UNL     1      -0.086  -1.655   0.000  0.00  0.00    -0.337 OA
ATOM     17  N   UNL     1      -0.893  -1.483   0.000  0.00  0.00    -0.061 NA
BRANCH  13  19
ATOM     18  C   UNL     1      -2.611  -1.616   0.000  0.00  0.00    +0.008 C 
ATOM     19  C   UNL     1      -2.126  -2.284   0.000  0.00  0.00    +0.062 C 
ATOM     20  C   UNL     1      -2.462  -3.037   0.000  0.00  0.00    +0.008 C 
ENDBRANCH  13  19
ENDBRANCH  12  15
ENDBRANCH   1  12
TORSDOF 4
