REMARK  Name = 
REMARK  5 active torsions:
REMARK  status: ('A' for Active; 'I' for Inactive)
REMARK    1  A    between atoms: O_2  and  C_3
REMARK    2  A    between atoms: C_3  and  C_4
REMARK    3  A    between atoms: C_4  and  N_5
REMARK    4  A    between atoms: C_9  and  S_12
REMARK    5  A    between atoms: S_12  and  N_15
REMARK                            x       y       z     vdW  Elec       q    Type
REMARK                         _______ _______ _______ _____ _____    ______ ____
ROOT
ATOM      1  N   UNL     1       2.858  -2.475   0.000  0.00  0.00    -0.218 NA
ATOM      2  C   UNL     1       3.572  -2.888   0.000  0.00  0.00    +0.148 A 
ATOM      3  N   UNL     1       3.572  -3.712   0.000  0.00  0.00    -0.226 NA
ATOM      4  C   UNL     1       4.287  -4.125   0.000  0.00  0.00    +0.120 A 
ATOM      5  C   UNL     1       5.001  -3.712   0.000  0.00  0.00    +0.141 A 
ATOM      6  C   UNL     1       5.001  -2.888   0.000  0.00  0.00    +0.024 A 
ATOM      7  C   UNL     1       4.287  -2.475   0.000  0.00  0.00    +0.037 A 
ENDROOT
BRANCH   5   8
ATOM      8  S   UNL     1       5.716  -4.125   0.000  0.00  0.00    +0.065 S 
ATOM      9  O   UNL     1       6.128  -3.410   0.000  0.00  0.00    -0.153 OA
ATOM     10  O   UNL     1       5.303  -4.840   0.000  0.00  0.00    -0.153 OA
BRANCH   8  11
ATOM     11  N   UNL     1       6.430  -4.537   0.000  0.00  0.00    -0.155 NA
ATOM     12  C   UNL     1       6.516  -5.358   0.000  0.00  0.00    +0.096 C 
ATOM     13  C   UNL     1       7.323  -5.529   0.000  0.00  0.00    +0.021 C 
ATOM     14  C   UNL     1       7.736  -4.815   0.000  0.00  0.00    +0.021 C 
ATOM     15  C   UNL     1       7.184  -4.202   0.000  0.00  0.00    +0.096 C 
ENDBRANCH   8  11
ENDBRANCH   5   8
BRANCH   1  16
ATOM     16  C   UNL     1       2.143  -2.888   0.000  0.00  0.00    +0.146 C 
BRANCH  16  17
ATOM     17  C   UNL     1       1.429  -2.475   0.000  0.00  0.00    +0.166 C 
BRANCH  17  19
ATOM     18  C   UNL     1       0.000  -2.475   0.000  0.00  0.00    +0.174 C 
ATOM     19  O   UNL     1       0.715  -2.888   0.000  0.00  0.00    -0.349 OA
ENDBRANCH  17  19
ENDBRANCH  16  17
ENDBRANCH   1  16
TORSDOF 5
