REMARK  Name = 
REMARK  6 active torsions:
REMARK  status: ('A' for Active; 'I' for Inactive)
REMARK    1  A    between atoms: C_2  and  C_3
REMARK    2  A    between atoms: C_2  and  N_12
REMARK    3  A    between atoms: C_3  and  C_4
REMARK    4  A    between atoms: C_13  and  C_15
REMARK    5  A    between atoms: C_15  and  C_16
REMARK    6  A    between atoms: C_16  and  C_17
REMARK                            x       y       z     vdW  Elec       q    Type
REMARK                         _______ _______ _______ _____ _____    ______ ____
ROOT
ATOM      1  C   UNL     1       3.163  -2.127   0.000  0.00  0.00    +0.024 C 
ATOM      2  C   UNL     1       3.163  -2.952   0.000  0.00  0.00    +0.100 C 
ENDROOT
BRANCH   2   3
ATOM      3  N   UNL     1       3.878  -3.364   0.000  0.00  0.00    -0.207 NA
ATOM      4  C   UNL     1       4.592  -2.952   0.000  0.00  0.00    +0.241 C 
ATOM      5  O   UNL     1       4.592  -2.127   0.000  0.00  0.00    -0.273 OA
BRANCH   4   6
ATOM      6  C   UNL     1       5.307  -3.364   0.000  0.00  0.00    +0.087 C 
BRANCH   6   7
ATOM      7  C   UNL     1       6.021  -2.952   0.000  0.00  0.00    +0.010 C 
BRANCH   7   8
ATOM      8  C   UNL     1       6.736  -3.364   0.000  0.00  0.00    +0.000 C 
ATOM      9  C   UNL     1       6.822  -4.185   0.000  0.00  0.00    +0.000 C 
ATOM     10  C   UNL     1       7.629  -4.356   0.000  0.00  0.00    +0.000 C 
ATOM     11  C   UNL     1       8.041  -3.642   0.000  0.00  0.00    +0.000 C 
ATOM     12  C   UNL     1       7.489  -3.029   0.000  0.00  0.00    +0.000 C 
ENDBRANCH   7   8
ENDBRANCH   6   7
ENDBRANCH   4   6
ENDBRANCH   2   3
BRANCH   2  13
ATOM     13  C   UNL     1       2.449  -3.364   0.000  0.00  0.00    +0.050 C 
BRANCH  13  14
ATOM     14  C   UNL     1       1.734  -2.952   0.000  0.00  0.00    +0.008 A 
ATOM     15  C   UNL     1       1.648  -2.131   0.000  0.00  0.00    +0.053 A 
ATOM     16  C   UNL     1       2.261  -1.579   0.000  0.00  0.00    +0.051 C 
ATOM     17  N   UNL     1       0.841  -1.960   0.000  0.00  0.00    -0.253 N 
ATOM     18  C   UNL     1       0.506  -1.206   0.000  0.00  0.00    +0.153 C 
ATOM     19  N   UNL     1       0.429  -2.674   0.000  0.00  0.00    -0.174 NA
ATOM     20  C   UNL     1       0.981  -3.287   0.000  0.00  0.00    +0.076 A 
ATOM     21  C   UNL     1       0.809  -4.094   0.000  0.00  0.00    +0.054 C 
ENDBRANCH  13  14
ENDBRANCH   2  13
TORSDOF 6
