REMARK  Name = 
REMARK  5 active torsions:
REMARK  status: ('A' for Active; 'I' for Inactive)
REMARK    1  A    between atoms: C_2  and  N_3
REMARK    2  A    between atoms: N_6  and  C_7
REMARK    3  A    between atoms: C_7  and  C_8
REMARK    4  A    between atoms: C_14  and  S_18
REMARK    5  A    between atoms: S_18  and  N_21
REMARK                            x       y       z     vdW  Elec       q    Type
REMARK                         _______ _______ _______ _____ _____    ______ ____
ROOT
ATOM      1  N   UNL     1       1.139  -1.365   0.000  0.00  0.00    -0.280 N 
ATOM      2  C   UNL     1       1.923  -1.110   0.000  0.00  0.00    +0.080 A 
ATOM      3  C   UNL     1       1.923  -0.285   0.000  0.00  0.00    +0.081 A 
ATOM      4  C   UNL     1       2.638   0.127   0.000  0.00  0.00    +0.039 A 
ATOM      5  C   UNL     1       3.352  -0.285   0.000  0.00  0.00    +0.124 A 
ATOM      6  C   UNL     1       3.352  -1.110   0.000  0.00  0.00    +0.021 A 
ATOM      7  N   UNL     1       1.139  -0.030   0.000  0.00  0.00    -0.277 N 
ATOM      8  C   UNL     1       2.638  -1.523   0.000  0.00  0.00    +0.020 A 
ATOM      9  C   UNL     1       0.654  -0.698   0.000  0.00  0.00    +0.332 A 
ATOM     10  O   UNL     1      -0.171  -0.698   0.000  0.00  0.00    -0.246 OA
ENDROOT
BRANCH   5  11
ATOM     11  S   UNL     1       4.067   0.127   0.000  0.00  0.00    +0.063 S 
ATOM     12  O   UNL     1       3.654   0.842   0.000  0.00  0.00    -0.153 OA
ATOM     13  O   UNL     1       4.479  -0.587   0.000  0.00  0.00    -0.153 OA
BRANCH  11  14
ATOM     14  N   UNL     1       4.781   0.540   0.000  0.00  0.00    -0.153 NA
ATOM     15  C   UNL     1       5.496   0.127   0.000  0.00  0.00    +0.115 C 
ATOM     16  C   UNL     1       4.781   1.365   0.000  0.00  0.00    +0.115 C 
ENDBRANCH  11  14
ENDBRANCH   5  11
BRANCH   1  18
ATOM     17  C   UNL     1       0.077  -2.321   0.000  0.00  0.00    +0.027 C 
ATOM     18  C   UNL     1       0.884  -2.150   0.000  0.00  0.00    +0.111 C 
ENDBRANCH   1  18
BRANCH   7  19
ATOM     19  C   UNL     1       0.884   0.754   0.000  0.00  0.00    +0.141 C 
BRANCH  19  20
ATOM     20  C   UNL     1       1.436   1.367   0.000  0.00  0.00    +0.148 C 
ATOM     21  O   UNL     1       1.988   1.980   0.000  0.00  0.00    -0.224 OA
ATOM     22  C   UNL     1       0.823   1.919   0.000  0.00  0.00    +0.035 C 
ATOM     23  C   UNL     1       2.049   0.815   0.000  0.00  0.00    +0.035 C 
ENDBRANCH  19  20
ENDBRANCH   7  19
TORSDOF 5
