REMARK  Name = 
REMARK  5 active torsions:
REMARK  status: ('A' for Active; 'I' for Inactive)
REMARK    1  A    between atoms: C_2  and  N_3
REMARK    2  A    between atoms: C_2  and  C_13
REMARK    3  A    between atoms: N_3  and  C_4
REMARK    4  A    between atoms: C_4  and  C_5
REMARK    5  A    between atoms: C_13  and  N_15
REMARK                            x       y       z     vdW  Elec       q    Type
REMARK                         _______ _______ _______ _____ _____    ______ ____
ROOT
ATOM      1  C   UNL     1       5.307  -4.189   0.000  0.00  0.00    +0.021 C 
ATOM      2  C   UNL     1       5.307  -3.364   0.000  0.00  0.00    +0.096 C 
ENDROOT
BRANCH   2   3
ATOM      3  C   UNL     1       6.021  -2.952   0.000  0.00  0.00    +0.121 C 
ATOM      4  C   UNL     1       6.021  -2.127   0.000  0.00  0.00    +0.028 C 
BRANCH   3   5
ATOM      5  N   UNL     1       6.736  -3.364   0.000  0.00  0.00    -0.250 N 
ATOM      6  N   UNL     1       6.822  -4.185   0.000  0.00  0.00    -0.168 NA
ATOM      7  C   UNL     1       7.629  -4.356   0.000  0.00  0.00    +0.117 A 
ATOM      8  C   UNL     1       8.041  -3.642   0.000  0.00  0.00    +0.018 A 
ATOM      9  C   UNL     1       8.862  -3.556   0.000  0.00  0.00    +0.034 C 
ATOM     10  C   UNL     1       7.489  -3.029   0.000  0.00  0.00    +0.092 A 
ENDBRANCH   3   5
ENDBRANCH   2   3
BRANCH   2  11
ATOM     11  N   UNL     1       4.592  -2.952   0.000  0.00  0.00    -0.208 NA
BRANCH  11  12
ATOM     12  C   UNL     1       3.878  -3.364   0.000  0.00  0.00    +0.174 C 
BRANCH  12  13
ATOM     13  C   UNL     1       3.163  -2.952   0.000  0.00  0.00    +0.250 C 
ATOM     14  N   UNL     1       2.449  -3.364   0.000  0.00  0.00    -0.210 N 
ATOM     15  C   UNL     1       1.695  -3.029   0.000  0.00  0.00    +0.329 C 
ATOM     16  O   UNL     1       1.524  -2.222   0.000  0.00  0.00    -0.250 OA
ATOM     17  N   UNL     1       1.143  -3.642   0.000  0.00  0.00    -0.186 NA
ATOM     18  C   UNL     1       1.556  -4.356   0.000  0.00  0.00    +0.139 C 
ATOM     19  C   UNL     1       2.363  -4.185   0.000  0.00  0.00    +0.126 C 
ATOM     20  O   UNL     1       3.163  -2.127   0.000  0.00  0.00    -0.273 OA
ENDBRANCH  12  13
ENDBRANCH  11  12
ENDBRANCH   2  11
TORSDOF 5
