REMARK  Name = 
REMARK  7 active torsions:
REMARK  status: ('A' for Active; 'I' for Inactive)
REMARK    1  A    between atoms: C_2  and  N_3
REMARK    2  A    between atoms: N_3  and  C_4
REMARK    3  A    between atoms: C_10  and  C_12
REMARK    4  A    between atoms: C_12  and  N_13
REMARK    5  A    between atoms: N_13  and  C_14
REMARK    6  A    between atoms: C_14  and  C_15
REMARK    7  A    between atoms: C_15  and  N_16
REMARK                            x       y       z     vdW  Elec       q    Type
REMARK                         _______ _______ _______ _____ _____    ______ ____
ROOT
ATOM      1  N   UNL     1       0.270  -0.870   0.000  0.00  0.00    -0.280 N 
ATOM      2  C   UNL     1       1.080  -0.715   0.000  0.00  0.00    +0.243 C 
ATOM      3  O   UNL     1       1.350   0.065   0.000  0.00  0.00    -0.273 OA
ENDROOT
BRANCH   1   4
ATOM      4  C   UNL     1      -0.270  -0.247   0.000  0.00  0.00    +0.075 C 
ATOM      5  C   UNL     1       0.000   0.533   0.000  0.00  0.00    +0.020 C 
ATOM      6  C   UNL     1      -0.540   1.156   0.000  0.00  0.00    +0.002 C 
ATOM      7  C   UNL     1      -1.350   1.000   0.000  0.00  0.00    +0.000 C 
ATOM      8  C   UNL     1      -1.620   0.221   0.000  0.00  0.00    +0.002 C 
ATOM      9  C   UNL     1      -1.080  -0.403   0.000  0.00  0.00    +0.020 C 
ENDBRANCH   1   4
BRANCH   1  11
ATOM     10  C   UNL     1      -0.810  -1.806   0.000  0.00  0.00    +0.023 C 
ATOM     11  C   UNL     1       0.000  -1.650   0.000  0.00  0.00    +0.093 C 
ENDBRANCH   1  11
BRANCH   2  12
ATOM     12  C   UNL     1       1.620  -1.338   0.000  0.00  0.00    +0.174 C 
BRANCH  12  13
ATOM     13  N   UNL     1       2.430  -1.182   0.000  0.00  0.00    -0.206 NA
BRANCH  13  14
ATOM     14  C   UNL     1       2.970  -1.806   0.000  0.00  0.00    +0.116 C 
BRANCH  14  15
ATOM     15  C   UNL     1       3.781  -1.650   0.000  0.00  0.00    +0.146 C 
BRANCH  15  16
ATOM     16  N   UNL     1       4.321  -2.274   0.000  0.00  0.00    -0.248 N 
ATOM     17  N   UNL     1       4.134  -3.077   0.000  0.00  0.00    -0.168 NA
ATOM     18  C   UNL     1       4.840  -3.503   0.000  0.00  0.00    +0.117 A 
ATOM     19  C   UNL     1       5.464  -2.963   0.000  0.00  0.00    +0.018 A 
ATOM     20  C   UNL     1       6.267  -3.150   0.000  0.00  0.00    +0.034 C 
ATOM     21  C   UNL     1       5.143  -2.203   0.000  0.00  0.00    +0.092 A 
ENDBRANCH  15  16
ENDBRANCH  14  15
ENDBRANCH  13  14
ENDBRANCH  12  13
ENDBRANCH   2  12
TORSDOF 7
