REMARK  Name = 
REMARK  6 active torsions:
REMARK  status: ('A' for Active; 'I' for Inactive)
REMARK    1  A    between atoms: O_2  and  C_3
REMARK    2  A    between atoms: C_3  and  C_4
REMARK    3  A    between atoms: C_6  and  N_7
REMARK    4  A    between atoms: N_7  and  C_8
REMARK    5  A    between atoms: C_8  and  C_10
REMARK    6  A    between atoms: C_18  and  C_20
REMARK                            x       y       z     vdW  Elec       q    Type
REMARK                         _______ _______ _______ _____ _____    ______ ____
ROOT
ATOM      1  C   UNL     1       1.429  -2.475   0.000  0.00  0.00    +0.093 A 
ATOM      2  N   UNL     1       0.715  -2.888   0.000  0.00  0.00    -0.232 NA
ATOM      3  C   UNL     1       0.715  -3.712   0.000  0.00  0.00    +0.139 A 
ATOM      4  N   UNL     1       1.429  -4.125   0.000  0.00  0.00    -0.215 NA
ATOM      5  C   UNL     1       2.143  -3.712   0.000  0.00  0.00    +0.150 A 
ATOM      6  C   UNL     1       2.143  -2.888   0.000  0.00  0.00    +0.053 A 
ENDROOT
BRANCH   3   7
ATOM      7  C   UNL     1       0.000  -4.125   0.000  0.00  0.00    +0.052 C 
ATOM      8  C   UNL     1       0.412  -4.840   0.000  0.00  0.00    +0.008 C 
ATOM      9  C   UNL     1      -0.412  -3.410   0.000  0.00  0.00    +0.008 C 
ATOM     10  C   UNL     1      -0.715  -4.537   0.000  0.00  0.00    +0.008 C 
ENDBRANCH   3   7
BRANCH   1  11
ATOM     11  C   UNL     1       1.429  -1.650   0.000  0.00  0.00    +0.188 C 
BRANCH  11  13
ATOM     12  C   UNL     1       0.715  -0.412   0.000  0.00  0.00    +0.175 C 
ATOM     13  O   UNL     1       0.715  -1.238   0.000  0.00  0.00    -0.345 OA
ENDBRANCH  11  13
ENDBRANCH   1  11
BRANCH   5  14
ATOM     14  N   UNL     1       2.858  -4.125   0.000  0.00  0.00    -0.219 NA
BRANCH  14  15
ATOM     15  C   UNL     1       3.572  -3.712   0.000  0.00  0.00    +0.122 C 
ATOM     16  C   UNL     1       3.572  -2.888   0.000  0.00  0.00    +0.026 C 
BRANCH  15  17
ATOM     17  C   UNL     1       4.287  -4.125   0.000  0.00  0.00    +0.151 C 
ATOM     18  O   UNL     1       4.287  -4.950   0.000  0.00  0.00    -0.352 OA
ATOM     19  C   UNL     1       5.001  -5.362   0.000  0.00  0.00    +0.159 C 
ATOM     20  C   UNL     1       5.716  -4.950   0.000  0.00  0.00    +0.105 C 
ATOM     21  N   UNL     1       5.716  -4.125   0.000  0.00  0.00    -0.267 NA
ATOM     22  C   UNL     1       6.430  -3.712   0.000  0.00  0.00    +0.090 C 
ATOM     23  C   UNL     1       5.001  -3.712   0.000  0.00  0.00    +0.104 C 
ENDBRANCH  15  17
ENDBRANCH  14  15
ENDBRANCH   5  14
TORSDOF 6
