REMARK  Name = 
REMARK  3 active torsions:
REMARK  status: ('A' for Active; 'I' for Inactive)
REMARK    1  A    between atoms: C_4  and  C_5
REMARK    2  A    between atoms: C_5  and  C_6
REMARK    3  A    between atoms: N_8  and  C_9
REMARK                            x       y       z     vdW  Elec       q    Type
REMARK                         _______ _______ _______ _____ _____    ______ ____
ROOT
ATOM      1  C   UNL     1       3.313  -5.227   0.000  0.00  0.00    +0.247 C 
ATOM      2  N   UNL     1       3.798  -5.895   0.000  0.00  0.00    -0.207 NA
ATOM      3  O   UNL     1       2.493  -5.314   0.000  0.00  0.00    -0.273 OA
ENDROOT
BRANCH   2   4
ATOM      4  C   UNL     1       3.462  -6.648   0.000  0.00  0.00    +0.095 C 
ATOM      5  C   UNL     1       2.642  -6.735   0.000  0.00  0.00    +0.022 C 
ATOM      6  C   UNL     1       2.306  -7.488   0.000  0.00  0.00    +0.002 C 
ATOM      7  C   UNL     1       2.791  -8.156   0.000  0.00  0.00    +0.000 C 
ATOM      8  C   UNL     1       3.612  -8.069   0.000  0.00  0.00    +0.002 C 
ATOM      9  C   UNL     1       3.947  -7.316   0.000  0.00  0.00    +0.022 C 
ENDBRANCH   2   4
BRANCH   1  10
ATOM     10  C   UNL     1       3.649  -4.474   0.000  0.00  0.00    +0.133 C 
BRANCH  10  15
ATOM     11  C   UNL     1       2.751  -1.712   0.000  0.00  0.00    +0.059 C 
ATOM     12  C   UNL     1       2.751  -2.537   0.000  0.00  0.00    +0.088 A 
ATOM     13  S   UNL     1       2.084  -3.022   0.000  0.00  0.00    -0.071 S 
ATOM     14  C   UNL     1       2.339  -3.806   0.000  0.00  0.00    +0.052 A 
ATOM     15  C   UNL     1       3.164  -3.806   0.000  0.00  0.00    +0.075 A 
ATOM     16  N   UNL     1       3.419  -3.022   0.000  0.00  0.00    -0.247 NA
ENDBRANCH  10  15
ENDBRANCH   1  10
TORSDOF 3
