REMARK  Name = 
REMARK  4 active torsions:
REMARK  status: ('A' for Active; 'I' for Inactive)
REMARK    1  A    between atoms: C_2  and  N_3
REMARK    2  A    between atoms: C_4  and  C_6
REMARK    3  A    between atoms: C_6  and  N_7
REMARK    4  A    between atoms: C_12  and  C_14
REMARK                            x       y       z     vdW  Elec       q    Type
REMARK                         _______ _______ _______ _____ _____    ______ ____
ROOT
ATOM      1  N   UNL     1       2.886  -2.025   0.000  0.00  0.00    -0.239 N 
ATOM      2  N   UNL     1       3.640  -2.360   0.000  0.00  0.00    -0.152 NA
ATOM      3  C   UNL     1       4.192  -1.747   0.000  0.00  0.00    +0.175 A 
ATOM      4  N   UNL     1       5.012  -1.833   0.000  0.00  0.00    -0.159 NA
ATOM      5  C   UNL     1       5.497  -1.166   0.000  0.00  0.00    +0.246 C 
ATOM      6  O   UNL     1       5.161  -0.412   0.000  0.00  0.00    -0.273 OA
ATOM      7  C   UNL     1       3.779  -1.033   0.000  0.00  0.00    +0.058 A 
ATOM      8  C   UNL     1       2.972  -1.204   0.000  0.00  0.00    +0.099 A 
ENDROOT
BRANCH   5   9
ATOM      9  C   UNL     1       6.317  -1.252   0.000  0.00  0.00    +0.079 C 
ATOM     10  C   UNL     1       6.985  -1.737   0.000  0.00  0.00    +0.009 C 
ATOM     11  C   UNL     1       6.827  -2.547   0.000  0.00  0.00    +0.000 C 
ATOM     12  C   UNL     1       7.692  -2.162   0.000  0.00  0.00    +0.000 C 
ATOM     13  C   UNL     1       7.071  -0.917   0.000  0.00  0.00    +0.009 C 
ATOM     14  C   UNL     1       7.894  -0.859   0.000  0.00  0.00    +0.000 C 
ATOM     15  C   UNL     1       6.872  -0.116   0.000  0.00  0.00    +0.000 C 
ENDBRANCH   5   9
BRANCH   1  16
ATOM     16  C   UNL     1       2.171  -2.437   0.000  0.00  0.00    +0.214 C 
BRANCH  16  18
ATOM     17  N   UNL     1       0.743  -2.437   0.000  0.00  0.00    -0.204 NA
ATOM     18  C   UNL     1       1.457  -2.025   0.000  0.00  0.00    +0.266 C 
ATOM     19  O   UNL     1       1.457  -1.200   0.000  0.00  0.00    -0.271 OA
BRANCH  17  21
ATOM     20  C   UNL     1      -0.686  -2.437   0.000  0.00  0.00    +0.025 C 
ATOM     21  C   UNL     1       0.028  -2.025   0.000  0.00  0.00    +0.115 C 
ENDBRANCH  17  21
ENDBRANCH  16  18
ENDBRANCH   1  16
TORSDOF 4
