REMARK  Name = 
REMARK  5 active torsions:
REMARK  status: ('A' for Active; 'I' for Inactive)
REMARK    1  A    between atoms: O_2  and  C_3
REMARK    2  A    between atoms: C_3  and  C_4
REMARK    3  A    between atoms: C_4  and  O_5
REMARK    4  A    between atoms: O_5  and  C_6
REMARK    5  A    between atoms: C_9  and  N_10
REMARK                            x       y       z     vdW  Elec       q    Type
REMARK                         _______ _______ _______ _____ _____    ______ ____
ROOT
ATOM      1  C   UNL     1       4.287  -6.600   0.000  0.00  0.00    +0.225 A 
ATOM      2  N   UNL     1       4.287  -7.425   0.000  0.00  0.00    -0.209 NA
ATOM      3  C   UNL     1       5.001  -7.838   0.000  0.00  0.00    +0.119 A 
ATOM      4  C   UNL     1       5.716  -7.425   0.000  0.00  0.00    +0.094 A 
ATOM      5  C   UNL     1       5.716  -6.600   0.000  0.00  0.00    +0.023 A 
ATOM      6  C   UNL     1       5.001  -6.188   0.000  0.00  0.00    +0.059 A 
ENDROOT
BRANCH   4   7
ATOM      7  N   UNL     1       6.430  -7.838   0.000  0.00  0.00    -0.161 NA
ATOM      8  C   UNL     1       7.145  -7.425   0.000  0.00  0.00    +0.328 C 
ATOM      9  N   UNL     1       7.859  -7.838   0.000  0.00  0.00    -0.261 N 
ATOM     10  C   UNL     1       7.859  -8.662   0.000  0.00  0.00    +0.107 C 
ATOM     11  C   UNL     1       8.574  -9.075   0.000  0.00  0.00    +0.079 C 
ATOM     12  S   UNL     1       9.288  -8.662   0.000  0.00  0.00    -0.137 S 
ATOM     13  C   UNL     1       9.288  -7.838   0.000  0.00  0.00    +0.079 C 
ATOM     14  C   UNL     1       8.574  -7.425   0.000  0.00  0.00    +0.107 C 
ATOM     15  O   UNL     1       7.145  -6.600   0.000  0.00  0.00    -0.250 OA
ENDBRANCH   4   7
BRANCH   1  16
ATOM     16  O   UNL     1       3.572  -6.188   0.000  0.00  0.00    -0.457 OA
BRANCH  16  17
ATOM     17  C   UNL     1       2.858  -6.600   0.000  0.00  0.00    +0.239 C 
BRANCH  17  18
ATOM     18  C   UNL     1       2.143  -6.188   0.000  0.00  0.00    +0.189 C 
BRANCH  18  20
ATOM     19  C   UNL     1       0.715  -6.188   0.000  0.00  0.00    +0.174 C 
ATOM     20  O   UNL     1       1.429  -6.600   0.000  0.00  0.00    -0.347 OA
ENDBRANCH  18  20
ENDBRANCH  17  18
ENDBRANCH  16  17
ENDBRANCH   1  16
TORSDOF 5
