REMARK  Name = 
REMARK  3 active torsions:
REMARK  status: ('A' for Active; 'I' for Inactive)
REMARK    1  A    between atoms: C_2  and  C_5
REMARK    2  A    between atoms: C_10  and  N_11
REMARK    3  A    between atoms: C_12  and  C_14
REMARK                            x       y       z     vdW  Elec       q    Type
REMARK                         _______ _______ _______ _____ _____    ______ ____
ROOT
ATOM      1  C   UNL     1       2.037   6.828   0.000  0.00  0.00    +0.092 A 
ATOM      2  C   UNL     1       2.037   6.003   0.000  0.00  0.00    +0.027 A 
ATOM      3  C   UNL     1       2.751   5.590   0.000  0.00  0.00    +0.131 A 
ATOM      4  C   UNL     1       3.466   6.003   0.000  0.00  0.00    +0.295 A 
ATOM      5  O   UNL     1       4.180   5.590   0.000  0.00  0.00    -0.264 OA
ATOM      6  N   UNL     1       3.466   6.828   0.000  0.00  0.00    -0.205 NA
ATOM      7  C   UNL     1       2.751   7.240   0.000  0.00  0.00    +0.106 A 
ENDROOT
BRANCH   1   9
ATOM      8  F   UNL     1       0.608   7.653   0.000  0.00  0.00    -0.166 F 
ATOM      9  C   UNL     1       1.322   7.240   0.000  0.00  0.00    +0.420 C 
ATOM     10  F   UNL     1       1.735   7.955   0.000  0.00  0.00    -0.166 F 
ATOM     11  F   UNL     1       0.910   6.526   0.000  0.00  0.00    -0.166 F 
ENDBRANCH   1   9
BRANCH   3  12
ATOM     12  N   UNL     1       2.751   4.765   0.000  0.00  0.00    -0.172 NA
ATOM     13  C   UNL     1       3.466   4.353   0.000  0.00  0.00    +0.273 C 
ATOM     14  O   UNL     1       4.180   4.765   0.000  0.00  0.00    -0.270 OA
BRANCH  13  15
ATOM     15  C   UNL     1       3.466   3.528   0.000  0.00  0.00    +0.193 C 
ATOM     16  O   UNL     1       2.798   3.043   0.000  0.00  0.00    -0.347 OA
ATOM     17  C   UNL     1       3.053   2.258   0.000  0.00  0.00    +0.143 C 
ATOM     18  C   UNL     1       3.878   2.258   0.000  0.00  0.00    +0.035 C 
ATOM     19  C   UNL     1       4.133   3.043   0.000  0.00  0.00    +0.042 C 
ENDBRANCH  13  15
ENDBRANCH   3  12
TORSDOF 3
