REMARK  Name = 
REMARK  2 active torsions:
REMARK  status: ('A' for Active; 'I' for Inactive)
REMARK    1  A    between atoms: N_11  and  C_12
REMARK    2  A    between atoms: N_14  and  C_18
REMARK                            x       y       z     vdW  Elec       q    Type
REMARK                         _______ _______ _______ _____ _____    ______ ____
ROOT
ATOM      1  C   UNL     1       1.322   3.238   0.000  0.00  0.00    +0.031 C 
ATOM      2  C   UNL     1       2.037   3.651   0.000  0.00  0.00    -0.018 A 
ATOM      3  C   UNL     1       2.751   3.238   0.000  0.00  0.00    +0.032 A 
ATOM      4  C   UNL     1       3.466   3.651   0.000  0.00  0.00    +0.155 A 
ATOM      5  N   UNL     1       4.180   3.238   0.000  0.00  0.00    -0.142 NA
ATOM      6  C   UNL     1       4.180   2.413   0.000  0.00  0.00    +0.345 C 
ATOM      7  N   UNL     1       4.895   2.001   0.000  0.00  0.00    -0.186 NA
ATOM      8  O   UNL     1       3.466   2.001   0.000  0.00  0.00    -0.249 OA
ATOM      9  N   UNL     1       3.466   4.476   0.000  0.00  0.00    -0.233 NA
ATOM     10  C   UNL     1       2.751   4.888   0.000  0.00  0.00    +0.061 A 
ATOM     11  C   UNL     1       2.751   5.713   0.000  0.00  0.00    +0.052 C 
ATOM     12  C   UNL     1       2.037   4.476   0.000  0.00  0.00    +0.011 A 
ENDROOT
BRANCH   7  13
ATOM     13  C   UNL     1       4.895   1.176   0.000  0.00  0.00    +0.126 C 
ATOM     14  C   UNL     1       4.227   0.691   0.000  0.00  0.00    +0.109 C 
ATOM     15  C   UNL     1       4.482  -0.094   0.000  0.00  0.00    +0.227 C 
ATOM     16  O   UNL     1       3.997  -0.761   0.000  0.00  0.00    -0.275 OA
ATOM     17  N   UNL     1       5.307  -0.094   0.000  0.00  0.00    -0.281 N 
ATOM     18  C   UNL     1       5.562   0.691   0.000  0.00  0.00    +0.115 C 
BRANCH  17  19
ATOM     19  C   UNL     1       5.792  -0.761   0.000  0.00  0.00    +0.060 C 
ATOM     20  C   UNL     1       6.460  -0.276   0.000  0.00  0.00    +0.020 C 
ATOM     21  C   UNL     1       5.125  -1.246   0.000  0.00  0.00    +0.020 C 
ATOM     22  C   UNL     1       6.277  -1.429   0.000  0.00  0.00    +0.020 C 
ENDBRANCH  17  19
ENDBRANCH   7  13
TORSDOF 2
