REMARK  Name = 
REMARK  1 active torsions:
REMARK  status: ('A' for Active; 'I' for Inactive)
REMARK    1  A    between atoms: C_9  and  N_11
REMARK                            x       y       z     vdW  Elec       q    Type
REMARK                         _______ _______ _______ _____ _____    ______ ____
ROOT
ATOM      1  C   UNL     1       0.721  -0.515   0.000  0.00  0.00    +0.090 C 
ATOM      2  N   UNL     1       1.388  -0.030   0.000  0.00  0.00    -0.274 NA
ATOM      3  C   UNL     1       1.658  -1.108   0.000  0.00  0.00    +0.059 C 
ATOM      4  C   UNL     1       2.420  -0.792   0.000  0.00  0.00    +0.038 C 
ATOM      5  C   UNL     1       2.736  -0.030   0.000  0.00  0.00    +0.100 C 
ATOM      6  C   UNL     1       2.420   0.733   0.000  0.00  0.00    +0.038 C 
ATOM      7  C   UNL     1       0.895  -0.792   0.000  0.00  0.00    +0.016 C 
ATOM      8  C   UNL     1       0.580  -0.030   0.000  0.00  0.00    +0.003 C 
ATOM      9  C   UNL     1       0.895   0.733   0.000  0.00  0.00    +0.016 C 
ATOM     10  C   UNL     1       1.658   1.048   0.000  0.00  0.00    +0.059 C 
ENDROOT
BRANCH   5  11
ATOM     11  N   UNL     1       3.561  -0.030   0.000  0.00  0.00    -0.189 NA
ATOM     12  C   UNL     1       3.973   0.685   0.000  0.00  0.00    +0.347 C 
ATOM     13  N   UNL     1       3.561   1.399   0.000  0.00  0.00    -0.108 NA
ATOM     14  C   UNL     1       3.973   2.114   0.000  0.00  0.00    +0.317 A 
ATOM     15  O   UNL     1       4.794   2.200   0.000  0.00  0.00    -0.419 OA
ATOM     16  C   UNL     1       4.965   3.007   0.000  0.00  0.00    +0.204 A 
ATOM     17  C   UNL     1       4.251   3.419   0.000  0.00  0.00    +0.144 A 
ATOM     18  N   UNL     1       3.638   2.867   0.000  0.00  0.00    -0.191 NA
ATOM     19  O   UNL     1       4.798   0.685   0.000  0.00  0.00    -0.249 OA
ENDBRANCH   5  11
TORSDOF 1
