REMARK  Name = 
REMARK  2 active torsions:
REMARK  status: ('A' for Active; 'I' for Inactive)
REMARK    1  A    between atoms: C_6  and  N_7
REMARK    2  A    between atoms: N_10  and  C_11
REMARK                            x       y       z     vdW  Elec       q    Type
REMARK                         _______ _______ _______ _____ _____    ______ ____
ROOT
ATOM      1  N   UNL     1       0.663  -4.631   0.000  0.00  0.00    -0.160 NA
ATOM      2  C   UNL     1      -0.051  -4.219   0.000  0.00  0.00    +0.344 C 
ATOM      3  N   UNL     1      -0.766  -4.631   0.000  0.00  0.00    -0.179 NA
ATOM      4  O   UNL     1      -0.051  -3.394   0.000  0.00  0.00    -0.249 OA
ENDROOT
BRANCH   1   9
ATOM      5  C   UNL     1       2.092  -2.156   0.000  0.00  0.00    +0.053 C 
ATOM      6  C   UNL     1       2.092  -2.981   0.000  0.00  0.00    +0.071 A 
ATOM      7  C   UNL     1       1.378  -3.394   0.000  0.00  0.00    +0.087 A 
ATOM      8 CL   UNL     1       0.663  -2.981   0.000  0.00  0.00    -0.080 Cl
ATOM      9  C   UNL     1       1.378  -4.219   0.000  0.00  0.00    +0.088 A 
ATOM     10  C   UNL     1       2.092  -4.631   0.000  0.00  0.00    +0.038 A 
ATOM     11  C   UNL     1       2.807  -4.219   0.000  0.00  0.00    +0.100 A 
ATOM     12  N   UNL     1       2.807  -3.394   0.000  0.00  0.00    -0.247 NA
ENDBRANCH   1   9
BRANCH   3  13
ATOM     13  C   UNL     1      -1.480  -4.219   0.000  0.00  0.00    +0.174 C 
ATOM     14  C   UNL     1      -1.419  -3.396   0.000  0.00  0.00    +0.261 C 
ATOM     15  O   UNL     1      -0.651  -3.095   0.000  0.00  0.00    -0.271 OA
ATOM     16  N   UNL     1      -2.023  -2.835   0.000  0.00  0.00    -0.204 NA
ATOM     17  C   UNL     1      -2.839  -2.958   0.000  0.00  0.00    +0.115 C 
ATOM     18  C   UNL     1      -3.252  -3.672   0.000  0.00  0.00    +0.024 C 
ATOM     19  C   UNL     1      -2.950  -4.441   0.000  0.00  0.00    +0.004 C 
ATOM     20  C   UNL     1      -2.162  -4.684   0.000  0.00  0.00    +0.031 C 
ENDBRANCH   3  13
TORSDOF 2
