REMARK  Name = 
REMARK  6 active torsions:
REMARK  status: ('A' for Active; 'I' for Inactive)
REMARK    1  A    between atoms: C_2  and  N_3
REMARK    2  A    between atoms: C_4  and  C_6
REMARK    3  A    between atoms: C_6  and  N_7
REMARK    4  A    between atoms: N_11  and  C_12
REMARK    5  A    between atoms: C_12  and  C_14
REMARK    6  A    between atoms: C_14  and  O_15
REMARK                            x       y       z     vdW  Elec       q    Type
REMARK                         _______ _______ _______ _____ _____    ______ ____
ROOT
ATOM      1  N   UNL     1      -0.476   1.044   0.000  0.00  0.00    -0.239 N 
ATOM      2  N   UNL     1       0.331   1.216   0.000  0.00  0.00    -0.152 NA
ATOM      3  C   UNL     1       0.418   2.036   0.000  0.00  0.00    +0.169 A 
ATOM      4  N   UNL     1       1.132   2.449   0.000  0.00  0.00    -0.218 NA
ATOM      5  C   UNL     1      -0.336   2.372   0.000  0.00  0.00    +0.058 A 
ATOM      6  C   UNL     1      -0.888   1.759   0.000  0.00  0.00    +0.099 A 
ENDROOT
BRANCH   4   7
ATOM      7  C   UNL     1       1.847   2.036   0.000  0.00  0.00    +0.124 C 
ATOM      8  C   UNL     1       1.847   1.211   0.000  0.00  0.00    +0.026 C 
BRANCH   7   9
ATOM      9  C   UNL     1       2.561   2.449   0.000  0.00  0.00    +0.164 C 
BRANCH   9  10
ATOM     10  O   UNL     1       3.276   2.036   0.000  0.00  0.00    -0.349 OA
ATOM     11  C   UNL     1       3.990   2.449   0.000  0.00  0.00    +0.174 C 
ENDBRANCH   9  10
ENDBRANCH   7   9
ENDBRANCH   4   7
BRANCH   1  12
ATOM     12  C   UNL     1      -0.811   0.290   0.000  0.00  0.00    +0.214 C 
BRANCH  12  14
ATOM     13  N   UNL     1      -1.967  -0.549   0.000  0.00  0.00    -0.204 NA
ATOM     14  C   UNL     1      -1.632   0.204   0.000  0.00  0.00    +0.266 C 
ATOM     15  O   UNL     1      -2.117   0.872   0.000  0.00  0.00    -0.271 OA
BRANCH  13  17
ATOM     16  C   UNL     1      -3.123  -1.389   0.000  0.00  0.00    +0.025 C 
ATOM     17  C   UNL     1      -2.788  -0.636   0.000  0.00  0.00    +0.115 C 
ENDBRANCH  13  17
ENDBRANCH  12  14
ENDBRANCH   1  12
TORSDOF 6
