REMARK  Name = 
REMARK  3 active torsions:
REMARK  status: ('A' for Active; 'I' for Inactive)
REMARK    1  A    between atoms: C_2  and  C_4
REMARK    2  A    between atoms: C_4  and  C_5
REMARK    3  A    between atoms: C_10  and  C_12
REMARK                            x       y       z     vdW  Elec       q    Type
REMARK                         _______ _______ _______ _____ _____    ______ ____
ROOT
ATOM      1  C   UNL     1       2.318  -1.961   0.000  0.00  0.00    +0.077 A 
ATOM      2  N   UNL     1       1.651  -2.446   0.000  0.00  0.00    -0.226 NA
ATOM      3  C   UNL     1       1.906  -3.231   0.000  0.00  0.00    +0.186 A 
ATOM      4  N   UNL     1       1.421  -3.898   0.000  0.00  0.00    -0.154 NA
ATOM      5  C   UNL     1       1.756  -4.652   0.000  0.00  0.00    +0.247 C 
ATOM      6  O   UNL     1       2.577  -4.738   0.000  0.00  0.00    -0.273 OA
ATOM      7  S   UNL     1       2.731  -3.231   0.000  0.00  0.00    -0.049 S 
ATOM      8  C   UNL     1       2.986  -2.446   0.000  0.00  0.00    +0.053 A 
ENDROOT
BRANCH   5   9
ATOM      9  C   UNL     1       1.272  -5.319   0.000  0.00  0.00    +0.079 C 
ATOM     10  C   UNL     1       0.447  -5.319   0.000  0.00  0.00    +0.009 C 
ATOM     11  C   UNL     1       0.192  -6.104   0.000  0.00  0.00    +0.001 C 
ATOM     12  C   UNL     1       0.859  -6.589   0.000  0.00  0.00    +0.001 C 
ATOM     13  C   UNL     1       1.526  -6.104   0.000  0.00  0.00    +0.009 C 
ENDBRANCH   5   9
BRANCH   1  14
ATOM     14  C   UNL     1       2.318  -1.136   0.000  0.00  0.00    +0.135 C 
BRANCH  14  16
ATOM     15  N   UNL     1       3.033   0.101   0.000  0.00  0.00    -0.087 NA
ATOM     16  C   UNL     1       3.033  -0.724   0.000  0.00  0.00    +0.267 C 
ATOM     17  O   UNL     1       3.747  -1.136   0.000  0.00  0.00    -0.271 OA
ENDBRANCH  14  16
ENDBRANCH   1  14
TORSDOF 3
