REMARK  Name = 
REMARK  5 active torsions:
REMARK  status: ('A' for Active; 'I' for Inactive)
REMARK    1  A    between atoms: C_2  and  N_3
REMARK    2  A    between atoms: C_2  and  C_16
REMARK    3  A    between atoms: N_6  and  C_7
REMARK    4  A    between atoms: N_10  and  C_11
REMARK    5  A    between atoms: C_11  and  C_12
REMARK                            x       y       z     vdW  Elec       q    Type
REMARK                         _______ _______ _______ _____ _____    ______ ____
ROOT
ATOM      1  N   UNL     1       1.847  -1.211   0.000  0.00  0.00    -0.186 NA
ATOM      2  C   UNL     1       2.561  -1.624   0.000  0.00  0.00    +0.344 C 
ATOM      3  N   UNL     1       3.276  -1.211   0.000  0.00  0.00    -0.158 NA
ATOM      4  O   UNL     1       2.561  -2.449   0.000  0.00  0.00    -0.249 OA
ENDROOT
BRANCH   3   5
ATOM      5  C   UNL     1       3.990  -1.624   0.000  0.00  0.00    +0.115 A 
ATOM      6  C   UNL     1       4.076  -2.444   0.000  0.00  0.00    +0.114 A 
ATOM      7  N   UNL     1       4.883  -2.616   0.000  0.00  0.00    -0.239 N 
ATOM      8  N   UNL     1       5.296  -1.901   0.000  0.00  0.00    -0.166 NA
ATOM      9  C   UNL     1       4.744  -1.288   0.000  0.00  0.00    +0.138 A 
BRANCH   7  10
ATOM     10  C   UNL     1       5.219  -3.369   0.000  0.00  0.00    +0.215 C 
BRANCH  10  11
ATOM     11  C   UNL     1       6.039  -3.455   0.000  0.00  0.00    +0.286 C 
ATOM     12  N   UNL     1       6.524  -2.788   0.000  0.00  0.00    -0.086 NA
ATOM     13  O   UNL     1       6.375  -4.209   0.000  0.00  0.00    -0.269 OA
ENDBRANCH  10  11
ENDBRANCH   7  10
ENDBRANCH   3   5
BRANCH   1  15
ATOM     14  C   UNL     1       1.132  -2.449   0.000  0.00  0.00    +0.026 C 
ATOM     15  C   UNL     1       1.132  -1.624   0.000  0.00  0.00    +0.124 C 
BRANCH  15  16
ATOM     16  C   UNL     1       0.418  -1.211   0.000  0.00  0.00    +0.135 C 
ATOM     17  O   UNL     1       0.331  -0.391   0.000  0.00  0.00    -0.354 OA
ATOM     18  C   UNL     1      -0.476  -0.219   0.000  0.00  0.00    +0.142 C 
ATOM     19  C   UNL     1      -0.888  -0.934   0.000  0.00  0.00    +0.035 C 
ATOM     20  C   UNL     1      -0.336  -1.547   0.000  0.00  0.00    +0.034 C 
ENDBRANCH  15  16
ENDBRANCH   1  15
TORSDOF 5
