REMARK  Name = 
REMARK  3 active torsions:
REMARK  status: ('A' for Active; 'I' for Inactive)
REMARK    1  A    between atoms: N_6  and  C_7
REMARK    2  A    between atoms: C_7  and  C_8
REMARK    3  A    between atoms: N_10  and  C_11
REMARK                            x       y       z     vdW  Elec       q    Type
REMARK                         _______ _______ _______ _____ _____    ______ ____
ROOT
ATOM      1  C   UNL     1       1.971  -1.034   0.000  0.00  0.00    +0.264 C 
ATOM      2  N   UNL     1       1.187  -0.779   0.000  0.00  0.00    -0.206 NA
ATOM      3  O   UNL     1       2.584  -0.482   0.000  0.00  0.00    -0.271 OA
ENDROOT
BRANCH   2   4
ATOM      4  C   UNL     1       1.015   0.028   0.000  0.00  0.00    +0.095 C 
ATOM      5  C   UNL     1       1.567   0.641   0.000  0.00  0.00    +0.022 C 
ATOM      6  C   UNL     1       1.155   1.355   0.000  0.00  0.00    +0.002 C 
ATOM      7  C   UNL     1       0.348   1.184   0.000  0.00  0.00    +0.002 C 
ATOM      8  C   UNL     1       0.262   0.363   0.000  0.00  0.00    +0.022 C 
ENDBRANCH   2   4
BRANCH   1   9
ATOM      9  C   UNL     1       2.143  -1.841   0.000  0.00  0.00    +0.195 C 
BRANCH   9  12
ATOM     10  N   UNL     1       3.595  -0.786   0.000  0.00  0.00    -0.121 NA
ATOM     11  C   UNL     1       3.595  -1.611   0.000  0.00  0.00    +0.197 A 
ATOM     12  N   UNL     1       2.928  -2.096   0.000  0.00  0.00    -0.296 N 
ATOM     13  C   UNL     1       3.182  -2.881   0.000  0.00  0.00    +0.085 A 
ATOM     14  C   UNL     1       4.007  -2.881   0.000  0.00  0.00    +0.057 A 
ATOM     15  S   UNL     1       4.262  -2.096   0.000  0.00  0.00    -0.047 S 
ENDBRANCH   9  12
ENDBRANCH   1   9
TORSDOF 3
