REMARK  Name = 
REMARK  2 active torsions:
REMARK  status: ('A' for Active; 'I' for Inactive)
REMARK    1  A    between atoms: C_2  and  C_3
REMARK    2  A    between atoms: C_8  and  N_10
REMARK                            x       y       z     vdW  Elec       q    Type
REMARK                         _______ _______ _______ _____ _____    ______ ____
ROOT
ATOM      1  N   UNL     1       1.854  -4.474   0.000  0.00  0.00    -0.187 NA
ATOM      2  C   UNL     1       1.033  -4.387   0.000  0.00  0.00    +0.345 C 
ATOM      3  N   UNL     1       0.548  -5.055   0.000  0.00  0.00    -0.142 NA
ATOM      4  C   UNL     1      -0.272  -4.969   0.000  0.00  0.00    +0.155 A 
ATOM      5  N   UNL     1      -0.608  -4.215   0.000  0.00  0.00    -0.233 NA
ATOM      6  C   UNL     1      -1.428  -4.129   0.000  0.00  0.00    +0.061 A 
ATOM      7  C   UNL     1      -1.764  -3.375   0.000  0.00  0.00    +0.052 C 
ATOM      8  C   UNL     1      -1.913  -4.796   0.000  0.00  0.00    +0.011 A 
ATOM      9  C   UNL     1      -1.577  -5.550   0.000  0.00  0.00    -0.018 A 
ATOM     10  C   UNL     1      -2.062  -6.217   0.000  0.00  0.00    +0.031 C 
ATOM     11  C   UNL     1      -0.757  -5.636   0.000  0.00  0.00    +0.032 A 
ATOM     12  O   UNL     1       0.698  -3.634   0.000  0.00  0.00    -0.249 OA
ENDROOT
BRANCH   1  16
ATOM     13  C   UNL     1       2.751  -1.712   0.000  0.00  0.00    +0.226 C 
ATOM     14  N   UNL     1       2.751  -2.537   0.000  0.00  0.00    -0.278 N 
ATOM     15  C   UNL     1       2.084  -3.022   0.000  0.00  0.00    +0.115 C 
ATOM     16  C   UNL     1       2.339  -3.806   0.000  0.00  0.00    +0.118 C 
ATOM     17  C   UNL     1       3.164  -3.806   0.000  0.00  0.00    +0.045 C 
ATOM     18  C   UNL     1       3.419  -3.022   0.000  0.00  0.00    +0.095 C 
ATOM     19  O   UNL     1       2.037  -1.299   0.000  0.00  0.00    -0.275 OA
BRANCH  13  21
ATOM     20  C   UNL     1       3.466  -0.474   0.000  0.00  0.00    +0.010 C 
ATOM     21  C   UNL     1       3.466  -1.299   0.000  0.00  0.00    +0.085 C 
ENDBRANCH  13  21
ENDBRANCH   1  16
TORSDOF 2
