REMARK  Name = 
REMARK  2 active torsions:
REMARK  status: ('A' for Active; 'I' for Inactive)
REMARK    1  A    between atoms: N_6  and  C_7
REMARK    2  A    between atoms: C_7  and  C_8
REMARK                            x       y       z     vdW  Elec       q    Type
REMARK                         _______ _______ _______ _____ _____    ______ ____
ROOT
ATOM      1  C   UNL     1       2.533   0.170   0.000  0.00  0.00    +0.072 C 
ATOM      2  C   UNL     1       2.533  -0.655   0.000  0.00  0.00    +0.121 A 
ATOM      3  N   UNL     1       1.865  -1.140   0.000  0.00  0.00    -0.312 N 
ATOM      4  C   UNL     1       2.120  -1.925   0.000  0.00  0.00    +0.098 A 
ATOM      5  C   UNL     1       2.946  -1.925   0.000  0.00  0.00    +0.119 A 
ATOM      6  N   UNL     1       3.200  -1.140   0.000  0.00  0.00    -0.229 NA
ENDROOT
BRANCH   3   7
ATOM      7  C   UNL     1       1.081  -0.885   0.000  0.00  0.00    +0.124 C 
BRANCH   7   8
ATOM      8  C   UNL     1       0.909  -0.078   0.000  0.00  0.00    +0.095 C 
ATOM      9  N   UNL     1       1.461   0.535   0.000  0.00  0.00    -0.217 NA
ATOM     10  C   UNL     1       1.049   1.249   0.000  0.00  0.00    +0.089 C 
ATOM     11  C   UNL     1       0.242   1.078   0.000  0.00  0.00    +0.020 C 
ATOM     12  C   UNL     1       0.156   0.257   0.000  0.00  0.00    +0.021 C 
ENDBRANCH   7   8
ENDBRANCH   3   7
TORSDOF 2
