REMARK  Name = 
REMARK  4 active torsions:
REMARK  status: ('A' for Active; 'I' for Inactive)
REMARK    1  A    between atoms: S_2  and  C_3
REMARK    2  A    between atoms: C_3  and  C_5
REMARK    3  A    between atoms: N_7  and  C_8
REMARK    4  A    between atoms: C_8  and  C_9
REMARK                            x       y       z     vdW  Elec       q    Type
REMARK                         _______ _______ _______ _____ _____    ______ ____
ROOT
ATOM      1  C   UNL     1       7.145  -4.950   0.000  0.00  0.00    +0.004 A 
ATOM      2  C   UNL     1       7.859  -5.362   0.000  0.00  0.00    +0.032 A 
ATOM      3  C   UNL     1       8.574  -4.950   0.000  0.00  0.00    +0.132 A 
ATOM      4  N   UNL     1       9.288  -5.362   0.000  0.00  0.00    -0.288 N 
ATOM      5  C   UNL     1       9.288  -6.188   0.000  0.00  0.00    +0.124 C 
ATOM      6  C   UNL     1      10.003  -6.600   0.000  0.00  0.00    +0.164 C 
ATOM      7  O   UNL     1      10.717  -6.188   0.000  0.00  0.00    -0.350 OA
ATOM      8  C   UNL     1      10.717  -5.362   0.000  0.00  0.00    +0.164 C 
ATOM      9  C   UNL     1      10.003  -4.950   0.000  0.00  0.00    +0.124 C 
ATOM     10  N   UNL     1       8.574  -4.125   0.000  0.00  0.00    -0.229 NA
ATOM     11  C   UNL     1       7.859  -3.712   0.000  0.00  0.00    +0.100 A 
ATOM     12  C   UNL     1       7.145  -4.125   0.000  0.00  0.00    +0.018 A 
ENDROOT
BRANCH   1  13
ATOM     13  C   UNL     1       6.430  -5.362   0.000  0.00  0.00    +0.142 C 
BRANCH  13  15
ATOM     14  C   UNL     1       5.001  -5.362   0.000  0.00  0.00    +0.251 C 
ATOM     15  N   UNL     1       5.716  -4.950   0.000  0.00  0.00    -0.200 NA
ATOM     16  O   UNL     1       5.001  -6.188   0.000  0.00  0.00    -0.272 OA
BRANCH  14  17
ATOM     17  C   UNL     1       4.287  -4.950   0.000  0.00  0.00    +0.126 C 
ATOM     18  C   UNL     1       4.287  -4.125   0.000  0.00  0.00    +0.021 C 
BRANCH  17  20
ATOM     19  C   UNL     1       2.858  -4.950   0.000  0.00  0.00    +0.070 C 
ATOM     20  S   UNL     1       3.572  -5.362   0.000  0.00  0.00    -0.131 S 
ENDBRANCH  17  20
ENDBRANCH  14  17
ENDBRANCH  13  15
ENDBRANCH   1  13
TORSDOF 4
