REMARK  Name = 
REMARK  6 active torsions:
REMARK  status: ('A' for Active; 'I' for Inactive)
REMARK    1  A    between atoms: N_1  and  C_2
REMARK    2  A    between atoms: C_12  and  C_19
REMARK    3  A    between atoms: C_13  and  C_21
REMARK    4  A    between atoms: C_16  and  O_18
REMARK    5  A    between atoms: C_16  and  C_23
REMARK    6  A    between atoms: O_18  and  C_19
REMARK                            x       y       z     vdW  Elec       q    Type
REMARK                         _______ _______ _______ _____ _____    ______ ____
ROOT
ATOM      1  N   UNL     1       1.137  -1.363   0.000  0.00  0.00    -0.269 N 
ATOM      2  C   UNL     1       0.650  -0.696   0.000  0.00  0.00    +0.182 A 
ATOM      3  N   UNL     1       1.137  -0.029   0.000  0.00  0.00    -0.219 NA
ATOM      4  C   UNL     1       1.921  -0.283   0.000  0.00  0.00    +0.150 A 
ATOM      5  C   UNL     1       2.638   0.129   0.000  0.00  0.00    +0.177 A 
ATOM      6  N   UNL     1       3.350  -0.283   0.000  0.00  0.00    -0.205 NA
ATOM      7  C   UNL     1       3.350  -1.108   0.000  0.00  0.00    +0.202 A 
ATOM      8  N   UNL     1       2.638  -1.521   0.000  0.00  0.00    -0.205 NA
ATOM      9  N   UNL     1       2.638   0.954   0.000  0.00  0.00    -0.155 NA
ATOM     10  C   UNL     1       1.921   1.367   0.000  0.00  0.00    +0.270 C 
ATOM     11  O   UNL     1       1.208   0.954   0.000  0.00  0.00    -0.268 OA
ATOM     12  C   UNL     1       1.921  -1.108   0.000  0.00  0.00    +0.169 A 
ENDROOT
BRANCH   1  13
ATOM     13  C   UNL     1       0.883  -2.150   0.000  0.00  0.00    +0.241 C 
ATOM     14  O   UNL     1       0.096  -2.404   0.000  0.00  0.00    -0.329 OA
ATOM     15  C   UNL     1       0.096  -3.229   0.000  0.00  0.00    +0.196 C 
ATOM     16  C   UNL     1       0.883  -3.483   0.000  0.00  0.00    +0.226 C 
ATOM     17  F   UNL     1       1.137  -4.267   0.000  0.00  0.00    -0.232 F 
ATOM     18  C   UNL     1       1.367  -2.817   0.000  0.00  0.00    +0.236 C 
ATOM     19  O   UNL     1       2.192  -2.817   0.000  0.00  0.00    -0.215 OA
BRANCH  15  20
ATOM     20  C   UNL     1      -0.571  -3.712   0.000  0.00  0.00    +0.241 C 
BRANCH  20  21
ATOM     21  O   UNL     1      -0.483  -4.533   0.000  0.00  0.00    -0.443 OA
BRANCH  21  22
ATOM     22  C   UNL     1      -1.150  -5.017   0.000  0.00  0.00    +0.341 C 
ATOM     23  O   UNL     1      -1.904  -4.683   0.000  0.00  0.00    -0.245 OA
BRANCH  22  24
ATOM     24  C   UNL     1      -1.067  -5.838   0.000  0.00  0.00    +0.076 A 
ATOM     25  C   UNL     1      -0.312  -6.175   0.000  0.00  0.00    +0.006 A 
ATOM     26  C   UNL     1      -0.225  -6.996   0.000  0.00  0.00    +0.000 A 
ATOM     27  C   UNL     1      -0.892  -7.479   0.000  0.00  0.00    +0.000 A 
ATOM     28  C   UNL     1      -1.646  -7.146   0.000  0.00  0.00    +0.000 A 
ATOM     29  C   UNL     1      -1.733  -6.325   0.000  0.00  0.00    +0.006 A 
ENDBRANCH  22  24
ENDBRANCH  21  22
ENDBRANCH  20  21
ENDBRANCH  15  20
ENDBRANCH   1  13
BRANCH  10  30
ATOM     30  C   UNL     1       1.921   2.192   0.000  0.00  0.00    +0.055 A 
ATOM     31  C   UNL     1       2.638   2.604   0.000  0.00  0.00    +0.005 A 
ATOM     32  C   UNL     1       2.638   3.429   0.000  0.00  0.00    +0.000 A 
ATOM     33  C   UNL     1       1.921   3.842   0.000  0.00  0.00    +0.000 A 
ATOM     34  C   UNL     1       1.208   3.429   0.000  0.00  0.00    +0.000 A 
ATOM     35  C   UNL     1       1.208   2.604   0.000  0.00  0.00    +0.005 A 
ENDBRANCH  10  30
TORSDOF 6
