REMARK  Name = 
REMARK  3 active torsions:
REMARK  status: ('A' for Active; 'I' for Inactive)
REMARK    1  A    between atoms: C_2  and  C_3
REMARK    2  A    between atoms: C_3  and  N_4
REMARK    3  A    between atoms: C_7  and  N_10
REMARK                            x       y       z     vdW  Elec       q    Type
REMARK                         _______ _______ _______ _____ _____    ______ ____
ROOT
ATOM      1  N   UNL     1      -2.143  -3.712   0.000  0.00  0.00    -0.189 NA
ATOM      2  C   UNL     1      -2.858  -4.125   0.000  0.00  0.00    +0.345 C 
ATOM      3  N   UNL     1      -2.858  -4.950   0.000  0.00  0.00    -0.140 NA
ATOM      4  C   UNL     1      -2.143  -5.362   0.000  0.00  0.00    +0.177 A 
ATOM      5  N   UNL     1      -2.143  -6.188   0.000  0.00  0.00    -0.131 NA
ATOM      6  N   UNL     1      -1.429  -6.600   0.000  0.00  0.00    -0.145 NA
ATOM      7  C   UNL     1      -0.715  -6.188   0.000  0.00  0.00    +0.122 A 
ATOM      8  C   UNL     1      -0.715  -5.362   0.000  0.00  0.00    +0.025 A 
ATOM      9  C   UNL     1      -1.429  -4.950   0.000  0.00  0.00    +0.040 A 
ATOM     10  O   UNL     1      -3.572  -3.712   0.000  0.00  0.00    -0.249 OA
ENDROOT
BRANCH   1  14
ATOM     11  N   UNL     1      -2.143  -1.238   0.000  0.00  0.00    -0.273 NA
ATOM     12  C   UNL     1      -2.858  -1.650   0.000  0.00  0.00    +0.074 C 
ATOM     13  C   UNL     1      -2.858  -2.475   0.000  0.00  0.00    +0.039 C 
ATOM     14  C   UNL     1      -2.143  -2.888   0.000  0.00  0.00    +0.100 C 
ATOM     15  C   UNL     1      -1.429  -2.475   0.000  0.00  0.00    +0.039 C 
ATOM     16  C   UNL     1      -1.429  -1.650   0.000  0.00  0.00    +0.074 C 
BRANCH  11  17
ATOM     17  C   UNL     1      -2.143  -0.412   0.000  0.00  0.00    +0.072 C 
BRANCH  17  19
ATOM     18  C   UNL     1      -2.858   0.825   0.000  0.00  0.00    +0.001 C 
ATOM     19  C   UNL     1      -2.858   0.000   0.000  0.00  0.00    +0.017 C 
ENDBRANCH  17  19
ENDBRANCH  11  17
ENDBRANCH   1  14
TORSDOF 3
