REMARK  Name = 
REMARK  7 active torsions:
REMARK  status: ('A' for Active; 'I' for Inactive)
REMARK    1  A    between atoms: C_2  and  C_3
REMARK    2  A    between atoms: C_2  and  N_17
REMARK    3  A    between atoms: C_3  and  N_4
REMARK    4  A    between atoms: N_4  and  C_5
REMARK    5  A    between atoms: C_5  and  C_6
REMARK    6  A    between atoms: C_5  and  C_13
REMARK    7  A    between atoms: C_6  and  C_7
REMARK                            x       y       z     vdW  Elec       q    Type
REMARK                         _______ _______ _______ _____ _____    ______ ____
ROOT
ATOM      1  C   UNL     1       2.777  -1.952   0.000  0.00  0.00    +0.172 C 
ENDROOT
BRANCH   1   2
ATOM      2  C   UNL     1       3.189  -1.238   0.000  0.00  0.00    +0.412 C 
ATOM      3  F   UNL     1       3.602  -0.523   0.000  0.00  0.00    -0.168 F 
ATOM      4  F   UNL     1       2.475  -0.825   0.000  0.00  0.00    -0.168 F 
ATOM      5  F   UNL     1       3.904  -1.650   0.000  0.00  0.00    -0.168 F 
ENDBRANCH   1   2
BRANCH   1   6
ATOM      6  N   UNL     1       1.952  -1.952   0.000  0.00  0.00    -0.209 NA
BRANCH   6   7
ATOM      7  C   UNL     1       1.540  -1.238   0.000  0.00  0.00    +0.105 C 
BRANCH   7   9
ATOM      8  C   UNL     1       0.302  -0.523   0.000  0.00  0.00    +0.019 C 
ATOM      9  C   UNL     1       0.715  -1.238   0.000  0.00  0.00    +0.075 C 
BRANCH   9  10
ATOM     10  N   UNL     1       0.302  -1.952   0.000  0.00  0.00    -0.270 NA
ATOM     11  C   UNL     1      -0.523  -1.952   0.000  0.00  0.00    +0.087 C 
ATOM     12  C   UNL     1      -0.935  -1.238   0.000  0.00  0.00    +0.020 C 
ATOM     13  C   UNL     1      -0.935  -2.666   0.000  0.00  0.00    +0.158 C 
ATOM     14  O   UNL     1      -0.523  -3.381   0.000  0.00  0.00    -0.351 OA
ATOM     15  C   UNL     1       0.302  -3.381   0.000  0.00  0.00    +0.159 C 
ATOM     16  C   UNL     1       0.715  -2.666   0.000  0.00  0.00    +0.105 C 
ENDBRANCH   9  10
ENDBRANCH   7   9
ENDBRANCH   6   7
ENDBRANCH   1   6
BRANCH   1  17
ATOM     17  C   UNL     1       3.189  -2.666   0.000  0.00  0.00    +0.053 C 
BRANCH  17  18
ATOM     18  C   UNL     1       4.014  -2.666   0.000  0.00  0.00    -0.017 A 
ATOM     19  C   UNL     1       4.427  -3.381   0.000  0.00  0.00    +0.016 A 
ATOM     20  C   UNL     1       5.252  -3.381   0.000  0.00  0.00    +0.099 A 
ATOM     21  N   UNL     1       5.665  -2.666   0.000  0.00  0.00    -0.242 NA
ATOM     22  C   UNL     1       5.252  -1.952   0.000  0.00  0.00    +0.099 A 
ATOM     23  C   UNL     1       4.427  -1.952   0.000  0.00  0.00    +0.016 A 
ENDBRANCH  17  18
ENDBRANCH   1  17
TORSDOF 7
