REMARK  Name = 
REMARK  4 active torsions:
REMARK  status: ('A' for Active; 'I' for Inactive)
REMARK    1  A    between atoms: C_2  and  C_12
REMARK    2  A    between atoms: N_3  and  C_4
REMARK    3  A    between atoms: C_4  and  C_5
REMARK    4  A    between atoms: C_5  and  C_6
REMARK                            x       y       z     vdW  Elec       q    Type
REMARK                         _______ _______ _______ _____ _____    ______ ____
ROOT
ATOM      1  O   UNL     1       1.566  -2.896   0.000  0.00  0.00    -0.273 OA
ATOM      2  C   UNL     1       0.852  -2.483   0.000  0.00  0.00    +0.240 C 
ATOM      3  N   UNL     1       0.137  -2.896   0.000  0.00  0.00    -0.205 NA
ENDROOT
BRANCH   2   4
ATOM      4  C   UNL     1       0.852  -1.659   0.000  0.00  0.00    +0.070 C 
ATOM      5  C   UNL     1       0.852  -0.911   0.000  0.00  0.00    +0.009 C 
ATOM      6  C   UNL     1       1.301  -0.121   0.000  0.00  0.00    +0.000 C 
ATOM      7  C   UNL     1       2.037  -0.494   0.000  0.00  0.00    +0.000 C 
ATOM      8  C   UNL     1       2.037  -1.242   0.000  0.00  0.00    +0.000 C 
ATOM      9  C   UNL     1       1.301  -1.616   0.000  0.00  0.00    +0.000 C 
ATOM     10  C   UNL     1       0.566  -1.242   0.000  0.00  0.00    +0.000 C 
ATOM     11  C   UNL     1       0.566  -0.494   0.000  0.00  0.00    +0.000 C 
ATOM     12  C   UNL     1       1.587  -2.032   0.000  0.00  0.00    +0.009 C 
ATOM     13  C   UNL     1       0.116  -2.032   0.000  0.00  0.00    +0.009 C 
ENDBRANCH   2   4
BRANCH   3  14
ATOM     14  C   UNL     1       0.137  -3.721   0.000  0.00  0.00    +0.121 C 
BRANCH  14  15
ATOM     15  C   UNL     1      -0.577  -4.134   0.000  0.00  0.00    +0.069 C 
BRANCH  15  16
ATOM     16  C   UNL     1      -0.577  -4.959   0.000  0.00  0.00    +0.061 A 
ATOM     17  N   UNL     1      -1.292  -5.371   0.000  0.00  0.00    -0.248 NA
ATOM     18  C   UNL     1      -1.292  -6.196   0.000  0.00  0.00    +0.098 A 
ATOM     19  C   UNL     1      -0.577  -6.609   0.000  0.00  0.00    +0.021 A 
ATOM     20  C   UNL     1       0.138  -6.196   0.000  0.00  0.00    +0.003 A 
ATOM     21  C   UNL     1       0.137  -5.371   0.000  0.00  0.00    +0.015 A 
ENDBRANCH  15  16
ENDBRANCH  14  15
ENDBRANCH   3  14
TORSDOF 4
