REMARK  Name = 
REMARK  9 active torsions:
REMARK  status: ('A' for Active; 'I' for Inactive)
REMARK    1  A    between atoms: N_1  and  C_3
REMARK    2  A    between atoms: C_2  and  S_8
REMARK    3  A    between atoms: C_7  and  O_14
REMARK    4  A    between atoms: C_10  and  O_16
REMARK    5  A    between atoms: C_11  and  C_23
REMARK    6  A    between atoms: O_14  and  C_18
REMARK    7  A    between atoms: O_16  and  C_19
REMARK    8  A    between atoms: C_22  and  O_24
REMARK    9  A    between atoms: C_23  and  O_24
REMARK                            x       y       z     vdW  Elec       q    Type
REMARK                         _______ _______ _______ _____ _____    ______ ____
ROOT
ATOM      1  C   UNL     1       0.883  -2.150   0.000  0.00  0.00    +0.253 C 
ATOM      2  O   UNL     1       0.096  -2.404   0.000  0.00  0.00    -0.327 OA
ATOM      3  C   UNL     1       0.096  -3.229   0.000  0.00  0.00    +0.204 C 
ATOM      4  C   UNL     1       0.883  -3.483   0.000  0.00  0.00    +0.244 C 
ATOM      5  C   UNL     1       1.367  -2.817   0.000  0.00  0.00    +0.260 C 
ENDROOT
BRANCH   1   6
ATOM      6  N   UNL     1       1.137  -1.363   0.000  0.00  0.00    -0.256 N 
ATOM      7  C   UNL     1       1.921  -1.108   0.000  0.00  0.00    +0.170 A 
ATOM      8  N   UNL     1       2.638  -1.521   0.000  0.00  0.00    -0.205 NA
ATOM      9  C   UNL     1       3.350  -1.108   0.000  0.00  0.00    +0.202 A 
ATOM     10  N   UNL     1       3.350  -0.283   0.000  0.00  0.00    -0.204 NA
ATOM     11  C   UNL     1       2.638   0.129   0.000  0.00  0.00    +0.192 A 
ATOM     12  N   UNL     1       2.638   0.954   0.000  0.00  0.00    -0.105 NA
ATOM     13  C   UNL     1       1.921  -0.283   0.000  0.00  0.00    +0.153 A 
ATOM     14  N   UNL     1       1.137  -0.029   0.000  0.00  0.00    -0.206 NA
ATOM     15  C   UNL     1       0.650  -0.696   0.000  0.00  0.00    +0.257 A 
BRANCH  15  16
ATOM     16  S   UNL     1      -0.175  -0.696   0.000  0.00  0.00    +0.043 S 
ATOM     17  C   UNL     1      -0.175  -1.521   0.000  0.00  0.00    +0.185 C 
ATOM     18  O   UNL     1      -0.175   0.129   0.000  0.00  0.00    -0.166 OA
ATOM     19  O   UNL     1      -1.000  -0.696   0.000  0.00  0.00    -0.166 OA
ENDBRANCH  15  16
ENDBRANCH   1   6
BRANCH   4  20
ATOM     20  O   UNL     1       1.137  -4.267   0.000  0.00  0.00    -0.446 OA
BRANCH  20  21
ATOM     21  C   UNL     1       0.583  -4.879   0.000  0.00  0.00    +0.318 C 
ATOM     22  C   UNL     1       0.838  -5.667   0.000  0.00  0.00    +0.121 C 
ATOM     23  O   UNL     1      -0.221  -4.708   0.000  0.00  0.00    -0.250 OA
ENDBRANCH  20  21
ENDBRANCH   4  20
BRANCH   5  24
ATOM     24  O   UNL     1       2.192  -2.817   0.000  0.00  0.00    -0.444 OA
BRANCH  24  25
ATOM     25  C   UNL     1       2.604  -3.529   0.000  0.00  0.00    +0.318 C 
ATOM     26  C   UNL     1       2.192  -4.246   0.000  0.00  0.00    +0.121 C 
ATOM     27  O   UNL     1       3.429  -3.529   0.000  0.00  0.00    -0.250 OA
ENDBRANCH  24  25
ENDBRANCH   5  24
BRANCH   3  28
ATOM     28  C   UNL     1      -0.571  -3.712   0.000  0.00  0.00    +0.242 C 
BRANCH  28  29
ATOM     29  O   UNL     1      -1.325  -3.379   0.000  0.00  0.00    -0.446 OA
BRANCH  29  30
ATOM     30  C   UNL     1      -1.408  -2.558   0.000  0.00  0.00    +0.318 C 
ATOM     31  C   UNL     1      -2.163  -2.221   0.000  0.00  0.00    +0.121 C 
ATOM     32  O   UNL     1      -0.742  -2.071   0.000  0.00  0.00    -0.250 OA
ENDBRANCH  29  30
ENDBRANCH  28  29
ENDBRANCH   3  28
TORSDOF 9
