REMARK  Name = 
REMARK  2 active torsions:
REMARK  status: ('A' for Active; 'I' for Inactive)
REMARK    1  A    between atoms: C_5  and  C_7
REMARK    2  A    between atoms: C_7  and  N_8
REMARK                            x       y       z     vdW  Elec       q    Type
REMARK                         _______ _______ _______ _____ _____    ______ ____
ROOT
ATOM      1  C   UNL     1       2.772  -0.050   0.000  0.00  0.00    +0.161 C 
ENDROOT
BRANCH   1   6
ATOM      2  C   UNL     1       2.241  -3.157   0.000  0.00  0.00    +0.000 C 
ATOM      3  C   UNL     1       2.241  -2.332   0.000  0.00  0.00    +0.000 C 
ATOM      4  C   UNL     1       2.956  -1.919   0.000  0.00  0.00    +0.003 C 
ATOM      5  C   UNL     1       2.956  -1.094   0.000  0.00  0.00    +0.032 C 
ATOM      6  C   UNL     1       2.241  -0.682   0.000  0.00  0.00    +0.149 C 
ATOM      7  O   UNL     1       1.711  -0.050   0.000  0.00  0.00    -0.224 OA
ATOM      8  C   UNL     1       1.527  -1.094   0.000  0.00  0.00    +0.032 C 
ATOM      9  C   UNL     1       1.527  -1.919   0.000  0.00  0.00    +0.003 C 
ENDBRANCH   1   6
BRANCH   1  10
ATOM     10  N   UNL     1       3.584  -0.193   0.000  0.00  0.00    -0.214 N 
ATOM     11  C   UNL     1       3.866  -0.968   0.000  0.00  0.00    +0.277 A 
ATOM     12  O   UNL     1       3.336  -1.600   0.000  0.00  0.00    -0.266 OA
ATOM     13  C   UNL     1       4.679  -1.111   0.000  0.00  0.00    +0.063 A 
ATOM     14  C   UNL     1       5.209  -0.479   0.000  0.00  0.00    +0.021 A 
ATOM     15  C   UNL     1       4.927   0.296   0.000  0.00  0.00    +0.079 A 
ATOM     16  C   UNL     1       5.457   0.928   0.000  0.00  0.00    +0.054 C 
ATOM     17  N   UNL     1       4.114   0.439   0.000  0.00  0.00    -0.171 NA
ENDBRANCH   1  10
TORSDOF 2
