REMARK  Name = 
REMARK  4 active torsions:
REMARK  status: ('A' for Active; 'I' for Inactive)
REMARK    1  A    between atoms: C_2  and  C_3
REMARK    2  A    between atoms: C_3  and  C_4
REMARK    3  A    between atoms: C_6  and  N_7
REMARK    4  A    between atoms: N_10  and  C_11
REMARK                            x       y       z     vdW  Elec       q    Type
REMARK                         _______ _______ _______ _____ _____    ______ ____
ROOT
ATOM      1  N   UNL     1      -2.968  -2.539   0.000  0.00  0.00    -0.189 NA
ATOM      2  C   UNL     1      -3.683  -2.126   0.000  0.00  0.00    +0.344 C 
ATOM      3  N   UNL     1      -4.397  -2.539   0.000  0.00  0.00    -0.159 NA
ATOM      4  O   UNL     1      -3.683  -1.301   0.000  0.00  0.00    -0.249 OA
ENDROOT
BRANCH   3   5
ATOM      5  C   UNL     1      -4.397  -3.364   0.000  0.00  0.00    +0.105 A 
ATOM      6  C   UNL     1      -5.112  -3.776   0.000  0.00  0.00    +0.174 A 
ATOM      7  F   UNL     1      -5.826  -3.364   0.000  0.00  0.00    -0.201 F 
ATOM      8  C   UNL     1      -5.112  -4.601   0.000  0.00  0.00    +0.130 A 
ATOM      9  N   UNL     1      -4.397  -5.014   0.000  0.00  0.00    -0.240 NA
ATOM     10  C   UNL     1      -3.683  -4.601   0.000  0.00  0.00    +0.100 A 
ATOM     11  C   UNL     1      -3.683  -3.776   0.000  0.00  0.00    +0.040 A 
ENDBRANCH   3   5
BRANCH   1  13
ATOM     12  C   UNL     1      -1.841  -1.412   0.000  0.00  0.00    +0.022 C 
ATOM     13  C   UNL     1      -2.254  -2.126   0.000  0.00  0.00    +0.097 C 
ATOM     14  C   UNL     1      -1.429  -2.126   0.000  0.00  0.00    +0.023 C 
BRANCH  12  15
ATOM     15  C   UNL     1      -1.841  -0.587   0.000  0.00  0.00    +0.002 C 
BRANCH  15  17
ATOM     16  C   UNL     1      -1.127   0.651   0.000  0.00  0.00    +0.000 C 
ATOM     17  C   UNL     1      -1.127  -0.174   0.000  0.00  0.00    +0.000 C 
ENDBRANCH  15  17
ENDBRANCH  12  15
ENDBRANCH   1  13
TORSDOF 4
