REMARK  Name = 
REMARK  5 active torsions:
REMARK  status: ('A' for Active; 'I' for Inactive)
REMARK    1  A    between atoms: O_2  and  C_3
REMARK    2  A    between atoms: C_3  and  C_4
REMARK    3  A    between atoms: C_4  and  N_5
REMARK    4  A    between atoms: C_7  and  C_12
REMARK    5  A    between atoms: N_14  and  C_15
REMARK                            x       y       z     vdW  Elec       q    Type
REMARK                         _______ _______ _______ _____ _____    ______ ____
ROOT
ATOM      1  N   UNL     1      -2.556   5.252   0.000  0.00  0.00    -0.214 N 
ATOM      2  C   UNL     1      -3.270   5.665   0.000  0.00  0.00    +0.277 A 
ATOM      3  O   UNL     1      -3.270   6.489   0.000  0.00  0.00    -0.266 OA
ATOM      4  C   UNL     1      -3.985   5.252   0.000  0.00  0.00    +0.064 A 
ATOM      5  C   UNL     1      -3.985   4.427   0.000  0.00  0.00    +0.030 A 
ATOM      6  C   UNL     1      -3.270   4.014   0.000  0.00  0.00    +0.156 A 
ATOM      7  N   UNL     1      -2.556   4.427   0.000  0.00  0.00    -0.162 NA
ENDROOT
BRANCH   6   8
ATOM      8  C   UNL     1      -3.270   3.189   0.000  0.00  0.00    +0.284 C 
ATOM      9  N   UNL     1      -2.556   2.777   0.000  0.00  0.00    -0.202 NA
ATOM     10  O   UNL     1      -3.985   2.777   0.000  0.00  0.00    -0.267 OA
BRANCH   9  11
ATOM     11  C   UNL     1      -2.556   1.952   0.000  0.00  0.00    +0.096 C 
ATOM     12  C   UNL     1      -2.968   1.238   0.000  0.00  0.00    +0.023 C 
ATOM     13  C   UNL     1      -2.143   1.238   0.000  0.00  0.00    +0.023 C 
ENDBRANCH   9  11
ENDBRANCH   6   8
BRANCH   1  14
ATOM     14  C   UNL     1      -1.841   5.665   0.000  0.00  0.00    +0.163 C 
BRANCH  14  15
ATOM     15  C   UNL     1      -1.841   6.489   0.000  0.00  0.00    +0.169 C 
BRANCH  15  17
ATOM     16  C   UNL     1      -1.127   7.727   0.000  0.00  0.00    +0.174 C 
ATOM     17  O   UNL     1      -1.127   6.902   0.000  0.00  0.00    -0.349 OA
ENDBRANCH  15  17
ENDBRANCH  14  15
ENDBRANCH   1  14
TORSDOF 5
