REMARK  Name = 
REMARK  4 active torsions:
REMARK  status: ('A' for Active; 'I' for Inactive)
REMARK    1  A    between atoms: C_3  and  C_5
REMARK    2  A    between atoms: C_9  and  N_10
REMARK    3  A    between atoms: N_13  and  C_14
REMARK    4  A    between atoms: C_18  and  C_20
REMARK                            x       y       z     vdW  Elec       q    Type
REMARK                         _______ _______ _______ _____ _____    ______ ____
ROOT
ATOM      1  N   UNL     1      -2.858  -4.125   0.000  0.00  0.00    -0.142 NA
ATOM      2  C   UNL     1      -2.858  -4.950   0.000  0.00  0.00    +0.345 C 
ATOM      3  N   UNL     1      -3.572  -5.362   0.000  0.00  0.00    -0.189 NA
ATOM      4  O   UNL     1      -2.143  -5.362   0.000  0.00  0.00    -0.249 OA
ENDROOT
BRANCH   1   7
ATOM      5  C   UNL     1      -1.429  -2.475   0.000  0.00  0.00    +0.138 A 
ATOM      6  N   UNL     1      -2.143  -2.888   0.000  0.00  0.00    -0.224 NA
ATOM      7  C   UNL     1      -2.143  -3.712   0.000  0.00  0.00    +0.156 A 
ATOM      8  C   UNL     1      -1.429  -4.125   0.000  0.00  0.00    +0.036 A 
ATOM      9  C   UNL     1      -0.715  -3.712   0.000  0.00  0.00    +0.005 A 
ATOM     10  C   UNL     1      -0.715  -2.888   0.000  0.00  0.00    +0.024 A 
BRANCH   5  13
ATOM     11  C   UNL     1      -0.715  -0.412   0.000  0.00  0.00    +0.139 C 
ATOM     12  N   UNL     1      -0.715  -1.238   0.000  0.00  0.00    -0.198 NA
ATOM     13  C   UNL     1      -1.429  -1.650   0.000  0.00  0.00    +0.283 C 
ATOM     14  O   UNL     1      -2.143  -1.238   0.000  0.00  0.00    -0.267 OA
ENDBRANCH   5  13
ENDBRANCH   1   7
BRANCH   3  15
ATOM     15  C   UNL     1      -3.572  -6.188   0.000  0.00  0.00    +0.097 C 
ATOM     16  C   UNL     1      -4.287  -6.600   0.000  0.00  0.00    +0.030 C 
ATOM     17  C   UNL     1      -4.287  -7.425   0.000  0.00  0.00    +0.097 C 
ATOM     18  C   UNL     1      -3.572  -7.838   0.000  0.00  0.00    +0.009 C 
ATOM     19  C   UNL     1      -2.858  -7.425   0.000  0.00  0.00    +0.002 C 
ATOM     20  C   UNL     1      -2.858  -6.600   0.000  0.00  0.00    +0.022 C 
BRANCH  17  21
ATOM     21  C   UNL     1      -5.001  -7.838   0.000  0.00  0.00    +0.398 C 
ATOM     22  F   UNL     1      -4.589  -8.552   0.000  0.00  0.00    -0.170 F 
ATOM     23  F   UNL     1      -5.414  -7.123   0.000  0.00  0.00    -0.170 F 
ATOM     24  F   UNL     1      -5.716  -8.250   0.000  0.00  0.00    -0.170 F 
ENDBRANCH  17  21
ENDBRANCH   3  15
TORSDOF 4
