REMARK  Name = 
REMARK  4 active torsions:
REMARK  status: ('A' for Active; 'I' for Inactive)
REMARK    1  A    between atoms: N_2  and  C_4
REMARK    2  A    between atoms: C_4  and  C_5
REMARK    3  A    between atoms: C_5  and  N_6
REMARK    4  A    between atoms: N_9  and  C_10
REMARK                            x       y       z     vdW  Elec       q    Type
REMARK                         _______ _______ _______ _____ _____    ______ ____
ROOT
ATOM      1  N   UNL     1       0.963  -1.820   0.000  0.00  0.00    -0.186 NA
ATOM      2  C   UNL     1       1.677  -1.407   0.000  0.00  0.00    +0.345 C 
ATOM      3  N   UNL     1       2.392  -1.820   0.000  0.00  0.00    -0.142 NA
ATOM      4  O   UNL     1       1.677  -0.582   0.000  0.00  0.00    -0.249 OA
ENDROOT
BRANCH   3   5
ATOM      5  C   UNL     1       3.106  -1.407   0.000  0.00  0.00    +0.154 A 
ATOM      6  N   UNL     1       3.860  -1.743   0.000  0.00  0.00    -0.234 N 
ATOM      7  C   UNL     1       4.031  -2.550   0.000  0.00  0.00    +0.155 C 
ATOM      8  N   UNL     1       4.412  -1.130   0.000  0.00  0.00    -0.172 NA
ATOM      9  C   UNL     1       3.999  -0.415   0.000  0.00  0.00    +0.082 A 
ATOM     10  C   UNL     1       4.335   0.338   0.000  0.00  0.00    +0.054 C 
ATOM     11  C   UNL     1       3.192  -0.587   0.000  0.00  0.00    +0.052 A 
ENDBRANCH   3   5
BRANCH   1  12
ATOM     12  C   UNL     1       0.248  -1.407   0.000  0.00  0.00    +0.131 C 
BRANCH  12  13
ATOM     13  C   UNL     1      -0.466  -1.820   0.000  0.00  0.00    +0.066 C 
ATOM     14  C   UNL     1      -0.749  -1.044   0.000  0.00  0.00    +0.016 C 
ATOM     15  C   UNL     1      -1.561  -0.901   0.000  0.00  0.00    +0.001 C 
ATOM     16  C   UNL     1      -2.091  -1.533   0.000  0.00  0.00    +0.000 C 
ATOM     17  C   UNL     1      -1.809  -2.308   0.000  0.00  0.00    +0.001 C 
ATOM     18  C   UNL     1      -0.997  -2.452   0.000  0.00  0.00    +0.016 C 
BRANCH  13  20
ATOM     19  C   UNL     1      -0.218  -3.227   0.000  0.00  0.00    +0.090 C 
ATOM     20  N   UNL     1       0.064  -2.452   0.000  0.00  0.00    -0.271 NA
ATOM     21  C   UNL     1       0.876  -2.308   0.000  0.00  0.00    +0.090 C 
ENDBRANCH  13  20
ENDBRANCH  12  13
ENDBRANCH   1  12
TORSDOF 4
