REMARK  Name = 
REMARK  6 active torsions:
REMARK  status: ('A' for Active; 'I' for Inactive)
REMARK    1  A    between atoms: C_2  and  C_3
REMARK    2  A    between atoms: C_2  and  N_9
REMARK    3  A    between atoms: C_3  and  S_4
REMARK    4  A    between atoms: S_4  and  C_5
REMARK    5  A    between atoms: N_9  and  C_10
REMARK    6  A    between atoms: C_10  and  C_11
REMARK                            x       y       z     vdW  Elec       q    Type
REMARK                         _______ _______ _______ _____ _____    ______ ____
ROOT
ATOM      1  C   UNL     1       0.715  -1.238   0.000  0.00  0.00    +0.014 A 
ATOM      2  C   UNL     1       0.000  -1.650   0.000  0.00  0.00    +0.097 A 
ATOM      3  N   UNL     1       0.000  -2.475   0.000  0.00  0.00    -0.229 NA
ATOM      4  C   UNL     1       0.715  -2.888   0.000  0.00  0.00    +0.132 A 
ATOM      5  N   UNL     1       0.715  -3.712   0.000  0.00  0.00    -0.288 N 
ATOM      6  C   UNL     1       0.000  -4.125   0.000  0.00  0.00    +0.122 C 
ATOM      7  C   UNL     1       0.000  -4.950   0.000  0.00  0.00    +0.135 C 
ATOM      8  C   UNL     1      -0.715  -5.362   0.000  0.00  0.00    +0.034 C 
ATOM      9  O   UNL     1       0.715  -5.362   0.000  0.00  0.00    -0.353 OA
ATOM     10  C   UNL     1       1.429  -4.950   0.000  0.00  0.00    +0.163 C 
ATOM     11  C   UNL     1       1.429  -4.125   0.000  0.00  0.00    +0.124 C 
ATOM     12  C   UNL     1       1.429  -2.475   0.000  0.00  0.00    +0.034 A 
ATOM     13  C   UNL     1       1.429  -1.650   0.000  0.00  0.00    +0.002 A 
ENDROOT
BRANCH   1  14
ATOM     14  C   UNL     1       0.715  -0.412   0.000  0.00  0.00    +0.116 C 
BRANCH  14  15
ATOM     15  N   UNL     1       0.000   0.000   0.000  0.00  0.00    -0.214 NA
BRANCH  15  17
ATOM     16  C   UNL     1       0.715   1.238   0.000  0.00  0.00    +0.020 C 
ATOM     17  C   UNL     1       0.000   0.825   0.000  0.00  0.00    +0.084 C 
BRANCH  17  18
ATOM     18  C   UNL     1      -0.715   1.238   0.000  0.00  0.00    +0.075 C 
BRANCH  18  19
ATOM     19  S   UNL     1      -0.715   2.062   0.000  0.00  0.00    -0.140 S 
BRANCH  19  20
ATOM     20  C   UNL     1      -1.429   2.475   0.000  0.00  0.00    +0.039 C 
ATOM     21  C   UNL     1      -1.016   3.189   0.000  0.00  0.00    +0.011 C 
ATOM     22  C   UNL     1      -1.841   1.760   0.000  0.00  0.00    +0.011 C 
ATOM     23  C   UNL     1      -2.143   2.888   0.000  0.00  0.00    +0.011 C 
ENDBRANCH  19  20
ENDBRANCH  18  19
ENDBRANCH  17  18
ENDBRANCH  15  17
ENDBRANCH  14  15
ENDBRANCH   1  14
TORSDOF 6
