REMARK  Name = 
REMARK  5 active torsions:
REMARK  status: ('A' for Active; 'I' for Inactive)
REMARK    1  A    between atoms: C_2  and  C_4
REMARK    2  A    between atoms: C_4  and  C_5
REMARK    3  A    between atoms: N_13  and  C_14
REMARK    4  A    between atoms: C_14  and  C_15
REMARK    5  A    between atoms: C_15  and  C_17
REMARK                            x       y       z     vdW  Elec       q    Type
REMARK                         _______ _______ _______ _____ _____    ______ ____
ROOT
ATOM      1  C   UNL     1       0.654  -0.698   0.000  0.00  0.00    +0.130 A 
ATOM      2  N   UNL     1       1.139  -1.365   0.000  0.00  0.00    -0.312 N 
ATOM      3  C   UNL     1       1.923  -1.110   0.000  0.00  0.00    +0.079 A 
ATOM      4  C   UNL     1       1.923  -0.285   0.000  0.00  0.00    +0.098 A 
ATOM      5  C   UNL     1       2.638   0.127   0.000  0.00  0.00    +0.021 A 
ATOM      6  C   UNL     1       3.352  -0.285   0.000  0.00  0.00    +0.002 A 
ATOM      7  C   UNL     1       3.352  -1.110   0.000  0.00  0.00    +0.002 A 
ATOM      8  C   UNL     1       2.638  -1.523   0.000  0.00  0.00    +0.019 A 
ATOM      9  N   UNL     1       1.139  -0.030   0.000  0.00  0.00    -0.230 NA
ENDROOT
BRANCH   1  10
ATOM     10  C   UNL     1      -0.171  -0.698   0.000  0.00  0.00    +0.152 C 
BRANCH  10  12
ATOM     11  N   UNL     1      -1.409   0.017   0.000  0.00  0.00    -0.087 NA
ATOM     12  C   UNL     1      -0.584   0.017   0.000  0.00  0.00    +0.268 C 
ATOM     13  O   UNL     1      -0.171   0.731   0.000  0.00  0.00    -0.271 OA
ENDBRANCH  10  12
ENDBRANCH   1  10
BRANCH   2  14
ATOM     14  C   UNL     1       0.884  -2.150   0.000  0.00  0.00    +0.145 C 
BRANCH  14  15
ATOM     15  C   UNL     1       1.436  -2.763   0.000  0.00  0.00    +0.197 C 
ATOM     16  O   UNL     1       2.243  -2.592   0.000  0.00  0.00    -0.216 OA
BRANCH  15  17
ATOM     17  C   UNL     1       1.181  -3.548   0.000  0.00  0.00    +0.010 A 
ATOM     18  C   UNL     1       0.374  -3.719   0.000  0.00  0.00    +0.001 A 
ATOM     19  C   UNL     1       0.119  -4.504   0.000  0.00  0.00    +0.029 A 
ATOM     20  C   UNL     1       0.671  -5.117   0.000  0.00  0.00    +0.140 A 
ATOM     21  F   UNL     1       0.416  -5.902   0.000  0.00  0.00    -0.204 F 
ATOM     22  C   UNL     1       1.478  -4.945   0.000  0.00  0.00    +0.029 A 
ATOM     23  C   UNL     1       1.733  -4.161   0.000  0.00  0.00    +0.001 A 
ENDBRANCH  15  17
ENDBRANCH  14  15
ENDBRANCH   2  14
TORSDOF 5
