REMARK  Name = 
REMARK  4 active torsions:
REMARK  status: ('A' for Active; 'I' for Inactive)
REMARK    1  A    between atoms: C_5  and  N_6
REMARK    2  A    between atoms: N_9  and  C_10
REMARK    3  A    between atoms: C_10  and  C_11
REMARK    4  A    between atoms: C_11  and  N_12
REMARK                            x       y       z     vdW  Elec       q    Type
REMARK                         _______ _______ _______ _____ _____    ______ ____
ROOT
ATOM      1  N   UNL     1       3.163  -2.952   0.000  0.00  0.00    -0.186 NA
ATOM      2  C   UNL     1       3.878  -3.364   0.000  0.00  0.00    +0.339 C 
ATOM      3  N   UNL     1       4.592  -2.952   0.000  0.00  0.00    -0.185 NA
ATOM      4  O   UNL     1       3.878  -4.189   0.000  0.00  0.00    -0.249 OA
ENDROOT
BRANCH   1  11
ATOM      5  C   UNL     1       0.591  -3.029   0.000  0.00  0.00    +0.030 C 
ATOM      6  C   UNL     1       1.143  -3.642   0.000  0.00  0.00    +0.095 C 
ATOM      7  O   UNL     1       1.556  -4.356   0.000  0.00  0.00    -0.362 OA
ATOM      8  C   UNL     1       2.363  -4.185   0.000  0.00  0.00    +0.111 C 
ATOM      9  C   UNL     1       2.449  -5.005   0.000  0.00  0.00    +0.031 C 
ATOM     10  C   UNL     1       3.188  -4.185   0.000  0.00  0.00    +0.031 C 
ATOM     11  C   UNL     1       2.449  -3.364   0.000  0.00  0.00    +0.124 C 
ATOM     12  C   UNL     1       1.695  -3.029   0.000  0.00  0.00    +0.051 C 
ATOM     13  C   UNL     1       0.476  -4.127   0.000  0.00  0.00    +0.030 C 
ENDBRANCH   1  11
BRANCH   3  14
ATOM     14  C   UNL     1       5.307  -3.364   0.000  0.00  0.00    +0.141 C 
BRANCH  14  15
ATOM     15  C   UNL     1       6.021  -2.952   0.000  0.00  0.00    +0.131 C 
BRANCH  15  16
ATOM     16  N   UNL     1       6.736  -3.364   0.000  0.00  0.00    -0.306 N 
ATOM     17  C   UNL     1       6.822  -4.185   0.000  0.00  0.00    +0.179 A 
ATOM     18  N   UNL     1       7.629  -4.356   0.000  0.00  0.00    -0.222 NA
ATOM     19  C   UNL     1       8.041  -3.642   0.000  0.00  0.00    +0.119 A 
ATOM     20  C   UNL     1       7.489  -3.029   0.000  0.00  0.00    +0.098 A 
ENDBRANCH  15  16
ENDBRANCH  14  15
ENDBRANCH   3  14
TORSDOF 4
