REMARK  Name = 
REMARK  2 active torsions:
REMARK  status: ('A' for Active; 'I' for Inactive)
REMARK    1  A    between atoms: C_8  and  C_9
REMARK    2  A    between atoms: C_9  and  C_10
REMARK                            x       y       z     vdW  Elec       q    Type
REMARK                         _______ _______ _______ _____ _____    ______ ____
ROOT
ATOM      1  C   UNL     1       0.107   4.765   0.000  0.00  0.00    +0.052 C 
ATOM      2  C   UNL     1      -0.608   4.353   0.000  0.00  0.00    +0.063 A 
ATOM      3  C   UNL     1      -1.322   4.765   0.000  0.00  0.00    +0.061 A 
ATOM      4  C   UNL     1      -2.037   4.353   0.000  0.00  0.00    +0.279 A 
ATOM      5  O   UNL     1      -2.751   4.765   0.000  0.00  0.00    -0.265 OA
ATOM      6  N   UNL     1      -2.037   3.528   0.000  0.00  0.00    -0.175 NA
ATOM      7  C   UNL     1      -1.322   3.115   0.000  0.00  0.00    +0.222 A 
ATOM      8  N   UNL     1      -1.322   2.290   0.000  0.00  0.00    -0.278 N 
ATOM      9  C   UNL     1      -1.990   1.805   0.000  0.00  0.00    +0.094 C 
ATOM     10  C   UNL     1      -1.735   1.021   0.000  0.00  0.00    +0.023 C 
ATOM     11  C   UNL     1      -0.910   1.021   0.000  0.00  0.00    +0.023 C 
ATOM     12  C   UNL     1      -0.655   1.805   0.000  0.00  0.00    +0.094 C 
ATOM     13  N   UNL     1      -0.608   3.528   0.000  0.00  0.00    -0.218 NA
ENDROOT
BRANCH   3  14
ATOM     14  C   UNL     1      -1.322   5.590   0.000  0.00  0.00    +0.146 C 
BRANCH  14  15
ATOM     15  C   UNL     1      -0.608   6.003   0.000  0.00  0.00    +0.369 C 
ATOM     16  O   UNL     1       0.107   5.590   0.000  0.00  0.00    -0.245 OA
ATOM     17  O   UNL     1      -0.608   6.828   0.000  0.00  0.00    -0.245 OA
ENDBRANCH  14  15
ENDBRANCH   3  14
TORSDOF 2
