REMARK  Name = 
REMARK  3 active torsions:
REMARK  status: ('A' for Active; 'I' for Inactive)
REMARK    1  A    between atoms: C_7  and  N_8
REMARK    2  A    between atoms: N_11  and  C_12
REMARK    3  A    between atoms: C_12  and  C_13
REMARK                            x       y       z     vdW  Elec       q    Type
REMARK                         _______ _______ _______ _____ _____    ______ ____
ROOT
ATOM      1  N   UNL     1       1.429  -0.825   0.000  0.00  0.00    -0.160 NA
ATOM      2  C   UNL     1       2.143  -1.238   0.000  0.00  0.00    +0.344 C 
ATOM      3  N   UNL     1       2.858  -0.825   0.000  0.00  0.00    -0.187 NA
ATOM      4  O   UNL     1       2.143  -2.062   0.000  0.00  0.00    -0.249 OA
ENDROOT
BRANCH   1   7
ATOM      5  C   UNL     1       1.429  -2.475   0.000  0.00  0.00    +0.055 C 
ATOM      6  C   UNL     1       0.715  -2.062   0.000  0.00  0.00    +0.096 A 
ATOM      7  C   UNL     1       0.715  -1.238   0.000  0.00  0.00    +0.092 A 
ATOM      8  C   UNL     1       0.000  -0.825   0.000  0.00  0.00    +0.040 A 
ATOM      9  C   UNL     1      -0.715  -1.238   0.000  0.00  0.00    +0.124 A 
ATOM     10  N   UNL     1      -0.715  -2.062   0.000  0.00  0.00    -0.147 NA
ATOM     11  N   UNL     1       0.000  -2.475   0.000  0.00  0.00    -0.151 NA
ENDBRANCH   1   7
BRANCH   3  12
ATOM     12  C   UNL     1       3.572  -1.238   0.000  0.00  0.00    +0.117 C 
BRANCH  12  13
ATOM     13  C   UNL     1       4.287  -0.825   0.000  0.00  0.00    +0.020 C 
ATOM     14  C   UNL     1       5.071  -0.570   0.000  0.00  0.00    +0.002 C 
ATOM     15  C   UNL     1       5.071   0.255   0.000  0.00  0.00    +0.000 C 
ATOM     16  C   UNL     1       4.287   0.510   0.000  0.00  0.00    +0.000 C 
ATOM     17  C   UNL     1       3.802  -0.158   0.000  0.00  0.00    +0.002 C 
ATOM     18  C   UNL     1       4.622  -1.579   0.000  0.00  0.00    +0.002 C 
ENDBRANCH  12  13
ENDBRANCH   3  12
TORSDOF 3
