REMARK  Name = 
REMARK  4 active torsions:
REMARK  status: ('A' for Active; 'I' for Inactive)
REMARK    1  A    between atoms: N_5  and  C_6
REMARK    2  A    between atoms: C_6  and  C_7
REMARK    3  A    between atoms: C_7  and  C_9
REMARK    4  A    between atoms: C_12  and  C_15
REMARK                            x       y       z     vdW  Elec       q    Type
REMARK                         _______ _______ _______ _____ _____    ______ ____
ROOT
ATOM      1  C   UNL     1       2.143  -5.362   0.000  0.00  0.00    +0.197 C 
ATOM      2  O   UNL     1       2.858  -4.950   0.000  0.00  0.00    -0.216 OA
ENDROOT
BRANCH   1   3
ATOM      3  C   UNL     1       2.143  -6.188   0.000  0.00  0.00    +0.010 A 
ATOM      4  C   UNL     1       1.429  -6.600   0.000  0.00  0.00    -0.002 A 
ATOM      5  C   UNL     1       1.429  -7.425   0.000  0.00  0.00    +0.004 A 
ATOM      6  C   UNL     1       2.143  -7.838   0.000  0.00  0.00    +0.071 A 
ATOM      7  C   UNL     1       2.858  -7.425   0.000  0.00  0.00    +0.004 A 
ATOM      8  C   UNL     1       2.858  -6.600   0.000  0.00  0.00    -0.002 A 
BRANCH   6   9
ATOM      9  C   UNL     1       2.143  -8.662   0.000  0.00  0.00    +0.419 C 
ATOM     10  F   UNL     1       2.968  -8.662   0.000  0.00  0.00    -0.166 F 
ATOM     11  F   UNL     1       1.318  -8.662   0.000  0.00  0.00    -0.166 F 
ATOM     12  F   UNL     1       2.143  -9.488   0.000  0.00  0.00    -0.166 F 
ENDBRANCH   6   9
ENDBRANCH   1   3
BRANCH   1  13
ATOM     13  C   UNL     1       1.429  -4.950   0.000  0.00  0.00    +0.148 C 
BRANCH  13  20
ATOM     14  C   UNL     1       1.429  -1.650   0.000  0.00  0.00    +0.052 C 
ATOM     15  C   UNL     1       1.429  -2.475   0.000  0.00  0.00    +0.062 A 
ATOM     16  C   UNL     1       0.715  -2.888   0.000  0.00  0.00    +0.048 A 
ATOM     17  C   UNL     1       0.000  -2.475   0.000  0.00  0.00    +0.037 C 
ATOM     18  C   UNL     1       0.715  -3.712   0.000  0.00  0.00    +0.259 A 
ATOM     19  O   UNL     1       0.000  -4.125   0.000  0.00  0.00    -0.267 OA
ATOM     20  N   UNL     1       1.429  -4.125   0.000  0.00  0.00    -0.275 N 
ATOM     21  C   UNL     1       2.143  -3.712   0.000  0.00  0.00    +0.181 A 
ATOM     22  N   UNL     1       2.143  -2.888   0.000  0.00  0.00    -0.230 NA
ENDBRANCH  13  20
ENDBRANCH   1  13
TORSDOF 4
