REMARK  Name = 
REMARK  2 active torsions:
REMARK  status: ('A' for Active; 'I' for Inactive)
REMARK    1  A    between atoms: C_2  and  C_5
REMARK    2  A    between atoms: N_11  and  C_12
REMARK                            x       y       z     vdW  Elec       q    Type
REMARK                         _______ _______ _______ _____ _____    ______ ____
ROOT
ATOM      1  C   UNL     1       3.595  -1.611   0.000  0.00  0.00    +0.155 A 
ATOM      2  O   UNL     1       2.928  -2.096   0.000  0.00  0.00    -0.356 OA
ATOM      3  N   UNL     1       3.182  -2.881   0.000  0.00  0.00    -0.060 NA
ATOM      4  C   UNL     1       4.007  -2.881   0.000  0.00  0.00    +0.197 A 
ATOM      5  N   UNL     1       4.492  -3.548   0.000  0.00  0.00    -0.139 NA
ATOM      6  C   UNL     1       4.157  -4.302   0.000  0.00  0.00    +0.345 C 
ATOM      7  N   UNL     1       4.642  -4.970   0.000  0.00  0.00    -0.186 NA
ATOM      8  O   UNL     1       3.336  -4.388   0.000  0.00  0.00    -0.249 OA
ATOM      9  C   UNL     1       4.262  -2.096   0.000  0.00  0.00    +0.075 A 
ENDROOT
BRANCH   7  10
ATOM     10  C   UNL     1       4.306  -5.723   0.000  0.00  0.00    +0.127 C 
ATOM     11  C   UNL     1       3.499  -5.895   0.000  0.00  0.00    +0.172 C 
ATOM     12  O   UNL     1       2.886  -5.343   0.000  0.00  0.00    -0.221 OA
ATOM     13  C   UNL     1       3.413  -6.715   0.000  0.00  0.00    +0.035 C 
ATOM     14  C   UNL     1       4.167  -7.051   0.000  0.00  0.00    +0.005 C 
ATOM     15  C   UNL     1       4.719  -6.438   0.000  0.00  0.00    +0.024 C 
ENDBRANCH   7  10
BRANCH   1  17
ATOM     16  C   UNL     1       3.595   0.039   0.000  0.00  0.00    +0.008 C 
ATOM     17  C   UNL     1       3.595  -0.786   0.000  0.00  0.00    +0.054 C 
ATOM     18  C   UNL     1       4.420  -0.786   0.000  0.00  0.00    +0.008 C 
ATOM     19  C   UNL     1       2.770  -0.786   0.000  0.00  0.00    +0.008 C 
ENDBRANCH   1  17
TORSDOF 2
