REMARK  Name = 
REMARK  6 active torsions:
REMARK  status: ('A' for Active; 'I' for Inactive)
REMARK    1  A    between atoms: N_2  and  C_8
REMARK    2  A    between atoms: C_4  and  N_6
REMARK    3  A    between atoms: C_11  and  C_12
REMARK    4  A    between atoms: C_12  and  C_14
REMARK    5  A    between atoms: C_13  and  C_23
REMARK    6  A    between atoms: C_13  and  C_24
REMARK                            x       y       z     vdW  Elec       q    Type
REMARK                         _______ _______ _______ _____ _____    ______ ____
ROOT
ATOM      1  C   UNL     1       2.565   0.826   0.000  0.00  0.00    +0.149 A 
ATOM      2  N   UNL     1       1.781   1.084   0.000  0.00  0.00    -0.219 NA
ATOM      3  C   UNL     1       1.293   0.413   0.000  0.00  0.00    +0.180 A 
ATOM      4  N   UNL     1       1.781  -0.254   0.000  0.00  0.00    -0.296 N 
ATOM      5  C   UNL     1       3.278   1.239   0.000  0.00  0.00    +0.154 A 
ATOM      6  N   UNL     1       3.995   0.826   0.000  0.00  0.00    -0.207 NA
ATOM      7  C   UNL     1       3.995   0.000   0.000  0.00  0.00    +0.201 A 
ATOM      8  N   UNL     1       3.278  -0.413   0.000  0.00  0.00    -0.205 NA
ATOM      9  C   UNL     1       2.565   0.000   0.000  0.00  0.00    +0.167 A 
ENDROOT
BRANCH   5  10
ATOM     10  N   UNL     1       3.278   2.064   0.000  0.00  0.00    -0.288 N 
ATOM     11  C   UNL     1       3.995   2.477   0.000  0.00  0.00    +0.124 C 
ATOM     12  C   UNL     1       3.995   3.303   0.000  0.00  0.00    +0.164 C 
ATOM     13  O   UNL     1       3.278   3.716   0.000  0.00  0.00    -0.350 OA
ATOM     14  C   UNL     1       2.565   3.303   0.000  0.00  0.00    +0.162 C 
ATOM     15  C   UNL     1       2.565   2.477   0.000  0.00  0.00    +0.113 C 
BRANCH  15  16
ATOM     16  C   UNL     1       1.852   2.064   0.000  0.00  0.00    +0.111 C 
BRANCH  16  17
ATOM     17  C   UNL     1       1.134   2.477   0.000  0.00  0.00    +0.262 C 
ATOM     18  N   UNL     1       0.421   2.064   0.000  0.00  0.00    -0.088 NA
ATOM     19  O   UNL     1       1.134   3.303   0.000  0.00  0.00    -0.272 OA
ENDBRANCH  16  17
ENDBRANCH  15  16
ENDBRANCH   5  10
BRANCH   4  20
ATOM     20  C   UNL     1       1.522  -1.038   0.000  0.00  0.00    +0.089 C 
ATOM     21  C   UNL     1       0.788  -1.414   0.000  0.00  0.00    +0.028 C 
ATOM     22  C   UNL     1       1.164  -2.148   0.000  0.00  0.00    +0.065 C 
ATOM     23  C   UNL     1       1.898  -1.772   0.000  0.00  0.00    +0.028 C 
BRANCH  22  24
ATOM     24  C   UNL     1       1.539  -2.886   0.000  0.00  0.00    +0.185 C 
ATOM     25  O   UNL     1       2.365  -2.928   0.000  0.00  0.00    -0.220 OA
ENDBRANCH  22  24
BRANCH  22  26
ATOM     26  C   UNL     1       0.430  -2.523   0.000  0.00  0.00    +0.185 C 
ATOM     27  O   UNL     1      -0.267  -2.073   0.000  0.00  0.00    -0.220 OA
ENDBRANCH  22  26
ENDBRANCH   4  20
TORSDOF 6
