REMARK  Name = 
REMARK  5 active torsions:
REMARK  status: ('A' for Active; 'I' for Inactive)
REMARK    1  A    between atoms: C_2  and  C_3
REMARK    2  A    between atoms: C_2  and  C_13
REMARK    3  A    between atoms: C_3  and  N_4
REMARK    4  A    between atoms: C_16  and  O_17
REMARK    5  A    between atoms: O_17  and  C_18
REMARK                            x       y       z     vdW  Elec       q    Type
REMARK                         _______ _______ _______ _____ _____    ______ ____
ROOT
ATOM      1  O   UNL     1       2.243  -2.592   0.000  0.00  0.00    -0.216 OA
ATOM      2  C   UNL     1       1.436  -2.763   0.000  0.00  0.00    +0.197 C 
ENDROOT
BRANCH   2   3
ATOM      3  C   UNL     1       1.181  -3.548   0.000  0.00  0.00    +0.010 A 
ATOM      4  C   UNL     1       0.374  -3.719   0.000  0.00  0.00    +0.001 A 
ATOM      5  C   UNL     1       0.119  -4.504   0.000  0.00  0.00    +0.037 A 
ATOM      6  C   UNL     1       0.671  -5.117   0.000  0.00  0.00    +0.144 A 
ATOM      7  C   UNL     1       1.478  -4.945   0.000  0.00  0.00    +0.037 A 
ATOM      8  C   UNL     1       1.733  -4.161   0.000  0.00  0.00    +0.001 A 
BRANCH   6   9
ATOM      9  O   UNL     1       0.416  -5.902   0.000  0.00  0.00    -0.424 OA
BRANCH   9  10
ATOM     10  C   UNL     1      -0.391  -6.073   0.000  0.00  0.00    +0.509 C 
ATOM     11  F   UNL     1      -0.943  -5.460   0.000  0.00  0.00    -0.155 F 
ATOM     12  F   UNL     1      -0.646  -6.858   0.000  0.00  0.00    -0.155 F 
ENDBRANCH   9  10
ENDBRANCH   6   9
ENDBRANCH   2   3
BRANCH   2  13
ATOM     13  C   UNL     1       0.884  -2.150   0.000  0.00  0.00    +0.145 C 
BRANCH  13  14
ATOM     14  N   UNL     1       1.139  -1.365   0.000  0.00  0.00    -0.306 N 
ATOM     15  C   UNL     1       1.923  -1.110   0.000  0.00  0.00    +0.079 A 
ATOM     16  C   UNL     1       1.923  -0.285   0.000  0.00  0.00    +0.099 A 
ATOM     17  C   UNL     1       2.638   0.127   0.000  0.00  0.00    +0.021 A 
ATOM     18  C   UNL     1       3.352  -0.285   0.000  0.00  0.00    +0.002 A 
ATOM     19  C   UNL     1       3.352  -1.110   0.000  0.00  0.00    +0.002 A 
ATOM     20  N   UNL     1       1.139  -0.030   0.000  0.00  0.00    -0.224 NA
ATOM     21  C   UNL     1       2.638  -1.523   0.000  0.00  0.00    +0.019 A 
ATOM     22  C   UNL     1       0.654  -0.698   0.000  0.00  0.00    +0.179 A 
ENDBRANCH  13  14
ENDBRANCH   2  13
TORSDOF 5
