REMARK  Name = 
REMARK  6 active torsions:
REMARK  status: ('A' for Active; 'I' for Inactive)
REMARK    1  A    between atoms: C_5  and  C_6
REMARK    2  A    between atoms: C_6  and  C_7
REMARK    3  A    between atoms: N_9  and  C_10
REMARK    4  A    between atoms: C_10  and  C_11
REMARK    5  A    between atoms: C_11  and  C_12
REMARK    6  A    between atoms: C_12  and  N_13
REMARK                            x       y       z     vdW  Elec       q    Type
REMARK                         _______ _______ _______ _____ _____    ______ ____
ROOT
ATOM      1  C   UNL     1       2.922  -3.277   0.000  0.00  0.00    +0.035 C 
ATOM      2  C   UNL     1       3.734  -3.134   0.000  0.00  0.00    +0.003 C 
ATOM      3  C   UNL     1       4.016  -2.358   0.000  0.00  0.00    +0.000 C 
ATOM      4  C   UNL     1       3.486  -1.726   0.000  0.00  0.00    +0.000 C 
ATOM      5  C   UNL     1       2.674  -1.869   0.000  0.00  0.00    +0.000 C 
ATOM      6  C   UNL     1       2.392  -2.645   0.000  0.00  0.00    +0.003 C 
ENDROOT
BRANCH   1   7
ATOM      7  C   UNL     1       3.204  -4.052   0.000  0.00  0.00    +0.074 C 
BRANCH   7   8
ATOM      8  N   UNL     1       4.016  -4.195   0.000  0.00  0.00    -0.268 NA
ATOM      9  C   UNL     1       4.299  -4.971   0.000  0.00  0.00    +0.105 C 
ATOM     10  C   UNL     1       5.111  -5.114   0.000  0.00  0.00    +0.159 C 
ATOM     11  O   UNL     1       5.641  -4.482   0.000  0.00  0.00    -0.351 OA
ATOM     12  C   UNL     1       5.359  -3.707   0.000  0.00  0.00    +0.159 C 
ATOM     13  C   UNL     1       4.547  -3.563   0.000  0.00  0.00    +0.105 C 
ENDBRANCH   7   8
ENDBRANCH   1   7
BRANCH   1  14
ATOM     14  C   UNL     1       2.207  -3.689   0.000  0.00  0.00    +0.116 C 
BRANCH  14  16
ATOM     15  C   UNL     1       0.778  -3.689   0.000  0.00  0.00    +0.246 C 
ATOM     16  N   UNL     1       1.493  -3.277   0.000  0.00  0.00    -0.205 NA
ATOM     17  O   UNL     1       0.778  -4.514   0.000  0.00  0.00    -0.273 OA
BRANCH  15  18
ATOM     18  C   UNL     1       0.064  -3.277   0.000  0.00  0.00    +0.115 C 
BRANCH  18  23
ATOM     19  C   UNL     1      -2.794  -4.927   0.000  0.00  0.00    +0.052 C 
ATOM     20  C   UNL     1      -2.079  -4.514   0.000  0.00  0.00    +0.059 A 
ATOM     21  N   UNL     1      -1.365  -4.927   0.000  0.00  0.00    -0.248 NA
ATOM     22  C   UNL     1      -0.650  -4.514   0.000  0.00  0.00    +0.095 A 
ATOM     23  C   UNL     1      -0.650  -3.689   0.000  0.00  0.00    +0.006 A 
ATOM     24  C   UNL     1      -1.365  -3.277   0.000  0.00  0.00    -0.001 A 
ATOM     25  C   UNL     1      -2.079  -3.689   0.000  0.00  0.00    +0.014 A 
ENDBRANCH  18  23
ENDBRANCH  15  18
ENDBRANCH  14  16
ENDBRANCH   1  14
TORSDOF 6
