REMARK  Name = 
REMARK  3 active torsions:
REMARK  status: ('A' for Active; 'I' for Inactive)
REMARK    1  A    between atoms: O_2  and  C_3
REMARK    2  A    between atoms: C_3  and  C_4
REMARK    3  A    between atoms: C_4  and  N_5
REMARK                            x       y       z     vdW  Elec       q    Type
REMARK                         _______ _______ _______ _____ _____    ______ ____
ROOT
ATOM      1  N   UNL     1       2.102  -1.996   0.000  0.00  0.00    -0.184 NA
ATOM      2  C   UNL     1       2.816  -2.408   0.000  0.00  0.00    +0.346 C 
ATOM      3  N   UNL     1       3.530  -1.996   0.000  0.00  0.00    -0.125 NA
ATOM      4  C   UNL     1       4.245  -2.408   0.000  0.00  0.00    +0.243 A 
ATOM      5  N   UNL     1       4.331  -3.229   0.000  0.00  0.00    -0.217 N 
ATOM      6  C   UNL     1       3.718  -3.781   0.000  0.00  0.00    +0.157 C 
ATOM      7  N   UNL     1       5.138  -3.400   0.000  0.00  0.00    -0.144 NA
ATOM      8  C   UNL     1       5.551  -2.686   0.000  0.00  0.00    +0.222 A 
ATOM      9  N   UNL     1       4.999  -2.073   0.000  0.00  0.00    -0.189 NA
ATOM     10  O   UNL     1       2.816  -3.233   0.000  0.00  0.00    -0.249 OA
ENDROOT
BRANCH   1  11
ATOM     11  C   UNL     1       1.387  -2.408   0.000  0.00  0.00    +0.144 C 
BRANCH  11  12
ATOM     12  C   UNL     1       0.672  -1.996   0.000  0.00  0.00    +0.113 C 
ATOM     13  C   UNL     1       1.085  -1.281   0.000  0.00  0.00    +0.029 C 
ATOM     14  C   UNL     1       0.371  -0.869   0.000  0.00  0.00    +0.005 C 
ATOM     15  C   UNL     1      -0.042  -1.583   0.000  0.00  0.00    +0.029 C 
BRANCH  12  17
ATOM     16  C   UNL     1       0.672  -3.425   0.000  0.00  0.00    +0.174 C 
ATOM     17  O   UNL     1       0.260  -2.710   0.000  0.00  0.00    -0.354 OA
ENDBRANCH  12  17
ENDBRANCH  11  12
ENDBRANCH   1  11
TORSDOF 3
