REMARK  Name = 
REMARK  4 active torsions:
REMARK  status: ('A' for Active; 'I' for Inactive)
REMARK    1  A    between atoms: N_4  and  C_5
REMARK    2  A    between atoms: C_10  and  C_11
REMARK    3  A    between atoms: C_11  and  C_12
REMARK    4  A    between atoms: N_14  and  C_15
REMARK                            x       y       z     vdW  Elec       q    Type
REMARK                         _______ _______ _______ _____ _____    ______ ____
ROOT
ATOM      1  C   UNL     1       2.751  -1.712   0.000  0.00  0.00    +0.054 C 
ATOM      2  C   UNL     1       2.751  -2.537   0.000  0.00  0.00    +0.077 A 
ATOM      3  C   UNL     1       2.084  -3.022   0.000  0.00  0.00    +0.016 A 
ATOM      4  C   UNL     1       2.339  -3.806   0.000  0.00  0.00    +0.059 A 
ATOM      5  C   UNL     1       1.854  -4.474   0.000  0.00  0.00    +0.052 C 
ATOM      6  N   UNL     1       3.164  -3.806   0.000  0.00  0.00    -0.197 N 
ATOM      7  N   UNL     1       3.419  -3.022   0.000  0.00  0.00    -0.170 NA
ENDROOT
BRANCH   6   8
ATOM      8  C   UNL     1       3.649  -4.474   0.000  0.00  0.00    +0.429 C 
ATOM      9  F   UNL     1       3.313  -5.227   0.000  0.00  0.00    -0.171 F 
ATOM     10  F   UNL     1       4.469  -4.387   0.000  0.00  0.00    -0.171 F 
ENDBRANCH   6   8
BRANCH   3  11
ATOM     11  C   UNL     1       1.299  -2.767   0.000  0.00  0.00    +0.115 C 
BRANCH  11  12
ATOM     12  C   UNL     1       1.128  -1.960   0.000  0.00  0.00    +0.246 C 
ATOM     13  N   UNL     1       0.343  -1.705   0.000  0.00  0.00    -0.207 NA
ATOM     14  O   UNL     1       1.741  -1.408   0.000  0.00  0.00    -0.273 OA
BRANCH  13  15
ATOM     15  C   UNL     1       0.171  -0.898   0.000  0.00  0.00    +0.100 C 
ATOM     16  C   UNL     1       0.784  -0.346   0.000  0.00  0.00    +0.054 C 
ATOM     17  C   UNL     1       0.613   0.461   0.000  0.00  0.00    +0.144 C 
ATOM     18  O   UNL     1      -0.172   0.716   0.000  0.00  0.00    -0.354 OA
ATOM     19  C   UNL     1      -0.785   0.164   0.000  0.00  0.00    +0.144 C 
ATOM     20  C   UNL     1      -0.613  -0.643   0.000  0.00  0.00    +0.054 C 
ENDBRANCH  13  15
ENDBRANCH  11  12
ENDBRANCH   3  11
TORSDOF 4
