REMARK  Name = 
REMARK  3 active torsions:
REMARK  status: ('A' for Active; 'I' for Inactive)
REMARK    1  A    between atoms: C_2  and  S_3
REMARK    2  A    between atoms: S_3  and  C_5
REMARK    3  A    between atoms: C_9  and  N_11
REMARK                            x       y       z     vdW  Elec       q    Type
REMARK                         _______ _______ _______ _____ _____    ______ ____
ROOT
ATOM      1  N   UNL     1       1.429  -4.125   0.000  0.00  0.00    -0.189 NA
ATOM      2  C   UNL     1       0.715  -3.712   0.000  0.00  0.00    +0.345 C 
ATOM      3  N   UNL     1       0.000  -4.125   0.000  0.00  0.00    -0.142 NA
ATOM      4  C   UNL     1      -0.715  -3.712   0.000  0.00  0.00    +0.155 A 
ATOM      5  N   UNL     1      -0.715  -2.888   0.000  0.00  0.00    -0.233 NA
ATOM      6  C   UNL     1      -1.429  -2.475   0.000  0.00  0.00    +0.061 A 
ATOM      7  C   UNL     1      -1.429  -1.650   0.000  0.00  0.00    +0.052 C 
ATOM      8  C   UNL     1      -2.143  -2.888   0.000  0.00  0.00    +0.011 A 
ATOM      9  C   UNL     1      -2.143  -3.712   0.000  0.00  0.00    -0.018 A 
ATOM     10  C   UNL     1      -2.858  -4.125   0.000  0.00  0.00    +0.031 C 
ATOM     11  C   UNL     1      -1.429  -4.125   0.000  0.00  0.00    +0.032 A 
ATOM     12  O   UNL     1       0.715  -2.888   0.000  0.00  0.00    -0.249 OA
ENDROOT
BRANCH   1  15
ATOM     13  C   UNL     1       2.858  -2.475   0.000  0.00  0.00    +0.081 C 
ATOM     14  C   UNL     1       2.143  -2.888   0.000  0.00  0.00    +0.035 C 
ATOM     15  C   UNL     1       2.143  -3.712   0.000  0.00  0.00    +0.098 C 
ATOM     16  C   UNL     1       2.858  -4.125   0.000  0.00  0.00    +0.022 C 
ATOM     17  C   UNL     1       3.572  -3.712   0.000  0.00  0.00    +0.003 C 
ATOM     18  C   UNL     1       3.572  -2.888   0.000  0.00  0.00    +0.013 C 
BRANCH  13  19
ATOM     19  S   UNL     1       2.858  -1.650   0.000  0.00  0.00    +0.041 S 
ATOM     20  O   UNL     1       2.143  -1.238   0.000  0.00  0.00    -0.256 OA
BRANCH  19  22
ATOM     21  C   UNL     1       3.572  -0.412   0.000  0.00  0.00    +0.015 C 
ATOM     22  C   UNL     1       3.572  -1.238   0.000  0.00  0.00    +0.092 C 
ENDBRANCH  19  22
ENDBRANCH  13  19
ENDBRANCH   1  15
TORSDOF 3
