REMARK  Name = 
REMARK  2 active torsions:
REMARK  status: ('A' for Active; 'I' for Inactive)
REMARK    1  A    between atoms: N_3  and  C_4
REMARK    2  A    between atoms: N_11  and  C_12
REMARK                            x       y       z     vdW  Elec       q    Type
REMARK                         _______ _______ _______ _____ _____    ______ ____
ROOT
ATOM      1  O   UNL     1       3.336  -4.388   0.000  0.00  0.00    -0.249 OA
ATOM      2  C   UNL     1       4.157  -4.302   0.000  0.00  0.00    +0.344 C 
ATOM      3  N   UNL     1       4.642  -4.970   0.000  0.00  0.00    -0.158 NA
ATOM      4  N   UNL     1       4.492  -3.548   0.000  0.00  0.00    -0.187 NA
ENDROOT
BRANCH   4   5
ATOM      5  C   UNL     1       4.007  -2.881   0.000  0.00  0.00    +0.122 C 
ATOM      6  C   UNL     1       4.262  -2.096   0.000  0.00  0.00    +0.172 C 
ATOM      7  S   UNL     1       3.595  -1.611   0.000  0.00  0.00    -0.008 S 
ATOM      8  O   UNL     1       4.147  -0.998   0.000  0.00  0.00    -0.173 OA
ATOM      9  O   UNL     1       3.043  -0.998   0.000  0.00  0.00    -0.173 OA
ATOM     10  C   UNL     1       2.928  -2.096   0.000  0.00  0.00    +0.153 C 
ATOM     11  C   UNL     1       3.182  -2.881   0.000  0.00  0.00    +0.049 C 
ENDBRANCH   4   5
BRANCH   3  12
ATOM     12  C   UNL     1       4.306  -5.723   0.000  0.00  0.00    +0.117 A 
ATOM     13  C   UNL     1       3.499  -5.895   0.000  0.00  0.00    +0.140 A 
ATOM     14  N   UNL     1       3.413  -6.715   0.000  0.00  0.00    -0.145 NA
ATOM     15  N   UNL     1       4.167  -7.051   0.000  0.00  0.00    -0.145 NA
ATOM     16  C   UNL     1       4.719  -6.438   0.000  0.00  0.00    +0.140 A 
ENDBRANCH   3  12
TORSDOF 2
