REMARK  Name = 
REMARK  5 active torsions:
REMARK  status: ('A' for Active; 'I' for Inactive)
REMARK    1  A    between atoms: C_2  and  C_3
REMARK    2  A    between atoms: C_3  and  N_4
REMARK    3  A    between atoms: N_14  and  C_15
REMARK    4  A    between atoms: C_15  and  C_16
REMARK    5  A    between atoms: C_16  and  C_17
REMARK                            x       y       z     vdW  Elec       q    Type
REMARK                         _______ _______ _______ _____ _____    ______ ____
ROOT
ATOM      1  N   UNL     1      -1.538   3.115   0.000  0.00  0.00    -0.278 N 
ATOM      2  C   UNL     1      -1.237   2.347   0.000  0.00  0.00    +0.246 C 
ATOM      3  O   UNL     1      -1.798   1.742   0.000  0.00  0.00    -0.273 OA
ATOM      4  C   UNL     1      -0.448   2.104   0.000  0.00  0.00    +0.181 C 
ATOM      5  N   UNL     1       0.233   2.569   0.000  0.00  0.00    -0.254 N 
ATOM      6  C   UNL     1       0.948   2.156   0.000  0.00  0.00    +0.324 C 
ATOM      7  N   UNL     1       1.662   2.569   0.000  0.00  0.00    -0.188 NA
ATOM      8  O   UNL     1       0.948   1.331   0.000  0.00  0.00    -0.251 OA
ATOM      9  C   UNL     1       0.295   3.392   0.000  0.00  0.00    +0.097 C 
ATOM     10  C   UNL     1      -0.310   3.953   0.000  0.00  0.00    +0.043 C 
ATOM     11  C   UNL     1      -1.125   3.830   0.000  0.00  0.00    +0.095 C 
ENDROOT
BRANCH   1  12
ATOM     12  C   UNL     1      -2.361   3.177   0.000  0.00  0.00    +0.093 C 
BRANCH  12  14
ATOM     13  C   UNL     1      -3.541   3.982   0.000  0.00  0.00    +0.002 C 
ATOM     14  C   UNL     1      -2.719   3.920   0.000  0.00  0.00    +0.022 C 
ENDBRANCH  12  14
ENDBRANCH   1  12
BRANCH   7  15
ATOM     15  C   UNL     1       2.377   2.156   0.000  0.00  0.00    +0.122 C 
BRANCH  15  16
ATOM     16  C   UNL     1       3.091   2.569   0.000  0.00  0.00    +0.051 C 
BRANCH  16  17
ATOM     17  C   UNL     1       3.806   2.156   0.000  0.00  0.00    -0.001 A 
ATOM     18  C   UNL     1       3.806   1.331   0.000  0.00  0.00    +0.095 A 
ATOM     19  N   UNL     1       4.520   0.919   0.000  0.00  0.00    -0.243 NA
ATOM     20  C   UNL     1       5.235   1.331   0.000  0.00  0.00    +0.099 A 
ATOM     21  C   UNL     1       5.235   2.156   0.000  0.00  0.00    +0.020 A 
ATOM     22  C   UNL     1       4.520   2.569   0.000  0.00  0.00    -0.001 A 
ENDBRANCH  16  17
ENDBRANCH  15  16
ENDBRANCH   7  15
TORSDOF 5
