REMARK  Name = 
REMARK  5 active torsions:
REMARK  status: ('A' for Active; 'I' for Inactive)
REMARK    1  A    between atoms: C_4  and  C_5
REMARK    2  A    between atoms: C_5  and  C_6
REMARK    3  A    between atoms: C_6  and  N_7
REMARK    4  A    between atoms: N_10  and  C_11
REMARK    5  A    between atoms: C_11  and  C_12
REMARK                            x       y       z     vdW  Elec       q    Type
REMARK                         _______ _______ _______ _____ _____    ______ ____
ROOT
ATOM      1  N   UNL     1       3.878  -3.364   0.000  0.00  0.00    -0.187 NA
ATOM      2  C   UNL     1       4.592  -2.952   0.000  0.00  0.00    +0.339 C 
ATOM      3  N   UNL     1       5.307  -3.364   0.000  0.00  0.00    -0.185 NA
ATOM      4  O   UNL     1       4.592  -2.127   0.000  0.00  0.00    -0.249 OA
ENDROOT
BRANCH   1   5
ATOM      5  C   UNL     1       3.163  -2.952   0.000  0.00  0.00    +0.124 C 
BRANCH   5   6
ATOM      6  C   UNL     1       2.449  -3.364   0.000  0.00  0.00    +0.076 C 
BRANCH   6  12
ATOM      7  C   UNL     1       0.506  -1.206   0.000  0.00  0.00    +0.052 C 
ATOM      8  C   UNL     1       0.841  -1.960   0.000  0.00  0.00    +0.062 A 
ATOM      9  C   UNL     1       0.429  -2.674   0.000  0.00  0.00    +0.022 A 
ATOM     10  C   UNL     1      -0.392  -2.761   0.000  0.00  0.00    +0.039 C 
ATOM     11  S   UNL     1       0.981  -3.287   0.000  0.00  0.00    -0.075 S 
ATOM     12  C   UNL     1       1.734  -2.952   0.000  0.00  0.00    +0.089 A 
ATOM     13  N   UNL     1       1.648  -2.131   0.000  0.00  0.00    -0.247 NA
ENDBRANCH   6  12
ENDBRANCH   5   6
ENDBRANCH   1   5
BRANCH   3  14
ATOM     14  C   UNL     1       6.021  -2.952   0.000  0.00  0.00    +0.146 C 
BRANCH  14  15
ATOM     15  C   UNL     1       6.736  -3.364   0.000  0.00  0.00    +0.137 C 
ATOM     16  O   UNL     1       6.822  -4.185   0.000  0.00  0.00    -0.354 OA
ATOM     17  C   UNL     1       7.629  -4.356   0.000  0.00  0.00    +0.142 C 
ATOM     18  C   UNL     1       8.041  -3.642   0.000  0.00  0.00    +0.035 C 
ATOM     19  C   UNL     1       7.489  -3.029   0.000  0.00  0.00    +0.034 C 
ENDBRANCH  14  15
ENDBRANCH   3  14
TORSDOF 5
