REMARK  Name = 
REMARK  5 active torsions:
REMARK  status: ('A' for Active; 'I' for Inactive)
REMARK    1  A    between atoms: C_2  and  C_3
REMARK    2  A    between atoms: C_2  and  C_18
REMARK    3  A    between atoms: C_3  and  N_4
REMARK    4  A    between atoms: C_6  and  C_15
REMARK    5  A    between atoms: C_8  and  C_11
REMARK                            x       y       z     vdW  Elec       q    Type
REMARK                         _______ _______ _______ _____ _____    ______ ____
ROOT
ATOM      1  N   UNL     1       3.985  -1.824   0.000  0.00  0.00    -0.214 N 
ATOM      2  C   UNL     1       3.270  -1.412   0.000  0.00  0.00    +0.280 A 
ATOM      3  O   UNL     1       3.270  -0.587   0.000  0.00  0.00    -0.266 OA
ATOM      4  C   UNL     1       2.556  -1.824   0.000  0.00  0.00    +0.130 A 
ATOM      5  C   UNL     1       2.556  -2.649   0.000  0.00  0.00    +0.025 A 
ATOM      6  C   UNL     1       3.270  -3.062   0.000  0.00  0.00    +0.078 A 
ATOM      7  N   UNL     1       3.985  -2.649   0.000  0.00  0.00    -0.171 NA
ENDROOT
BRANCH   4   8
ATOM      8  C   UNL     1       1.841  -1.412   0.000  0.00  0.00    +0.423 C 
ATOM      9  F   UNL     1       2.254  -0.697   0.000  0.00  0.00    -0.166 F 
ATOM     10  F   UNL     1       1.429  -2.126   0.000  0.00  0.00    -0.166 F 
ATOM     11  F   UNL     1       1.127  -0.999   0.000  0.00  0.00    -0.166 F 
ENDBRANCH   4   8
BRANCH   6  12
ATOM     12  C   UNL     1       3.270  -3.887   0.000  0.00  0.00    +0.042 C 
ATOM     13  C   UNL     1       2.858  -4.601   0.000  0.00  0.00    +0.006 C 
ATOM     14  C   UNL     1       3.683  -4.601   0.000  0.00  0.00    +0.006 C 
ENDBRANCH   6  12
BRANCH   1  15
ATOM     15  C   UNL     1       4.699  -1.412   0.000  0.00  0.00    +0.168 C 
BRANCH  15  17
ATOM     16  O   UNL     1       3.985  -0.174   0.000  0.00  0.00    -0.216 OA
ATOM     17  C   UNL     1       4.699  -0.587   0.000  0.00  0.00    +0.199 C 
BRANCH  17  18
ATOM     18  C   UNL     1       5.414  -0.174   0.000  0.00  0.00    +0.010 A 
ATOM     19  C   UNL     1       6.128  -0.587   0.000  0.00  0.00    +0.001 A 
ATOM     20  C   UNL     1       6.843  -0.174   0.000  0.00  0.00    +0.029 A 
ATOM     21  C   UNL     1       6.843   0.651   0.000  0.00  0.00    +0.140 A 
ATOM     22  F   UNL     1       7.557   1.063   0.000  0.00  0.00    -0.204 F 
ATOM     23  C   UNL     1       6.128   1.063   0.000  0.00  0.00    +0.029 A 
ATOM     24  C   UNL     1       5.414   0.651   0.000  0.00  0.00    +0.001 A 
ENDBRANCH  17  18
ENDBRANCH  15  17
ENDBRANCH   1  15
TORSDOF 5
