REMARK  Name = 
REMARK  6 active torsions:
REMARK  status: ('A' for Active; 'I' for Inactive)
REMARK    1  A    between atoms: N_4  and  C_5
REMARK    2  A    between atoms: C_5  and  C_6
REMARK    3  A    between atoms: C_6  and  C_7
REMARK    4  A    between atoms: C_9  and  C_10
REMARK    5  A    between atoms: C_10  and  C_11
REMARK    6  A    between atoms: C_11  and  C_12
REMARK                            x       y       z     vdW  Elec       q    Type
REMARK                         _______ _______ _______ _____ _____    ______ ____
ROOT
ATOM      1  C   UNL     1       4.287  -5.925   0.000  0.00  0.00    +0.090 A 
ATOM      2  S   UNL     1       4.373  -6.746   0.000  0.00  0.00    -0.071 S 
ATOM      3  C   UNL     1       5.180  -6.917   0.000  0.00  0.00    +0.051 A 
ATOM      4  C   UNL     1       5.593  -6.203   0.000  0.00  0.00    +0.066 A 
ATOM      5  N   UNL     1       5.041  -5.590   0.000  0.00  0.00    -0.247 NA
ENDROOT
BRANCH   1   6
ATOM      6  C   UNL     1       3.573  -5.513   0.000  0.00  0.00    +0.076 C 
BRANCH   6   7
ATOM      7  C   UNL     1       2.858  -5.925   0.000  0.00  0.00    +0.122 C 
BRANCH   7  10
ATOM      8  C   UNL     1       0.715  -5.513   0.000  0.00  0.00    +0.096 C 
ATOM      9  C   UNL     1       1.429  -5.925   0.000  0.00  0.00    +0.242 C 
ATOM     10  N   UNL     1       2.144  -5.513   0.000  0.00  0.00    -0.205 NA
ATOM     11  O   UNL     1       1.429  -6.750   0.000  0.00  0.00    -0.273 OA
ENDBRANCH   7  10
ENDBRANCH   6   7
ENDBRANCH   1   6
BRANCH   4  12
ATOM     12  C   UNL     1       6.413  -6.117   0.000  0.00  0.00    +0.046 C 
BRANCH  12  13
ATOM     13  C   UNL     1       6.749  -5.363   0.000  0.00  0.00    +0.006 C 
BRANCH  13  14
ATOM     14  C   UNL     1       7.569  -5.277   0.000  0.00  0.00    +0.000 C 
ATOM     15  C   UNL     1       8.121  -5.890   0.000  0.00  0.00    +0.000 C 
ATOM     16  C   UNL     1       8.875  -5.554   0.000  0.00  0.00    +0.000 C 
ATOM     17  C   UNL     1       8.789  -4.734   0.000  0.00  0.00    +0.000 C 
ATOM     18  C   UNL     1       7.982  -4.562   0.000  0.00  0.00    +0.000 C 
ENDBRANCH  13  14
ENDBRANCH  12  13
ENDBRANCH   4  12
TORSDOF 6
