REMARK  Name = 
REMARK  6 active torsions:
REMARK  status: ('A' for Active; 'I' for Inactive)
REMARK    1  A    between atoms: C_2  and  C_3
REMARK    2  A    between atoms: C_3  and  C_4
REMARK    3  A    between atoms: N_8  and  C_9
REMARK    4  A    between atoms: C_9  and  C_10
REMARK    5  A    between atoms: C_10  and  C_12
REMARK    6  A    between atoms: C_12  and  N_13
REMARK                            x       y       z     vdW  Elec       q    Type
REMARK                         _______ _______ _______ _____ _____    ______ ____
ROOT
ATOM      1  C   UNL     1       0.077  -2.321   0.000  0.00  0.00    +0.195 C 
ATOM      2  O   UNL     1      -0.475  -1.708   0.000  0.00  0.00    -0.219 OA
ENDROOT
BRANCH   1   3
ATOM      3  C   UNL     1       0.884  -2.150   0.000  0.00  0.00    +0.142 C 
BRANCH   3   4
ATOM      4  N   UNL     1       1.139  -1.365   0.000  0.00  0.00    -0.306 N 
ATOM      5  C   UNL     1       1.923  -1.110   0.000  0.00  0.00    +0.079 A 
ATOM      6  C   UNL     1       1.923  -0.285   0.000  0.00  0.00    +0.098 A 
ATOM      7  C   UNL     1       2.638   0.127   0.000  0.00  0.00    +0.016 A 
ATOM      8  C   UNL     1       3.352  -0.285   0.000  0.00  0.00    -0.024 A 
ATOM      9  C   UNL     1       3.352  -1.110   0.000  0.00  0.00    -0.024 A 
ATOM     10  C   UNL     1       4.067  -1.523   0.000  0.00  0.00    +0.031 C 
ATOM     11  C   UNL     1       4.067   0.127   0.000  0.00  0.00    +0.031 C 
ATOM     12  N   UNL     1       1.139  -0.030   0.000  0.00  0.00    -0.224 NA
ATOM     13  C   UNL     1       2.638  -1.523   0.000  0.00  0.00    +0.014 A 
ATOM     14  C   UNL     1       0.654  -0.698   0.000  0.00  0.00    +0.179 A 
ENDBRANCH   3   4
ENDBRANCH   1   3
BRANCH   1  15
ATOM     15  C   UNL     1      -0.178  -3.106   0.000  0.00  0.00    +0.137 C 
BRANCH  15  19
ATOM     16  C   UNL     1      -2.141  -3.945   0.000  0.00  0.00    +0.173 C 
ATOM     17  C   UNL     1      -1.321  -4.031   0.000  0.00  0.00    +0.253 C 
ATOM     18  O   UNL     1      -0.908  -4.746   0.000  0.00  0.00    -0.273 OA
ATOM     19  N   UNL     1      -0.985  -3.278   0.000  0.00  0.00    -0.209 N 
ATOM     20  C   UNL     1      -1.598  -2.726   0.000  0.00  0.00    +0.329 C 
ATOM     21  O   UNL     1      -1.512  -1.905   0.000  0.00  0.00    -0.250 OA
ATOM     22  N   UNL     1      -2.313  -3.138   0.000  0.00  0.00    -0.181 NA
BRANCH  16  23
ATOM     23  C   UNL     1      -2.693  -4.558   0.000  0.00  0.00    +0.031 C 
BRANCH  23  25
ATOM     24  C   UNL     1      -4.052  -5.000   0.000  0.00  0.00    +0.000 C 
ATOM     25  C   UNL     1      -3.500  -4.387   0.000  0.00  0.00    +0.002 C 
ENDBRANCH  23  25
ENDBRANCH  16  23
ENDBRANCH  15  19
ENDBRANCH   1  15
TORSDOF 6
