REMARK  Name = 
REMARK  5 active torsions:
REMARK  status: ('A' for Active; 'I' for Inactive)
REMARK    1  A    between atoms: C_2  and  C_3
REMARK    2  A    between atoms: C_5  and  N_6
REMARK    3  A    between atoms: N_9  and  C_10
REMARK    4  A    between atoms: C_10  and  C_11
REMARK    5  A    between atoms: C_11  and  C_14
REMARK                            x       y       z     vdW  Elec       q    Type
REMARK                         _______ _______ _______ _____ _____    ______ ____
ROOT
ATOM      1  C   UNL     1      -2.423  -5.311   0.000  0.00  0.00    +0.151 C 
ENDROOT
BRANCH   1   4
ATOM      2  N   UNL     1      -0.280  -5.723   0.000  0.00  0.00    -0.189 NA
ATOM      3  C   UNL     1      -0.994  -5.311   0.000  0.00  0.00    +0.339 C 
ATOM      4  N   UNL     1      -1.708  -5.723   0.000  0.00  0.00    -0.184 NA
ATOM      5  O   UNL     1      -0.994  -4.486   0.000  0.00  0.00    -0.249 OA
BRANCH   2   7
ATOM      6  C   UNL     1       0.848  -4.596   0.000  0.00  0.00    +0.022 C 
ATOM      7  C   UNL     1       0.435  -5.311   0.000  0.00  0.00    +0.097 C 
ATOM      8  C   UNL     1       1.260  -5.311   0.000  0.00  0.00    +0.023 C 
BRANCH   6  10
ATOM      9  C   UNL     1       1.562  -3.359   0.000  0.00  0.00    +0.000 C 
ATOM     10  C   UNL     1       0.848  -3.771   0.000  0.00  0.00    +0.002 C 
ENDBRANCH   6  10
ENDBRANCH   2   7
ENDBRANCH   1   4
BRANCH   1  11
ATOM     11  C   UNL     1      -3.137  -5.723   0.000  0.00  0.00    +0.168 C 
ATOM     12  O   UNL     1      -2.725  -6.438   0.000  0.00  0.00    -0.219 OA
ATOM     13  C   UNL     1      -3.550  -5.009   0.000  0.00  0.00    +0.040 C 
BRANCH  11  14
ATOM     14  C   UNL     1      -3.852  -6.136   0.000  0.00  0.00    +0.046 A 
ATOM     15  C   UNL     1      -4.606  -5.800   0.000  0.00  0.00    +0.095 A 
ATOM     16  N   UNL     1      -5.157  -6.413   0.000  0.00  0.00    -0.248 N 
ATOM     17  C   UNL     1      -5.978  -6.327   0.000  0.00  0.00    +0.154 C 
ATOM     18  N   UNL     1      -4.745  -7.128   0.000  0.00  0.00    -0.168 NA
ATOM     19  C   UNL     1      -3.938  -6.956   0.000  0.00  0.00    +0.120 A 
ENDBRANCH  11  14
ENDBRANCH   1  11
TORSDOF 5
