REMARK  Name = 
REMARK  6 active torsions:
REMARK  status: ('A' for Active; 'I' for Inactive)
REMARK    1  A    between atoms: N_2  and  C_13
REMARK    2  A    between atoms: C_3  and  N_8
REMARK    3  A    between atoms: C_6  and  N_8
REMARK    4  A    between atoms: C_11  and  C_13
REMARK    5  A    between atoms: C_12  and  O_22
REMARK    6  A    between atoms: O_22  and  C_27
REMARK                            x       y       z     vdW  Elec       q    Type
REMARK                         _______ _______ _______ _____ _____    ______ ____
ROOT
ATOM      1  C   UNL     1       2.566   0.826   0.000  0.00  0.00    +0.149 A 
ATOM      2  N   UNL     1       1.781   1.085   0.000  0.00  0.00    -0.219 NA
ATOM      3  C   UNL     1       1.293   0.413   0.000  0.00  0.00    +0.180 A 
ATOM      4  N   UNL     1       1.781  -0.255   0.000  0.00  0.00    -0.292 N 
ATOM      5  C   UNL     1       2.566   0.000   0.000  0.00  0.00    +0.167 A 
ATOM      6  N   UNL     1       3.279  -0.413   0.000  0.00  0.00    -0.205 NA
ATOM      7  C   UNL     1       3.996   0.000   0.000  0.00  0.00    +0.201 A 
ATOM      8  N   UNL     1       3.996   0.826   0.000  0.00  0.00    -0.207 NA
ATOM      9  C   UNL     1       3.279   1.239   0.000  0.00  0.00    +0.154 A 
ENDROOT
BRANCH   9  10
ATOM     10  N   UNL     1       3.279   2.065   0.000  0.00  0.00    -0.292 N 
ATOM     11  C   UNL     1       2.566   2.478   0.000  0.00  0.00    +0.114 C 
BRANCH  10  12
ATOM     12  C   UNL     1       3.996   2.478   0.000  0.00  0.00    +0.079 C 
ATOM     13  C   UNL     1       4.793   2.265   0.000  0.00  0.00    +0.049 C 
ATOM     14  C   UNL     1       5.006   3.066   0.000  0.00  0.00    +0.118 C 
ATOM     15  C   UNL     1       4.209   3.279   0.000  0.00  0.00    +0.042 C 
ATOM     16  C   UNL     1       4.230   4.101   0.000  0.00  0.00    +0.004 C 
ATOM     17  C   UNL     1       3.483   3.671   0.000  0.00  0.00    +0.004 C 
BRANCH  14  18
ATOM     18  O   UNL     1       5.723   3.479   0.000  0.00  0.00    -0.356 OA
BRANCH  18  19
ATOM     19  C   UNL     1       5.723   4.301   0.000  0.00  0.00    +0.142 C 
ATOM     20  C   UNL     1       6.437   4.714   0.000  0.00  0.00    +0.035 C 
ENDBRANCH  18  19
ENDBRANCH  14  18
ENDBRANCH  10  12
ENDBRANCH   9  10
BRANCH   4  21
ATOM     21  C   UNL     1       1.523  -1.039   0.000  0.00  0.00    +0.142 C 
BRANCH  21  22
ATOM     22  C   UNL     1       2.077  -1.652   0.000  0.00  0.00    +0.174 C 
ATOM     23  O   UNL     1       1.410  -2.140   0.000  0.00  0.00    -0.221 OA
ATOM     24  C   UNL     1       2.628  -1.039   0.000  0.00  0.00    +0.067 C 
ATOM     25  C   UNL     1       3.383  -1.377   0.000  0.00  0.00    +0.145 C 
ATOM     26  O   UNL     1       3.300  -2.194   0.000  0.00  0.00    -0.354 OA
ATOM     27  C   UNL     1       2.490  -2.369   0.000  0.00  0.00    +0.145 C 
ATOM     28  C   UNL     1       2.152  -3.120   0.000  0.00  0.00    +0.035 C 
ENDBRANCH  21  22
ENDBRANCH   4  21
TORSDOF 6
