REMARK  Name = 
REMARK  6 active torsions:
REMARK  status: ('A' for Active; 'I' for Inactive)
REMARK    1  A    between atoms: N_2  and  C_4
REMARK    2  A    between atoms: N_9  and  C_10
REMARK    3  A    between atoms: C_10  and  C_11
REMARK    4  A    between atoms: N_13  and  C_14
REMARK    5  A    between atoms: C_14  and  C_15
REMARK    6  A    between atoms: C_14  and  C_18
REMARK                            x       y       z     vdW  Elec       q    Type
REMARK                         _______ _______ _______ _____ _____    ______ ____
ROOT
ATOM      1  C   UNL     1       1.429   1.650   0.000  0.00  0.00    +0.196 C 
ENDROOT
BRANCH   1   4
ATOM      2  C   UNL     1      -0.715   2.062   0.000  0.00  0.00    +0.307 A 
ATOM      3  C   UNL     1       0.000   1.650   0.000  0.00  0.00    +0.155 A 
ATOM      4  N   UNL     1       0.715   2.062   0.000  0.00  0.00    -0.280 N 
ATOM      5  C   UNL     1       0.715   2.888   0.000  0.00  0.00    +0.262 A 
ATOM      6  O   UNL     1       1.429   3.300   0.000  0.00  0.00    -0.267 OA
ATOM      7  C   UNL     1       0.000   3.300   0.000  0.00  0.00    +0.067 A 
ATOM      8  C   UNL     1      -0.715   2.888   0.000  0.00  0.00    +0.082 A 
BRANCH   2  10
ATOM      9  O   UNL     1      -2.143   2.062   0.000  0.00  0.00    -0.576 OA
ATOM     10  N   UNL     1      -1.429   1.650   0.000  0.00  0.00    +0.082 N 
ATOM     11  O   UNL     1      -1.429   0.825   0.000  0.00  0.00    +0.042 OA
ENDBRANCH   2  10
ENDBRANCH   1   4
BRANCH   1  12
ATOM     12  C   UNL     1       2.143   2.062   0.000  0.00  0.00    +0.264 C 
ATOM     13  N   UNL     1       2.858   1.650   0.000  0.00  0.00    -0.206 NA
ATOM     14  O   UNL     1       2.143   2.888   0.000  0.00  0.00    -0.271 OA
BRANCH  13  15
ATOM     15  C   UNL     1       3.572   2.062   0.000  0.00  0.00    +0.095 C 
BRANCH  15  16
ATOM     16  C   UNL     1       3.572   2.888   0.000  0.00  0.00    +0.020 C 
ATOM     17  C   UNL     1       3.985   3.602   0.000  0.00  0.00    +0.002 C 
ATOM     18  C   UNL     1       3.160   3.602   0.000  0.00  0.00    +0.002 C 
ENDBRANCH  15  16
BRANCH  15  19
ATOM     19  C   UNL     1       4.287   1.650   0.000  0.00  0.00    +0.020 C 
ATOM     20  C   UNL     1       4.699   0.935   0.000  0.00  0.00    +0.002 C 
ATOM     21  C   UNL     1       5.112   1.650   0.000  0.00  0.00    +0.002 C 
ENDBRANCH  15  19
ENDBRANCH  13  15
ENDBRANCH   1  12
TORSDOF 6
