REMARK  Name = 
REMARK  3 active torsions:
REMARK  status: ('A' for Active; 'I' for Inactive)
REMARK    1  A    between atoms: N_9  and  C_10
REMARK    2  A    between atoms: C_10  and  C_12
REMARK    3  A    between atoms: C_10  and  C_14
REMARK                            x       y       z     vdW  Elec       q    Type
REMARK                         _______ _______ _______ _____ _____    ______ ____
ROOT
ATOM      1  C   UNL     1       2.751  -2.537   0.000  0.00  0.00    +0.154 C 
ATOM      2  N   UNL     1       2.751  -3.362   0.000  0.00  0.00    -0.246 N 
ATOM      3  N   UNL     1       2.084  -3.846   0.000  0.00  0.00    -0.152 NA
ATOM      4  C   UNL     1       2.339  -4.631   0.000  0.00  0.00    +0.177 A 
ATOM      5  N   UNL     1       1.854  -5.299   0.000  0.00  0.00    -0.140 NA
ATOM      6  C   UNL     1       1.033  -5.212   0.000  0.00  0.00    +0.345 C 
ATOM      7  N   UNL     1       0.548  -5.880   0.000  0.00  0.00    -0.188 NA
ATOM      8  O   UNL     1       0.698  -4.459   0.000  0.00  0.00    -0.249 OA
ATOM      9  C   UNL     1       3.164  -4.631   0.000  0.00  0.00    +0.058 A 
ATOM     10  C   UNL     1       3.419  -3.846   0.000  0.00  0.00    +0.098 A 
ENDROOT
BRANCH   7  11
ATOM     11  C   UNL     1      -0.272  -5.794   0.000  0.00  0.00    +0.111 C 
ATOM     12  C   UNL     1      -0.186  -4.973   0.000  0.00  0.00    +0.024 C 
BRANCH  11  13
ATOM     13  C   UNL     1      -1.093  -5.707   0.000  0.00  0.00    +0.021 C 
ATOM     14  C   UNL     1      -1.428  -4.954   0.000  0.00  0.00    +0.002 C 
ATOM     15  C   UNL     1      -2.249  -4.867   0.000  0.00  0.00    +0.000 C 
ATOM     16  C   UNL     1      -2.734  -5.535   0.000  0.00  0.00    +0.000 C 
ATOM     17  C   UNL     1      -2.398  -6.288   0.000  0.00  0.00    +0.000 C 
ATOM     18  C   UNL     1      -1.577  -6.375   0.000  0.00  0.00    +0.002 C 
ENDBRANCH  11  13
BRANCH  11  19
ATOM     19  C   UNL     1      -0.358  -6.614   0.000  0.00  0.00    +0.202 C 
ATOM     20  O   UNL     1      -1.112  -6.950   0.000  0.00  0.00    -0.219 OA
ENDBRANCH  11  19
ENDBRANCH   7  11
TORSDOF 3
