REMARK  Name = 
REMARK  7 active torsions:
REMARK  status: ('A' for Active; 'I' for Inactive)
REMARK    1  A    between atoms: O_2  and  C_3
REMARK    2  A    between atoms: C_8  and  O_9
REMARK    3  A    between atoms: O_9  and  C_10
REMARK    4  A    between atoms: C_10  and  C_11
REMARK    5  A    between atoms: C_11  and  N_12
REMARK    6  A    between atoms: C_13  and  C_21
REMARK    7  A    between atoms: C_21  and  N_23
REMARK                            x       y       z     vdW  Elec       q    Type
REMARK                         _______ _______ _______ _____ _____    ______ ____
ROOT
ATOM      1  N   UNL     1       1.139  -1.365   0.000  0.00  0.00    -0.310 N 
ATOM      2  C   UNL     1       1.923  -1.110   0.000  0.00  0.00    +0.079 A 
ATOM      3  C   UNL     1       1.923  -0.285   0.000  0.00  0.00    +0.098 A 
ATOM      4  C   UNL     1       2.638   0.127   0.000  0.00  0.00    +0.021 A 
ATOM      5  C   UNL     1       3.352  -0.285   0.000  0.00  0.00    +0.002 A 
ATOM      6  C   UNL     1       3.352  -1.110   0.000  0.00  0.00    +0.002 A 
ATOM      7  N   UNL     1       1.139  -0.030   0.000  0.00  0.00    -0.229 NA
ATOM      8  C   UNL     1       2.638  -1.523   0.000  0.00  0.00    +0.019 A 
ATOM      9  C   UNL     1       0.654  -0.698   0.000  0.00  0.00    +0.140 A 
ENDROOT
BRANCH   9  10
ATOM     10  C   UNL     1      -0.171  -0.698   0.000  0.00  0.00    +0.152 C 
ATOM     11  C   UNL     1      -0.584   0.017   0.000  0.00  0.00    +0.032 C 
BRANCH  10  12
ATOM     12  N   UNL     1      -0.584  -1.412   0.000  0.00  0.00    -0.192 NA
ATOM     13  C   UNL     1      -1.409  -1.412   0.000  0.00  0.00    +0.320 C 
ATOM     14  O   UNL     1      -1.821  -0.698   0.000  0.00  0.00    -0.263 OA
ENDBRANCH  10  12
ENDBRANCH   9  10
BRANCH   1  15
ATOM     15  C   UNL     1       0.884  -2.150   0.000  0.00  0.00    +0.154 C 
BRANCH  15  16
ATOM     16  C   UNL     1       1.436  -2.763   0.000  0.00  0.00    +0.230 C 
BRANCH  16  17
ATOM     17  O   UNL     1       1.181  -3.548   0.000  0.00  0.00    -0.470 OA
BRANCH  17  19
ATOM     18  C   UNL     1       2.540  -3.989   0.000  0.00  0.00    +0.172 A 
ATOM     19  C   UNL     1       1.733  -4.161   0.000  0.00  0.00    +0.172 A 
ATOM     20  C   UNL     1       1.478  -4.945   0.000  0.00  0.00    +0.040 A 
ATOM     21  C   UNL     1       2.030  -5.559   0.000  0.00  0.00    +0.003 A 
ATOM     22  C   UNL     1       2.837  -5.387   0.000  0.00  0.00    +0.003 A 
ATOM     23  C   UNL     1       3.092  -4.602   0.000  0.00  0.00    +0.040 A 
BRANCH  18  25
ATOM     24  C   UNL     1       3.602  -3.033   0.000  0.00  0.00    +0.253 C 
ATOM     25  O   UNL     1       2.795  -3.205   0.000  0.00  0.00    -0.468 OA
ENDBRANCH  18  25
ENDBRANCH  17  19
ENDBRANCH  16  17
ENDBRANCH  15  16
ENDBRANCH   1  15
TORSDOF 7
