REMARK  Name = 
REMARK  6 active torsions:
REMARK  status: ('A' for Active; 'I' for Inactive)
REMARK    1  A    between atoms: C_2  and  C_3
REMARK    2  A    between atoms: C_3  and  C_4
REMARK    3  A    between atoms: C_11  and  C_12
REMARK    4  A    between atoms: N_14  and  C_15
REMARK    5  A    between atoms: C_15  and  C_16
REMARK    6  A    between atoms: C_16  and  C_17
REMARK                            x       y       z     vdW  Elec       q    Type
REMARK                         _______ _______ _______ _____ _____    ______ ____
ROOT
ATOM      1  C   UNL     1      -0.715  -3.712   0.000  0.00  0.00    +0.226 C 
ATOM      2  N   UNL     1      -0.715  -2.888   0.000  0.00  0.00    -0.273 N 
ATOM      3  C   UNL     1       0.000  -2.475   0.000  0.00  0.00    +0.153 C 
ATOM      4  C   UNL     1       0.000  -1.650   0.000  0.00  0.00    +0.029 C 
ATOM      5  C   UNL     1      -0.715  -1.238   0.000  0.00  0.00    +0.004 C 
ATOM      6  C   UNL     1      -1.429  -1.650   0.000  0.00  0.00    +0.022 C 
ATOM      7  C   UNL     1      -1.429  -2.475   0.000  0.00  0.00    +0.094 C 
ATOM      8  O   UNL     1       0.000  -4.125   0.000  0.00  0.00    -0.275 OA
ENDROOT
BRANCH   3   9
ATOM      9  C   UNL     1       0.715  -2.888   0.000  0.00  0.00    +0.259 C 
ATOM     10  N   UNL     1       1.429  -2.475   0.000  0.00  0.00    -0.204 NA
ATOM     11  O   UNL     1       0.715  -3.712   0.000  0.00  0.00    -0.272 OA
BRANCH  10  12
ATOM     12  C   UNL     1       2.143  -2.888   0.000  0.00  0.00    +0.120 C 
BRANCH  12  13
ATOM     13  C   UNL     1       2.858  -2.475   0.000  0.00  0.00    +0.051 C 
BRANCH  13  14
ATOM     14  C   UNL     1       3.572  -2.888   0.000  0.00  0.00    -0.001 A 
ATOM     15  C   UNL     1       3.572  -3.712   0.000  0.00  0.00    +0.095 A 
ATOM     16  N   UNL     1       4.287  -4.125   0.000  0.00  0.00    -0.243 NA
ATOM     17  C   UNL     1       5.001  -3.712   0.000  0.00  0.00    +0.099 A 
ATOM     18  C   UNL     1       5.001  -2.888   0.000  0.00  0.00    +0.020 A 
ATOM     19  C   UNL     1       4.287  -2.475   0.000  0.00  0.00    -0.001 A 
ENDBRANCH  13  14
ENDBRANCH  12  13
ENDBRANCH  10  12
ENDBRANCH   3   9
BRANCH   1  20
ATOM     20  C   UNL     1      -1.429  -4.125   0.000  0.00  0.00    +0.085 C 
BRANCH  20  22
ATOM     21  C   UNL     1      -2.143  -5.362   0.000  0.00  0.00    +0.001 C 
ATOM     22  C   UNL     1      -1.429  -4.950   0.000  0.00  0.00    +0.010 C 
ENDBRANCH  20  22
ENDBRANCH   1  20
TORSDOF 6
