REMARK  Name = 
REMARK  5 active torsions:
REMARK  status: ('A' for Active; 'I' for Inactive)
REMARK    1  A    between atoms: C_2  and  N_3
REMARK    2  A    between atoms: C_2  and  C_18
REMARK    3  A    between atoms: C_4  and  C_6
REMARK    4  A    between atoms: C_6  and  N_7
REMARK    5  A    between atoms: C_9  and  C_14
REMARK                            x       y       z     vdW  Elec       q    Type
REMARK                         _______ _______ _______ _____ _____    ______ ____
ROOT
ATOM      1  C   UNL     1       2.858  -2.475   0.000  0.00  0.00    +0.196 C 
ENDROOT
BRANCH   1   2
ATOM      2  N   UNL     1       3.572  -2.888   0.000  0.00  0.00    -0.285 N 
ATOM      3  C   UNL     1       3.572  -3.712   0.000  0.00  0.00    +0.261 A 
ATOM      4  O   UNL     1       2.858  -4.125   0.000  0.00  0.00    -0.267 OA
ATOM      5  C   UNL     1       4.287  -4.125   0.000  0.00  0.00    +0.061 A 
ATOM      6  C   UNL     1       5.001  -3.712   0.000  0.00  0.00    +0.010 A 
ATOM      7  C   UNL     1       5.001  -2.888   0.000  0.00  0.00    +0.089 A 
ATOM      8  C   UNL     1       4.287  -2.475   0.000  0.00  0.00    +0.083 A 
BRANCH   7   9
ATOM      9  C   UNL     1       5.716  -2.475   0.000  0.00  0.00    +0.420 C 
ATOM     10  F   UNL     1       6.128  -3.189   0.000  0.00  0.00    -0.166 F 
ATOM     11  F   UNL     1       5.303  -1.760   0.000  0.00  0.00    -0.166 F 
ATOM     12  F   UNL     1       6.430  -2.062   0.000  0.00  0.00    -0.166 F 
ENDBRANCH   7   9
ENDBRANCH   1   2
BRANCH   1  14
ATOM     13  N   UNL     1       1.429  -2.475   0.000  0.00  0.00    -0.203 NA
ATOM     14  C   UNL     1       2.143  -2.888   0.000  0.00  0.00    +0.265 C 
ATOM     15  O   UNL     1       2.143  -3.712   0.000  0.00  0.00    -0.271 OA
BRANCH  13  17
ATOM     16  C   UNL     1       0.715  -3.712   0.000  0.00  0.00    +0.026 C 
ATOM     17  C   UNL     1       0.715  -2.888   0.000  0.00  0.00    +0.122 C 
BRANCH  17  18
ATOM     18  C   UNL     1       0.000  -2.475   0.000  0.00  0.00    +0.135 C 
ATOM     19  O   UNL     1      -0.086  -1.655   0.000  0.00  0.00    -0.354 OA
ATOM     20  C   UNL     1      -0.893  -1.483   0.000  0.00  0.00    +0.142 C 
ATOM     21  C   UNL     1      -1.306  -2.197   0.000  0.00  0.00    +0.035 C 
ATOM     22  C   UNL     1      -0.754  -2.811   0.000  0.00  0.00    +0.034 C 
ENDBRANCH  17  18
ENDBRANCH  13  17
ENDBRANCH   1  14
TORSDOF 5
