REMARK  Name = 
REMARK  7 active torsions:
REMARK  status: ('A' for Active; 'I' for Inactive)
REMARK    1  A    between atoms: O_2  and  C_3
REMARK    2  A    between atoms: C_3  and  C_4
REMARK    3  A    between atoms: C_4  and  O_5
REMARK    4  A    between atoms: O_5  and  C_6
REMARK    5  A    between atoms: C_11  and  C_12
REMARK    6  A    between atoms: C_12  and  N_13
REMARK    7  A    between atoms: C_14  and  C_16
REMARK                            x       y       z     vdW  Elec       q    Type
REMARK                         _______ _______ _______ _____ _____    ______ ____
ROOT
ATOM      1  C   UNL     1       2.143  -2.062   0.000  0.00  0.00    +0.222 A 
ATOM      2  C   UNL     1       2.858  -2.475   0.000  0.00  0.00    +0.053 A 
ATOM      3  C   UNL     1       3.572  -2.062   0.000  0.00  0.00    +0.004 A 
ATOM      4  C   UNL     1       3.572  -1.238   0.000  0.00  0.00    +0.021 A 
ATOM      5  C   UNL     1       2.858  -0.825   0.000  0.00  0.00    +0.102 A 
ATOM      6  N   UNL     1       2.143  -1.238   0.000  0.00  0.00    -0.210 NA
ENDROOT
BRANCH   1   7
ATOM      7  O   UNL     1       1.429  -2.475   0.000  0.00  0.00    -0.458 OA
BRANCH   7   8
ATOM      8  C   UNL     1       0.715  -2.062   0.000  0.00  0.00    +0.239 C 
BRANCH   8   9
ATOM      9  C   UNL     1       0.000  -2.475   0.000  0.00  0.00    +0.189 C 
BRANCH   9  11
ATOM     10  C   UNL     1      -1.429  -2.475   0.000  0.00  0.00    +0.174 C 
ATOM     11  O   UNL     1      -0.715  -2.062   0.000  0.00  0.00    -0.347 OA
ENDBRANCH   9  11
ENDBRANCH   8   9
ENDBRANCH   7   8
ENDBRANCH   1   7
BRANCH   2  12
ATOM     12  C   UNL     1       2.858  -3.300   0.000  0.00  0.00    +0.146 C 
BRANCH  12  13
ATOM     13  N   UNL     1       2.143  -3.712   0.000  0.00  0.00    -0.200 NA
ATOM     14  C   UNL     1       2.143  -4.537   0.000  0.00  0.00    +0.241 C 
ATOM     15  O   UNL     1       1.429  -4.950   0.000  0.00  0.00    -0.273 OA
BRANCH  14  16
ATOM     16  C   UNL     1       2.858  -4.950   0.000  0.00  0.00    +0.078 C 
ATOM     17  C   UNL     1       3.071  -5.747   0.000  0.00  0.00    +0.009 C 
ATOM     18  C   UNL     1       3.868  -5.533   0.000  0.00  0.00    +0.001 C 
ATOM     19  C   UNL     1       3.655  -4.737   0.000  0.00  0.00    +0.009 C 
ENDBRANCH  14  16
ENDBRANCH  12  13
ENDBRANCH   2  12
TORSDOF 7
