REMARK  Name = 
REMARK  3 active torsions:
REMARK  status: ('A' for Active; 'I' for Inactive)
REMARK    1  A    between atoms: C_2  and  C_3
REMARK    2  A    between atoms: C_2  and  N_10
REMARK    3  A    between atoms: C_3  and  N_4
REMARK                            x       y       z     vdW  Elec       q    Type
REMARK                         _______ _______ _______ _____ _____    ______ ____
ROOT
ATOM      1  C   UNL     1       1.429  -2.475   0.000  0.00  0.00    +0.025 C 
ATOM      2  C   UNL     1       1.429  -1.650   0.000  0.00  0.00    +0.113 C 
ENDROOT
BRANCH   2   3
ATOM      3  N   UNL     1       2.143  -1.238   0.000  0.00  0.00    -0.187 NA
ATOM      4  C   UNL     1       2.858  -1.650   0.000  0.00  0.00    +0.345 C 
ATOM      5  N   UNL     1       3.572  -1.238   0.000  0.00  0.00    -0.136 NA
ATOM      6  C   UNL     1       4.287  -1.650   0.000  0.00  0.00    +0.187 A 
ATOM      7  S   UNL     1       4.373  -2.470   0.000  0.00  0.00    -0.049 S 
ATOM      8  C   UNL     1       5.180  -2.642   0.000  0.00  0.00    +0.059 A 
ATOM      9  C   UNL     1       5.593  -1.927   0.000  0.00  0.00    +0.108 A 
ATOM     10  N   UNL     1       5.040  -1.314   0.000  0.00  0.00    -0.221 NA
ATOM     11  O   UNL     1       2.858  -2.475   0.000  0.00  0.00    -0.249 OA
ENDBRANCH   2   3
BRANCH   2  12
ATOM     12  C   UNL     1       0.715  -1.238   0.000  0.00  0.00    +0.094 C 
BRANCH  12  13
ATOM     13  N   UNL     1       0.000  -1.650   0.000  0.00  0.00    -0.267 NA
ATOM     14  C   UNL     1      -0.715  -1.238   0.000  0.00  0.00    +0.105 C 
ATOM     15  C   UNL     1      -1.429  -1.650   0.000  0.00  0.00    +0.159 C 
ATOM     16  O   UNL     1      -1.429  -2.475   0.000  0.00  0.00    -0.351 OA
ATOM     17  C   UNL     1      -0.715  -2.888   0.000  0.00  0.00    +0.159 C 
ATOM     18  C   UNL     1       0.000  -2.475   0.000  0.00  0.00    +0.105 C 
ENDBRANCH  12  13
ENDBRANCH   2  12
TORSDOF 3
