REMARK  Name = 
REMARK  3 active torsions:
REMARK  status: ('A' for Active; 'I' for Inactive)
REMARK    1  A    between atoms: C_6  and  C_7
REMARK    2  A    between atoms: C_7  and  C_8
REMARK    3  A    between atoms: N_10  and  C_11
REMARK                            x       y       z     vdW  Elec       q    Type
REMARK                         _______ _______ _______ _____ _____    ______ ____
ROOT
ATOM      1  C   UNL     1       2.092  -5.456   0.000  0.00  0.00    +0.119 C 
ENDROOT
BRANCH   1   7
ATOM      2  C   UNL     1       2.092  -2.156   0.000  0.00  0.00    +0.074 C 
ATOM      3  C   UNL     1       2.092  -2.981   0.000  0.00  0.00    +0.142 A 
ATOM      4  N   UNL     1       1.378  -3.394   0.000  0.00  0.00    -0.193 NA
ATOM      5  C   UNL     1       1.378  -4.219   0.000  0.00  0.00    +0.278 A 
ATOM      6  O   UNL     1       0.663  -4.631   0.000  0.00  0.00    -0.265 OA
ATOM      7  C   UNL     1       2.092  -4.631   0.000  0.00  0.00    +0.058 A 
ATOM      8  C   UNL     1       2.807  -4.219   0.000  0.00  0.00    +0.062 A 
ATOM      9  C   UNL     1       3.521  -4.631   0.000  0.00  0.00    +0.052 C 
ATOM     10  N   UNL     1       2.807  -3.394   0.000  0.00  0.00    -0.235 NA
ENDBRANCH   1   7
BRANCH   1  11
ATOM     11  C   UNL     1       1.378  -5.869   0.000  0.00  0.00    +0.246 C 
ATOM     12  N   UNL     1       1.378  -6.694   0.000  0.00  0.00    -0.207 NA
ATOM     13  O   UNL     1       0.663  -5.456   0.000  0.00  0.00    -0.273 OA
BRANCH  12  14
ATOM     14  C   UNL     1       0.663  -7.106   0.000  0.00  0.00    +0.095 C 
ATOM     15  C   UNL     1      -0.018  -6.642   0.000  0.00  0.00    +0.022 C 
ATOM     16  C   UNL     1      -0.807  -6.885   0.000  0.00  0.00    +0.002 C 
ATOM     17  C   UNL     1      -1.108  -7.653   0.000  0.00  0.00    +0.000 C 
ATOM     18  C   UNL     1      -0.696  -8.367   0.000  0.00  0.00    +0.000 C 
ATOM     19  C   UNL     1       0.120  -8.490   0.000  0.00  0.00    +0.002 C 
ATOM     20  C   UNL     1       0.725  -7.929   0.000  0.00  0.00    +0.022 C 
ENDBRANCH  12  14
ENDBRANCH   1  11
TORSDOF 3
