REMARK  Name = 
REMARK  6 active torsions:
REMARK  status: ('A' for Active; 'I' for Inactive)
REMARK    1  A    between atoms: C_3  and  C_5
REMARK    2  A    between atoms: C_9  and  N_10
REMARK    3  A    between atoms: N_10  and  C_11
REMARK    4  A    between atoms: C_11  and  C_12
REMARK    5  A    between atoms: N_14  and  C_15
REMARK    6  A    between atoms: C_15  and  C_16
REMARK                            x       y       z     vdW  Elec       q    Type
REMARK                         _______ _______ _______ _____ _____    ______ ____
ROOT
ATOM      1  N   UNL     1       0.000  -4.125   0.000  0.00  0.00    -0.218 NA
ENDROOT
BRANCH   1   4
ATOM      2  C   UNL     1       1.429  -2.475   0.000  0.00  0.00    +0.138 A 
ATOM      3  N   UNL     1       0.715  -2.888   0.000  0.00  0.00    -0.225 NA
ATOM      4  C   UNL     1       0.715  -3.712   0.000  0.00  0.00    +0.148 A 
ATOM      5  C   UNL     1       1.429  -4.125   0.000  0.00  0.00    +0.036 A 
ATOM      6  C   UNL     1       2.143  -3.712   0.000  0.00  0.00    +0.005 A 
ATOM      7  C   UNL     1       2.143  -2.888   0.000  0.00  0.00    +0.024 A 
BRANCH   2  10
ATOM      8  C   UNL     1       2.143  -0.412   0.000  0.00  0.00    +0.139 C 
ATOM      9  N   UNL     1       2.143  -1.238   0.000  0.00  0.00    -0.198 NA
ATOM     10  C   UNL     1       1.429  -1.650   0.000  0.00  0.00    +0.283 C 
ATOM     11  O   UNL     1       0.715  -1.238   0.000  0.00  0.00    -0.267 OA
ENDBRANCH   2  10
ENDBRANCH   1   4
BRANCH   1  12
ATOM     12  C   UNL     1       0.000  -4.950   0.000  0.00  0.00    +0.145 C 
BRANCH  12  13
ATOM     13  C   UNL     1      -0.715  -5.362   0.000  0.00  0.00    +0.153 C 
ATOM     14  O   UNL     1      -1.429  -4.950   0.000  0.00  0.00    -0.352 OA
ATOM     15  C   UNL     1      -2.143  -5.362   0.000  0.00  0.00    +0.159 C 
ATOM     16  C   UNL     1      -2.143  -6.188   0.000  0.00  0.00    +0.105 C 
ATOM     17  N   UNL     1      -1.429  -6.600   0.000  0.00  0.00    -0.268 NA
ATOM     18  C   UNL     1      -0.715  -6.188   0.000  0.00  0.00    +0.104 C 
BRANCH  17  19
ATOM     19  C   UNL     1      -1.429  -7.425   0.000  0.00  0.00    +0.072 C 
BRANCH  19  20
ATOM     20  C   UNL     1      -2.143  -7.838   0.000  0.00  0.00    +0.016 C 
ATOM     21  C   UNL     1      -2.858  -7.425   0.000  0.00  0.00    +0.001 C 
ATOM     22  C   UNL     1      -2.143  -8.662   0.000  0.00  0.00    +0.001 C 
ENDBRANCH  19  20
ENDBRANCH  17  19
ENDBRANCH  12  13
ENDBRANCH   1  12
TORSDOF 6
