REMARK  Name = 
REMARK  4 active torsions:
REMARK  status: ('A' for Active; 'I' for Inactive)
REMARK    1  A    between atoms: C_2  and  N_3
REMARK    2  A    between atoms: C_7  and  N_9
REMARK    3  A    between atoms: N_12  and  C_13
REMARK    4  A    between atoms: C_15  and  C_20
REMARK                            x       y       z     vdW  Elec       q    Type
REMARK                         _______ _______ _______ _____ _____    ______ ____
ROOT
ATOM      1  N   UNL     1       1.429  -4.125   0.000  0.00  0.00    -0.187 NA
ATOM      2  C   UNL     1       0.715  -3.712   0.000  0.00  0.00    +0.344 C 
ATOM      3  N   UNL     1       0.000  -4.125   0.000  0.00  0.00    -0.156 NA
ATOM      4  O   UNL     1       0.715  -2.888   0.000  0.00  0.00    -0.249 OA
ENDROOT
BRANCH   3   5
ATOM      5  C   UNL     1      -0.715  -3.712   0.000  0.00  0.00    +0.133 A 
ATOM      6  C   UNL     1      -0.715  -2.888   0.000  0.00  0.00    +0.295 A 
ATOM      7  O   UNL     1       0.000  -2.475   0.000  0.00  0.00    -0.264 OA
ATOM      8  N   UNL     1      -1.429  -2.475   0.000  0.00  0.00    -0.205 NA
ATOM      9  C   UNL     1      -2.143  -2.888   0.000  0.00  0.00    +0.106 A 
ATOM     10  C   UNL     1      -2.143  -3.712   0.000  0.00  0.00    +0.092 A 
ATOM     11  C   UNL     1      -1.429  -4.125   0.000  0.00  0.00    +0.027 A 
BRANCH  10  12
ATOM     12  C   UNL     1      -2.858  -4.125   0.000  0.00  0.00    +0.420 C 
ATOM     13  F   UNL     1      -2.445  -4.840   0.000  0.00  0.00    -0.166 F 
ATOM     14  F   UNL     1      -3.270  -3.410   0.000  0.00  0.00    -0.166 F 
ATOM     15  F   UNL     1      -3.572  -4.537   0.000  0.00  0.00    -0.166 F 
ENDBRANCH  10  12
ENDBRANCH   3   5
BRANCH   1  18
ATOM     16  N   UNL     1       2.858  -2.475   0.000  0.00  0.00    -0.271 NA
ATOM     17  C   UNL     1       2.143  -2.888   0.000  0.00  0.00    +0.094 C 
ATOM     18  C   UNL     1       2.143  -3.712   0.000  0.00  0.00    +0.113 C 
ATOM     19  C   UNL     1       2.858  -4.125   0.000  0.00  0.00    +0.025 C 
ATOM     20  C   UNL     1       3.572  -3.712   0.000  0.00  0.00    +0.019 C 
ATOM     21  C   UNL     1       3.572  -2.888   0.000  0.00  0.00    +0.072 C 
BRANCH  16  23
ATOM     22  C   UNL     1       3.572  -1.238   0.000  0.00  0.00    +0.019 C 
ATOM     23  C   UNL     1       2.858  -1.650   0.000  0.00  0.00    +0.072 C 
ENDBRANCH  16  23
ENDBRANCH   1  18
TORSDOF 4
