REMARK  Name = 
REMARK  4 active torsions:
REMARK  status: ('A' for Active; 'I' for Inactive)
REMARK    1  A    between atoms: C_2  and  C_3
REMARK    2  A    between atoms: C_3  and  C_5
REMARK    3  A    between atoms: C_3  and  N_15
REMARK    4  A    between atoms: C_5  and  N_6
REMARK                            x       y       z     vdW  Elec       q    Type
REMARK                         _______ _______ _______ _____ _____    ______ ____
ROOT
ATOM      1  C   UNL     1       0.715  -1.238   0.000  0.00  0.00    +0.066 C 
ATOM      2  C   UNL     1       1.540  -1.238   0.000  0.00  0.00    +0.018 C 
ENDROOT
BRANCH   1   3
ATOM      3  N   UNL     1       0.715  -0.412   0.000  0.00  0.00    -0.269 NA
ATOM      4  C   UNL     1       1.429   0.000   0.000  0.00  0.00    +0.105 C 
ATOM      5  C   UNL     1       1.429   0.825   0.000  0.00  0.00    +0.159 C 
ATOM      6  O   UNL     1       0.715   1.238   0.000  0.00  0.00    -0.351 OA
ATOM      7  C   UNL     1       0.000   0.825   0.000  0.00  0.00    +0.159 C 
ATOM      8  C   UNL     1       0.000   0.000   0.000  0.00  0.00    +0.105 C 
ENDBRANCH   1   3
BRANCH   1  10
ATOM      9  C   UNL     1      -0.523  -0.523   0.000  0.00  0.00    +0.001 C 
ATOM     10  C   UNL     1      -0.111  -1.238   0.000  0.00  0.00    +0.016 C 
ENDBRANCH   1  10
BRANCH   1  11
ATOM     11  C   UNL     1       0.715  -2.062   0.000  0.00  0.00    +0.131 C 
BRANCH  11  12
ATOM     12  N   UNL     1       1.429  -2.475   0.000  0.00  0.00    -0.185 NA
ATOM     13  C   UNL     1       1.429  -3.300   0.000  0.00  0.00    +0.345 C 
ATOM     14  N   UNL     1       2.143  -3.712   0.000  0.00  0.00    -0.134 NA
ATOM     15  C   UNL     1       2.143  -4.537   0.000  0.00  0.00    +0.209 A 
ATOM     16  S   UNL     1       1.476  -5.022   0.000  0.00  0.00    -0.027 S 
ATOM     17  C   UNL     1       1.731  -5.807   0.000  0.00  0.00    +0.161 A 
ATOM     18  N   UNL     1       2.556  -5.807   0.000  0.00  0.00    -0.137 NA
ATOM     19  N   UNL     1       2.811  -5.022   0.000  0.00  0.00    -0.123 NA
ATOM     20  O   UNL     1       0.715  -3.712   0.000  0.00  0.00    -0.249 OA
ENDBRANCH  11  12
ENDBRANCH   1  11
TORSDOF 4
