REMARK  Name = 
REMARK  4 active torsions:
REMARK  status: ('A' for Active; 'I' for Inactive)
REMARK    1  A    between atoms: N_7  and  C_8
REMARK    2  A    between atoms: C_8  and  C_9
REMARK    3  A    between atoms: N_11  and  C_12
REMARK    4  A    between atoms: C_12  and  C_13
REMARK                            x       y       z     vdW  Elec       q    Type
REMARK                         _______ _______ _______ _____ _____    ______ ____
ROOT
ATOM      1  C   UNL     1       1.429   1.650   0.000  0.00  0.00    +0.196 C 
ENDROOT
BRANCH   1   5
ATOM      2  F   UNL     1      -1.429   1.650   0.000  0.00  0.00    -0.203 F 
ATOM      3  C   UNL     1      -0.715   2.062   0.000  0.00  0.00    +0.158 A 
ATOM      4  C   UNL     1       0.000   1.650   0.000  0.00  0.00    +0.109 A 
ATOM      5  N   UNL     1       0.715   2.062   0.000  0.00  0.00    -0.283 N 
ATOM      6  C   UNL     1       0.715   2.888   0.000  0.00  0.00    +0.262 A 
ATOM      7  O   UNL     1       1.429   3.300   0.000  0.00  0.00    -0.267 OA
ATOM      8  C   UNL     1       0.000   3.300   0.000  0.00  0.00    +0.063 A 
ATOM      9  C   UNL     1      -0.715   2.888   0.000  0.00  0.00    +0.036 A 
ENDBRANCH   1   5
BRANCH   1  10
ATOM     10  C   UNL     1       2.143   2.062   0.000  0.00  0.00    +0.265 C 
ATOM     11  N   UNL     1       2.858   1.650   0.000  0.00  0.00    -0.204 NA
ATOM     12  O   UNL     1       2.143   2.888   0.000  0.00  0.00    -0.271 OA
BRANCH  11  13
ATOM     13  C   UNL     1       3.572   2.062   0.000  0.00  0.00    +0.115 C 
BRANCH  13  14
ATOM     14  C   UNL     1       4.287   1.650   0.000  0.00  0.00    +0.022 C 
ATOM     15  C   UNL     1       4.500   0.853   0.000  0.00  0.00    +0.002 C 
ATOM     16  C   UNL     1       5.297   1.067   0.000  0.00  0.00    +0.000 C 
ATOM     17  C   UNL     1       5.084   1.863   0.000  0.00  0.00    +0.002 C 
ENDBRANCH  13  14
ENDBRANCH  11  13
ENDBRANCH   1  10
TORSDOF 4
