REMARK  Name = 
REMARK  4 active torsions:
REMARK  status: ('A' for Active; 'I' for Inactive)
REMARK    1  A    between atoms: S_2  and  C_3
REMARK    2  A    between atoms: C_8  and  C_10
REMARK    3  A    between atoms: C_10  and  O_11
REMARK    4  A    between atoms: O_11  and  C_12
REMARK                            x       y       z     vdW  Elec       q    Type
REMARK                         _______ _______ _______ _____ _____    ______ ____
ROOT
ATOM      1  C   UNL     1      -2.858   3.300   0.000  0.00  0.00    +0.045 A 
ATOM      2  C   UNL     1      -2.858   2.475   0.000  0.00  0.00    +0.106 A 
ATOM      3  N   UNL     1      -2.143   2.062   0.000  0.00  0.00    -0.227 NA
ATOM      4  C   UNL     1      -1.429   2.475   0.000  0.00  0.00    +0.155 A 
ATOM      5  N   UNL     1      -0.715   2.062   0.000  0.00  0.00    -0.158 NA
ATOM      6  C   UNL     1       0.000   2.475   0.000  0.00  0.00    +0.277 C 
ATOM      7  O   UNL     1       0.000   3.300   0.000  0.00  0.00    -0.270 OA
ATOM      8  C   UNL     1      -1.429   3.300   0.000  0.00  0.00    +0.037 A 
ATOM      9  C   UNL     1      -2.143   3.712   0.000  0.00  0.00    +0.011 A 
ENDROOT
BRANCH   1  11
ATOM     10  C   UNL     1      -4.287   3.300   0.000  0.00  0.00    +0.074 C 
ATOM     11  S   UNL     1      -3.572   3.712   0.000  0.00  0.00    -0.111 S 
ENDBRANCH   1  11
BRANCH   6  12
ATOM     12  C   UNL     1       0.715   2.062   0.000  0.00  0.00    +0.229 C 
BRANCH  12  13
ATOM     13  O   UNL     1       1.429   2.475   0.000  0.00  0.00    -0.347 OA
BRANCH  13  14
ATOM     14  C   UNL     1       2.143   2.062   0.000  0.00  0.00    +0.116 C 
ATOM     15  C   UNL     1       2.230   1.242   0.000  0.00  0.00    +0.030 C 
ATOM     16  C   UNL     1       3.037   1.071   0.000  0.00  0.00    +0.003 C 
ATOM     17  C   UNL     1       3.449   1.785   0.000  0.00  0.00    +0.003 C 
ATOM     18  C   UNL     1       2.897   2.398   0.000  0.00  0.00    +0.030 C 
ENDBRANCH  13  14
ENDBRANCH  12  13
ENDBRANCH   6  12
TORSDOF 4
