REMARK  Name = 
REMARK  4 active torsions:
REMARK  status: ('A' for Active; 'I' for Inactive)
REMARK    1  A    between atoms: C_2  and  N_3
REMARK    2  A    between atoms: C_2  and  C_18
REMARK    3  A    between atoms: N_6  and  C_7
REMARK    4  A    between atoms: C_12  and  N_13
REMARK                            x       y       z     vdW  Elec       q    Type
REMARK                         _______ _______ _______ _____ _____    ______ ____
ROOT
ATOM      1  N   UNL     1      -0.715  -1.238   0.000  0.00  0.00    -0.186 NA
ATOM      2  C   UNL     1       0.000  -1.650   0.000  0.00  0.00    +0.344 C 
ATOM      3  N   UNL     1       0.715  -1.238   0.000  0.00  0.00    -0.158 NA
ATOM      4  O   UNL     1       0.000  -2.475   0.000  0.00  0.00    -0.249 OA
ENDROOT
BRANCH   3   5
ATOM      5  C   UNL     1       0.715  -0.412   0.000  0.00  0.00    +0.106 A 
ATOM      6  C   UNL     1       1.429   0.000   0.000  0.00  0.00    +0.147 A 
ATOM      7  N   UNL     1       1.429   0.825   0.000  0.00  0.00    -0.228 NA
ATOM      8  C   UNL     1       0.715   1.238   0.000  0.00  0.00    +0.100 A 
ATOM      9  C   UNL     1       0.000   0.825   0.000  0.00  0.00    +0.022 A 
ATOM     10  C   UNL     1       0.000   0.000   0.000  0.00  0.00    +0.021 A 
BRANCH   6  11
ATOM     11  N   UNL     1       2.143  -0.412   0.000  0.00  0.00    -0.292 N 
ATOM     12  C   UNL     1       2.230  -1.233   0.000  0.00  0.00    +0.092 C 
ATOM     13  C   UNL     1       3.037  -1.405   0.000  0.00  0.00    +0.023 C 
ATOM     14  C   UNL     1       3.449  -0.690   0.000  0.00  0.00    +0.023 C 
ATOM     15  C   UNL     1       2.897  -0.077   0.000  0.00  0.00    +0.092 C 
ENDBRANCH   6  11
ENDBRANCH   3   5
BRANCH   1  17
ATOM     16  C   UNL     1      -1.429  -2.475   0.000  0.00  0.00    +0.026 C 
ATOM     17  C   UNL     1      -1.429  -1.650   0.000  0.00  0.00    +0.124 C 
BRANCH  17  18
ATOM     18  C   UNL     1      -2.143  -1.238   0.000  0.00  0.00    +0.135 C 
ATOM     19  O   UNL     1      -2.230  -0.417   0.000  0.00  0.00    -0.354 OA
ATOM     20  C   UNL     1      -3.037  -0.245   0.000  0.00  0.00    +0.142 C 
ATOM     21  C   UNL     1      -3.449  -0.960   0.000  0.00  0.00    +0.035 C 
ATOM     22  C   UNL     1      -2.897  -1.573   0.000  0.00  0.00    +0.034 C 
ENDBRANCH  17  18
ENDBRANCH   1  17
TORSDOF 4
