REMARK  Name = 
REMARK  5 active torsions:
REMARK  status: ('A' for Active; 'I' for Inactive)
REMARK    1  A    between atoms: C_2  and  C_5
REMARK    2  A    between atoms: C_8  and  N_9
REMARK    3  A    between atoms: N_12  and  C_13
REMARK    4  A    between atoms: C_13  and  C_14
REMARK    5  A    between atoms: N_16  and  C_17
REMARK                            x       y       z     vdW  Elec       q    Type
REMARK                         _______ _______ _______ _____ _____    ______ ____
ROOT
ATOM      1  N   UNL     1       1.429  -4.125   0.000  0.00  0.00    -0.158 NA
ATOM      2  C   UNL     1       2.143  -3.712   0.000  0.00  0.00    +0.344 C 
ATOM      3  N   UNL     1       2.858  -4.125   0.000  0.00  0.00    -0.177 NA
ATOM      4  O   UNL     1       2.143  -2.888   0.000  0.00  0.00    -0.249 OA
ENDROOT
BRANCH   1   8
ATOM      5  C   UNL     1      -0.715  -2.888   0.000  0.00  0.00    +0.138 A 
ATOM      6  N   UNL     1      -0.715  -3.712   0.000  0.00  0.00    -0.228 NA
ATOM      7  C   UNL     1       0.000  -4.125   0.000  0.00  0.00    +0.118 A 
ATOM      8  C   UNL     1       0.715  -3.712   0.000  0.00  0.00    +0.113 A 
ATOM      9  C   UNL     1       0.715  -2.888   0.000  0.00  0.00    +0.118 A 
ATOM     10  N   UNL     1       0.000  -2.475   0.000  0.00  0.00    -0.228 NA
BRANCH   5  12
ATOM     11  C   UNL     1      -2.143  -2.062   0.000  0.00  0.00    +0.008 C 
ATOM     12  C   UNL     1      -1.429  -2.475   0.000  0.00  0.00    +0.052 C 
ATOM     13  C   UNL     1      -1.016  -1.760   0.000  0.00  0.00    +0.008 C 
ATOM     14  C   UNL     1      -1.841  -3.189   0.000  0.00  0.00    +0.008 C 
ENDBRANCH   5  12
ENDBRANCH   1   8
BRANCH   3  15
ATOM     15  C   UNL     1       3.572  -3.712   0.000  0.00  0.00    +0.203 C 
BRANCH  15  16
ATOM     16  C   UNL     1       4.287  -4.125   0.000  0.00  0.00    +0.263 C 
ATOM     17  N   UNL     1       5.001  -3.712   0.000  0.00  0.00    -0.206 NA
ATOM     18  O   UNL     1       4.287  -4.950   0.000  0.00  0.00    -0.271 OA
BRANCH  17  19
ATOM     19  C   UNL     1       5.716  -4.125   0.000  0.00  0.00    +0.095 C 
ATOM     20  C   UNL     1       5.716  -4.950   0.000  0.00  0.00    +0.022 C 
ATOM     21  C   UNL     1       6.430  -5.362   0.000  0.00  0.00    +0.002 C 
ATOM     22  C   UNL     1       7.145  -4.950   0.000  0.00  0.00    +0.000 C 
ATOM     23  C   UNL     1       7.145  -4.125   0.000  0.00  0.00    +0.002 C 
ATOM     24  C   UNL     1       6.430  -3.712   0.000  0.00  0.00    +0.022 C 
ENDBRANCH  17  19
ENDBRANCH  15  16
ENDBRANCH   3  15
TORSDOF 5
