REMARK  Name = 
REMARK  3 active torsions:
REMARK  status: ('A' for Active; 'I' for Inactive)
REMARK    1  A    between atoms: N_8  and  C_9
REMARK    2  A    between atoms: C_9  and  C_10
REMARK    3  A    between atoms: C_10  and  N_13
REMARK                            x       y       z     vdW  Elec       q    Type
REMARK                         _______ _______ _______ _____ _____    ______ ____
ROOT
ATOM      1  C   UNL     1       2.143  -3.712   0.000  0.00  0.00    +0.075 C 
ATOM      2  C   UNL     1       2.143  -4.537   0.000  0.00  0.00    +0.156 A 
ATOM      3  O   UNL     1       1.476  -5.022   0.000  0.00  0.00    -0.356 OA
ATOM      4  N   UNL     1       1.731  -5.807   0.000  0.00  0.00    -0.060 NA
ATOM      5  C   UNL     1       2.556  -5.807   0.000  0.00  0.00    +0.197 A 
ATOM      6  N   UNL     1       3.041  -6.474   0.000  0.00  0.00    -0.139 NA
ATOM      7  C   UNL     1       3.861  -6.388   0.000  0.00  0.00    +0.345 C 
ATOM      8  N   UNL     1       4.346  -7.056   0.000  0.00  0.00    -0.186 NA
ATOM      9  O   UNL     1       4.197  -5.635   0.000  0.00  0.00    -0.249 OA
ATOM     10  C   UNL     1       2.811  -5.022   0.000  0.00  0.00    +0.075 A 
ENDROOT
BRANCH   8  11
ATOM     11  C   UNL     1       5.167  -6.970   0.000  0.00  0.00    +0.131 C 
BRANCH  11  12
ATOM     12  C   UNL     1       5.652  -7.637   0.000  0.00  0.00    +0.066 C 
ATOM     13  C   UNL     1       6.319  -7.152   0.000  0.00  0.00    +0.018 C 
ATOM     14  C   UNL     1       4.984  -8.122   0.000  0.00  0.00    +0.018 C 
BRANCH  12  15
ATOM     15  N   UNL     1       6.137  -8.304   0.000  0.00  0.00    -0.269 NA
ATOM     16  C   UNL     1       5.801  -9.058   0.000  0.00  0.00    +0.105 C 
ATOM     17  C   UNL     1       6.286  -9.725   0.000  0.00  0.00    +0.159 C 
ATOM     18  O   UNL     1       7.106  -9.639   0.000  0.00  0.00    -0.351 OA
ATOM     19  C   UNL     1       7.442  -8.886   0.000  0.00  0.00    +0.159 C 
ATOM     20  C   UNL     1       6.957  -8.218   0.000  0.00  0.00    +0.105 C 
ENDBRANCH  12  15
ENDBRANCH  11  12
ENDBRANCH   8  11
TORSDOF 3
