REMARK  Name = 
REMARK  4 active torsions:
REMARK  status: ('A' for Active; 'I' for Inactive)
REMARK    1  A    between atoms: C_6  and  C_7
REMARK    2  A    between atoms: C_7  and  C_8
REMARK    3  A    between atoms: C_8  and  N_9
REMARK    4  A    between atoms: N_12  and  C_13
REMARK                            x       y       z     vdW  Elec       q    Type
REMARK                         _______ _______ _______ _____ _____    ______ ____
ROOT
ATOM      1  N   UNL     1       3.572  -3.712   0.000  0.00  0.00    -0.187 NA
ATOM      2  C   UNL     1       4.287  -4.125   0.000  0.00  0.00    +0.339 C 
ATOM      3  N   UNL     1       5.001  -3.712   0.000  0.00  0.00    -0.189 NA
ATOM      4  O   UNL     1       4.287  -4.950   0.000  0.00  0.00    -0.249 OA
ENDROOT
BRANCH   3   5
ATOM      5  C   UNL     1       5.716  -4.125   0.000  0.00  0.00    +0.097 C 
ATOM      6  C   UNL     1       5.716  -4.950   0.000  0.00  0.00    +0.022 C 
ATOM      7  C   UNL     1       6.430  -5.362   0.000  0.00  0.00    +0.002 C 
ATOM      8  C   UNL     1       7.145  -4.950   0.000  0.00  0.00    +0.000 C 
ATOM      9  C   UNL     1       7.145  -4.125   0.000  0.00  0.00    +0.002 C 
ATOM     10  C   UNL     1       6.430  -3.712   0.000  0.00  0.00    +0.022 C 
ENDBRANCH   3   5
BRANCH   1  11
ATOM     11  C   UNL     1       2.858  -4.125   0.000  0.00  0.00    +0.125 C 
BRANCH  11  12
ATOM     12  C   UNL     1       2.143  -3.712   0.000  0.00  0.00    +0.087 C 
BRANCH  12  15
ATOM     13  C   UNL     1       1.956  -5.497   0.000  0.00  0.00    +0.132 C 
ATOM     14  N   UNL     1       1.343  -4.946   0.000  0.00  0.00    -0.312 N 
ATOM     15  C   UNL     1       1.429  -4.125   0.000  0.00  0.00    +0.122 A 
ATOM     16  N   UNL     1       0.675  -3.789   0.000  0.00  0.00    -0.229 NA
ATOM     17  C   UNL     1       0.123  -4.402   0.000  0.00  0.00    +0.119 A 
ATOM     18  C   UNL     1       0.536  -5.117   0.000  0.00  0.00    +0.098 A 
ENDBRANCH  12  15
ENDBRANCH  11  12
ENDBRANCH   1  11
TORSDOF 4
