REMARK  Name = 
REMARK  7 active torsions:
REMARK  status: ('A' for Active; 'I' for Inactive)
REMARK    1  A    between atoms: C_2  and  N_3
REMARK    2  A    between atoms: N_6  and  C_7
REMARK    3  A    between atoms: C_7  and  C_8
REMARK    4  A    between atoms: C_8  and  C_10
REMARK    5  A    between atoms: C_10  and  O_11
REMARK    6  A    between atoms: O_11  and  C_12
REMARK    7  A    between atoms: C_15  and  C_16
REMARK                            x       y       z     vdW  Elec       q    Type
REMARK                         _______ _______ _______ _____ _____    ______ ____
ROOT
ATOM      1  C   UNL     1      -0.126  -3.030   0.000  0.00  0.00    +0.147 C 
ENDROOT
BRANCH   1   8
ATOM      2  N   UNL     1      -1.733  -1.625   0.000  0.00  0.00    -0.280 N 
ATOM      3  C   UNL     1      -2.146  -2.340   0.000  0.00  0.00    +0.080 A 
ATOM      4  C   UNL     1      -1.594  -2.953   0.000  0.00  0.00    +0.080 A 
ATOM      5  C   UNL     1      -1.849  -3.737   0.000  0.00  0.00    +0.019 A 
ATOM      6  C   UNL     1      -2.656  -3.909   0.000  0.00  0.00    +0.002 A 
ATOM      7  C   UNL     1      -3.208  -3.296   0.000  0.00  0.00    +0.002 A 
ATOM      8  N   UNL     1      -0.840  -2.617   0.000  0.00  0.00    -0.277 N 
ATOM      9  C   UNL     1      -2.953  -2.511   0.000  0.00  0.00    +0.019 A 
ATOM     10  C   UNL     1      -0.926  -1.797   0.000  0.00  0.00    +0.332 A 
ATOM     11  O   UNL     1      -0.313  -1.245   0.000  0.00  0.00    -0.246 OA
BRANCH   2  13
ATOM     12  C   UNL     1      -2.889  -0.785   0.000  0.00  0.00    +0.027 C 
ATOM     13  C   UNL     1      -2.069  -0.872   0.000  0.00  0.00    +0.111 C 
ENDBRANCH   2  13
ENDBRANCH   1   8
BRANCH   1  14
ATOM     14  C   UNL     1       0.589  -2.617   0.000  0.00  0.00    +0.218 C 
ATOM     15  O   UNL     1       0.589  -1.792   0.000  0.00  0.00    -0.217 OA
BRANCH  14  16
ATOM     16  C   UNL     1       1.303  -3.030   0.000  0.00  0.00    +0.240 C 
BRANCH  16  17
ATOM     17  O   UNL     1       2.018  -2.617   0.000  0.00  0.00    -0.473 OA
BRANCH  17  18
ATOM     18  C   UNL     1       2.732  -3.030   0.000  0.00  0.00    +0.139 A 
ATOM     19  C   UNL     1       2.732  -3.855   0.000  0.00  0.00    +0.038 A 
ATOM     20  C   UNL     1       3.447  -4.267   0.000  0.00  0.00    +0.013 A 
ATOM     21  C   UNL     1       4.161  -3.855   0.000  0.00  0.00    +0.069 A 
ATOM     22  C   UNL     1       4.161  -3.030   0.000  0.00  0.00    +0.013 A 
ATOM     23  C   UNL     1       3.447  -2.617   0.000  0.00  0.00    +0.038 A 
BRANCH  21  24
ATOM     24  C   UNL     1       4.876  -4.267   0.000  0.00  0.00    +0.100 C 
ATOM     25  N   UNL     1       5.590  -4.680   0.000  0.00  0.00    -0.191 NA
ENDBRANCH  21  24
ENDBRANCH  17  18
ENDBRANCH  16  17
ENDBRANCH  14  16
ENDBRANCH   1  14
TORSDOF 7
