REMARK  Name = 
REMARK  5 active torsions:
REMARK  status: ('A' for Active; 'I' for Inactive)
REMARK    1  A    between atoms: C_2  and  C_3
REMARK    2  A    between atoms: C_3  and  N_4
REMARK    3  A    between atoms: N_13  and  C_14
REMARK    4  A    between atoms: C_14  and  C_15
REMARK    5  A    between atoms: C_15  and  C_17
REMARK                            x       y       z     vdW  Elec       q    Type
REMARK                         _______ _______ _______ _____ _____    ______ ____
ROOT
ATOM      1  N   UNL     1      -0.171  -0.698   0.000  0.00  0.00    -0.202 NA
ATOM      2  C   UNL     1       0.654  -0.698   0.000  0.00  0.00    +0.218 A 
ATOM      3  N   UNL     1       1.139  -1.365   0.000  0.00  0.00    -0.295 N 
ATOM      4  C   UNL     1       1.923  -1.110   0.000  0.00  0.00    +0.080 A 
ATOM      5  C   UNL     1       1.923  -0.285   0.000  0.00  0.00    +0.100 A 
ATOM      6  C   UNL     1       2.638   0.127   0.000  0.00  0.00    +0.021 A 
ATOM      7  C   UNL     1       3.352  -0.285   0.000  0.00  0.00    +0.002 A 
ATOM      8  C   UNL     1       3.352  -1.110   0.000  0.00  0.00    +0.002 A 
ATOM      9  C   UNL     1       2.638  -1.523   0.000  0.00  0.00    +0.019 A 
ATOM     10  N   UNL     1       1.139  -0.030   0.000  0.00  0.00    -0.212 NA
ENDROOT
BRANCH   1  11
ATOM     11  C   UNL     1      -0.584   0.017   0.000  0.00  0.00    +0.151 C 
BRANCH  11  13
ATOM     12  O   UNL     1      -1.821   0.731   0.000  0.00  0.00    -0.218 OA
ATOM     13  C   UNL     1      -1.409   0.017   0.000  0.00  0.00    +0.205 C 
ENDBRANCH  11  13
ENDBRANCH   1  11
BRANCH   3  14
ATOM     14  C   UNL     1       0.884  -2.150   0.000  0.00  0.00    +0.146 C 
BRANCH  14  15
ATOM     15  C   UNL     1       1.436  -2.763   0.000  0.00  0.00    +0.197 C 
ATOM     16  O   UNL     1       2.243  -2.592   0.000  0.00  0.00    -0.216 OA
BRANCH  15  17
ATOM     17  C   UNL     1       1.181  -3.548   0.000  0.00  0.00    +0.012 A 
ATOM     18  C   UNL     1       1.733  -4.161   0.000  0.00  0.00    +0.028 A 
ATOM     19  C   UNL     1       1.478  -4.945   0.000  0.00  0.00    +0.140 A 
ATOM     20  F   UNL     1       2.030  -5.559   0.000  0.00  0.00    -0.204 F 
ATOM     21  C   UNL     1       0.671  -5.117   0.000  0.00  0.00    +0.030 A 
ATOM     22  C   UNL     1       0.119  -4.504   0.000  0.00  0.00    +0.002 A 
ATOM     23  C   UNL     1       0.374  -3.719   0.000  0.00  0.00    -0.002 A 
ENDBRANCH  15  17
ENDBRANCH  14  15
ENDBRANCH   3  14
TORSDOF 5
