REMARK  Name = 
REMARK  7 active torsions:
REMARK  status: ('A' for Active; 'I' for Inactive)
REMARK    1  A    between atoms: C_2  and  C_3
REMARK    2  A    between atoms: C_3  and  C_4
REMARK    3  A    between atoms: C_4  and  N_5
REMARK    4  A    between atoms: C_6  and  C_8
REMARK    5  A    between atoms: C_8  and  N_9
REMARK    6  A    between atoms: C_10  and  C_12
REMARK    7  A    between atoms: C_12  and  N_13
REMARK                            x       y       z     vdW  Elec       q    Type
REMARK                         _______ _______ _______ _____ _____    ______ ____
ROOT
ATOM      1  N   UNL     1       9.574  -4.864   0.000  0.00  0.00    -0.194 NA
ATOM      2  C   UNL     1      10.289  -5.277   0.000  0.00  0.00    +0.267 C 
ATOM      3  O   UNL     1      10.289  -6.102   0.000  0.00  0.00    -0.271 OA
ENDROOT
BRANCH   2   4
ATOM      4  C   UNL     1      11.003  -4.864   0.000  0.00  0.00    +0.215 C 
BRANCH   4   5
ATOM      5  N   UNL     1      11.717  -5.277   0.000  0.00  0.00    -0.221 N 
ATOM      6  N   UNL     1      11.804  -6.097   0.000  0.00  0.00    -0.145 NA
ATOM      7  C   UNL     1      12.611  -6.269   0.000  0.00  0.00    +0.221 A 
ATOM      8  N   UNL     1      13.023  -5.554   0.000  0.00  0.00    -0.201 NA
ATOM      9  C   UNL     1      12.471  -4.941   0.000  0.00  0.00    +0.198 A 
ENDBRANCH   4   5
ENDBRANCH   2   4
BRANCH   1  10
ATOM     10  C   UNL     1       8.860  -5.277   0.000  0.00  0.00    +0.201 C 
BRANCH  10  12
ATOM     11  N   UNL     1       7.431  -5.277   0.000  0.00  0.00    -0.204 NA
ATOM     12  C   UNL     1       8.145  -4.864   0.000  0.00  0.00    +0.263 C 
ATOM     13  O   UNL     1       8.145  -4.039   0.000  0.00  0.00    -0.271 OA
BRANCH  11  14
ATOM     14  C   UNL     1       6.716  -4.864   0.000  0.00  0.00    +0.115 C 
BRANCH  14  15
ATOM     15  C   UNL     1       6.002  -5.277   0.000  0.00  0.00    +0.023 C 
BRANCH  15  17
ATOM     16  C   UNL     1       4.573  -5.277   0.000  0.00  0.00    +0.000 C 
ATOM     17  C   UNL     1       5.287  -4.864   0.000  0.00  0.00    +0.002 C 
ENDBRANCH  15  17
ENDBRANCH  14  15
ENDBRANCH  11  14
ENDBRANCH  10  12
ENDBRANCH   1  10
TORSDOF 7
