REMARK  Name = 
REMARK  5 active torsions:
REMARK  status: ('A' for Active; 'I' for Inactive)
REMARK    1  A    between atoms: N_5  and  C_6
REMARK    2  A    between atoms: C_6  and  C_7
REMARK    3  A    between atoms: C_7  and  C_9
REMARK    4  A    between atoms: C_9  and  O_10
REMARK    5  A    between atoms: O_10  and  C_11
REMARK                            x       y       z     vdW  Elec       q    Type
REMARK                         _______ _______ _______ _____ _____    ______ ____
ROOT
ATOM      1  C   UNL     1       0.715  -2.888   0.000  0.00  0.00    +0.147 C 
ENDROOT
BRANCH   1   8
ATOM      2  C   UNL     1      -2.143  -1.238   0.000  0.00  0.00    +0.052 C 
ATOM      3  C   UNL     1      -1.429  -1.650   0.000  0.00  0.00    +0.062 A 
ATOM      4  C   UNL     1      -1.429  -2.475   0.000  0.00  0.00    +0.048 A 
ATOM      5  C   UNL     1      -2.143  -2.888   0.000  0.00  0.00    +0.037 C 
ATOM      6  C   UNL     1      -0.715  -2.888   0.000  0.00  0.00    +0.259 A 
ATOM      7  O   UNL     1      -0.715  -3.712   0.000  0.00  0.00    -0.267 OA
ATOM      8  N   UNL     1       0.000  -2.475   0.000  0.00  0.00    -0.276 N 
ATOM      9  C   UNL     1       0.000  -1.650   0.000  0.00  0.00    +0.181 A 
ATOM     10  N   UNL     1      -0.715  -1.238   0.000  0.00  0.00    -0.230 NA
ENDBRANCH   1   8
BRANCH   1  11
ATOM     11  C   UNL     1       1.429  -2.475   0.000  0.00  0.00    +0.218 C 
ATOM     12  O   UNL     1       1.429  -1.650   0.000  0.00  0.00    -0.217 OA
BRANCH  11  13
ATOM     13  C   UNL     1       2.143  -2.888   0.000  0.00  0.00    +0.240 C 
BRANCH  13  14
ATOM     14  O   UNL     1       2.858  -2.475   0.000  0.00  0.00    -0.473 OA
BRANCH  14  15
ATOM     15  C   UNL     1       3.572  -2.888   0.000  0.00  0.00    +0.139 A 
ATOM     16  C   UNL     1       3.572  -3.712   0.000  0.00  0.00    +0.037 A 
ATOM     17  C   UNL     1       4.287  -4.125   0.000  0.00  0.00    +0.003 A 
ATOM     18  C   UNL     1       5.001  -3.712   0.000  0.00  0.00    +0.000 A 
ATOM     19  C   UNL     1       5.001  -2.888   0.000  0.00  0.00    +0.003 A 
ATOM     20  C   UNL     1       4.287  -2.475   0.000  0.00  0.00    +0.037 A 
ENDBRANCH  14  15
ENDBRANCH  13  14
ENDBRANCH  11  13
ENDBRANCH   1  11
TORSDOF 5
