REMARK  Name = 
REMARK  2 active torsions:
REMARK  status: ('A' for Active; 'I' for Inactive)
REMARK    1  A    between atoms: C_2  and  C_4
REMARK    2  A    between atoms: N_11  and  C_12
REMARK                            x       y       z     vdW  Elec       q    Type
REMARK                         _______ _______ _______ _____ _____    ______ ____
ROOT
ATOM      1  C   UNL     1       3.595  -1.611   0.000  0.00  0.00    +0.112 A 
ATOM      2  S   UNL     1       2.928  -2.096   0.000  0.00  0.00    -0.033 S 
ATOM      3  C   UNL     1       3.182  -2.881   0.000  0.00  0.00    +0.209 A 
ATOM      4  N   UNL     1       2.697  -3.548   0.000  0.00  0.00    -0.134 NA
ATOM      5  C   UNL     1       1.877  -3.462   0.000  0.00  0.00    +0.345 C 
ATOM      6  N   UNL     1       1.392  -4.130   0.000  0.00  0.00    -0.189 NA
ATOM      7  O   UNL     1       1.541  -2.708   0.000  0.00  0.00    -0.249 OA
ATOM      8  N   UNL     1       4.007  -2.881   0.000  0.00  0.00    -0.124 NA
ATOM      9  N   UNL     1       4.262  -2.096   0.000  0.00  0.00    -0.144 NA
ENDROOT
BRANCH   6  10
ATOM     10  C   UNL     1       0.572  -4.043   0.000  0.00  0.00    +0.097 C 
ATOM     11  C   UNL     1       0.159  -3.329   0.000  0.00  0.00    +0.022 C 
ATOM     12  C   UNL     1      -0.648  -3.500   0.000  0.00  0.00    +0.002 C 
ATOM     13  C   UNL     1      -0.734  -4.321   0.000  0.00  0.00    +0.002 C 
ATOM     14  C   UNL     1       0.020  -4.656   0.000  0.00  0.00    +0.022 C 
ENDBRANCH   6  10
BRANCH   1  16
ATOM     15  C   UNL     1       4.309  -0.374   0.000  0.00  0.00    +0.007 C 
ATOM     16  C   UNL     1       3.595  -0.786   0.000  0.00  0.00    +0.048 C 
ATOM     17  C   UNL     1       2.880  -0.374   0.000  0.00  0.00    +0.007 C 
ENDBRANCH   1  16
TORSDOF 2
