REMARK  Name = 
REMARK  4 active torsions:
REMARK  status: ('A' for Active; 'I' for Inactive)
REMARK    1  A    between atoms: C_5  and  C_9
REMARK    2  A    between atoms: N_11  and  C_12
REMARK    3  A    between atoms: C_12  and  C_13
REMARK    4  A    between atoms: C_13  and  C_14
REMARK                            x       y       z     vdW  Elec       q    Type
REMARK                         _______ _______ _______ _____ _____    ______ ____
ROOT
ATOM      1  C   UNL     1       0.715   2.888   0.000  0.00  0.00    +0.241 C 
ATOM      2  N   UNL     1       1.429   2.475   0.000  0.00  0.00    -0.205 NA
ATOM      3  O   UNL     1       0.715   3.712   0.000  0.00  0.00    -0.273 OA
ENDROOT
BRANCH   1   9
ATOM      4  C   UNL     1      -2.143   1.238   0.000  0.00  0.00    +0.115 C 
ATOM      5  N   UNL     1      -1.429   1.650   0.000  0.00  0.00    -0.278 N 
ATOM      6  C   UNL     1      -0.715   1.238   0.000  0.00  0.00    +0.226 C 
ATOM      7  O   UNL     1      -0.715   0.412   0.000  0.00  0.00    -0.275 OA
ATOM      8  C   UNL     1       0.000   1.650   0.000  0.00  0.00    +0.094 C 
ATOM      9  C   UNL     1       0.000   2.475   0.000  0.00  0.00    +0.089 C 
ATOM     10  C   UNL     1      -0.715   2.888   0.000  0.00  0.00    +0.031 C 
ATOM     11  C   UNL     1      -1.429   2.475   0.000  0.00  0.00    +0.094 C 
ENDBRANCH   1   9
BRANCH   2  12
ATOM     12  C   UNL     1       2.143   2.888   0.000  0.00  0.00    +0.120 C 
BRANCH  12  13
ATOM     13  C   UNL     1       2.858   2.475   0.000  0.00  0.00    +0.053 C 
BRANCH  13  14
ATOM     14  C   UNL     1       3.572   2.888   0.000  0.00  0.00    +0.019 A 
ATOM     15  C   UNL     1       4.326   2.552   0.000  0.00  0.00    +0.092 A 
ATOM     16  N   UNL     1       4.878   3.165   0.000  0.00  0.00    -0.248 N 
ATOM     17  C   UNL     1       5.699   3.079   0.000  0.00  0.00    +0.154 C 
ATOM     18  N   UNL     1       4.466   3.880   0.000  0.00  0.00    -0.168 NA
ATOM     19  C   UNL     1       3.659   3.708   0.000  0.00  0.00    +0.117 A 
ENDBRANCH  13  14
ENDBRANCH  12  13
ENDBRANCH   2  12
TORSDOF 4
