REMARK  Name = 
REMARK  3 active torsions:
REMARK  status: ('A' for Active; 'I' for Inactive)
REMARK    1  A    between atoms: C_3  and  C_5
REMARK    2  A    between atoms: C_5  and  C_6
REMARK    3  A    between atoms: C_9  and  C_10
REMARK                            x       y       z     vdW  Elec       q    Type
REMARK                         _______ _______ _______ _____ _____    ______ ____
ROOT
ATOM      1  C   UNL     1       1.705   5.724   0.000  0.00  0.00    +0.190 A 
ATOM      2  N   UNL     1       0.898   5.553   0.000  0.00  0.00    -0.191 NA
ATOM      3  C   UNL     1       0.812   4.732   0.000  0.00  0.00    +0.259 A 
ATOM      4  O   UNL     1       1.565   4.396   0.000  0.00  0.00    -0.333 OA
ATOM      5  N   UNL     1       2.117   5.010   0.000  0.00  0.00    -0.060 NA
ENDROOT
BRANCH   3   6
ATOM      6  C   UNL     1       0.097   4.319   0.000  0.00  0.00    +0.052 C 
ATOM      7  C   UNL     1       0.097   3.494   0.000  0.00  0.00    -0.040 C 
ATOM      8  C   UNL     1      -0.486   2.911   0.000  0.00  0.00    +0.023 C 
ATOM      9  C   UNL     1       0.097   2.328   0.000  0.00  0.00    +0.009 C 
ATOM     10  C   UNL     1       0.680   2.911   0.000  0.00  0.00    +0.023 C 
ENDBRANCH   3   6
BRANCH   1  11
ATOM     11  C   UNL     1       2.040   6.478   0.000  0.00  0.00    +0.156 C 
BRANCH  11  14
ATOM     12  C   UNL     1       4.017   7.404   0.000  0.00  0.00    +0.139 C 
ATOM     13  N   UNL     1       3.196   7.318   0.000  0.00  0.00    -0.203 NA
ATOM     14  C   UNL     1       2.861   6.564   0.000  0.00  0.00    +0.249 C 
ATOM     15  O   UNL     1       3.346   5.896   0.000  0.00  0.00    -0.273 OA
ENDBRANCH  11  14
ENDBRANCH   1  11
TORSDOF 3
