REMARK  Name = 
REMARK  4 active torsions:
REMARK  status: ('A' for Active; 'I' for Inactive)
REMARK    1  A    between atoms: O_2  and  C_3
REMARK    2  A    between atoms: C_6  and  N_7
REMARK    3  A    between atoms: C_8  and  C_10
REMARK    4  A    between atoms: C_10  and  C_11
REMARK                            x       y       z     vdW  Elec       q    Type
REMARK                         _______ _______ _______ _____ _____    ______ ____
ROOT
ATOM      1  N   UNL     1       3.479  -3.697   0.000  0.00  0.00    -0.207 NA
ATOM      2  C   UNL     1       2.765  -4.109   0.000  0.00  0.00    +0.246 C 
ATOM      3  O   UNL     1       2.050  -3.697   0.000  0.00  0.00    -0.273 OA
ENDROOT
BRANCH   1   8
ATOM      4  C   UNL     1       3.479  -1.705   0.000  0.00  0.00    +0.096 C 
ATOM      5  C   UNL     1       2.896  -2.288   0.000  0.00  0.00    +0.041 C 
ATOM      6  C   UNL     1       2.192  -1.857   0.000  0.00  0.00    +0.004 C 
ATOM      7  C   UNL     1       2.192  -2.720   0.000  0.00  0.00    +0.004 C 
ATOM      8  C   UNL     1       3.479  -2.872   0.000  0.00  0.00    +0.100 C 
ATOM      9  C   UNL     1       4.062  -2.288   0.000  0.00  0.00    +0.049 C 
ATOM     10  C   UNL     1       2.896  -1.122   0.000  0.00  0.00    +0.030 C 
BRANCH   4  12
ATOM     11  C   UNL     1       4.859  -1.335   0.000  0.00  0.00    +0.174 C 
ATOM     12  O   UNL     1       4.062  -1.122   0.000  0.00  0.00    -0.356 OA
ENDBRANCH   4  12
ENDBRANCH   1   8
BRANCH   2  13
ATOM     13  C   UNL     1       2.765  -4.934   0.000  0.00  0.00    +0.117 C 
BRANCH  13  14
ATOM     14  C   UNL     1       2.050  -5.347   0.000  0.00  0.00    +0.037 A 
ATOM     15  C   UNL     1       1.296  -5.011   0.000  0.00  0.00    +0.151 A 
ATOM     16  C   UNL     1       1.125  -4.204   0.000  0.00  0.00    +0.075 C 
ATOM     17  O   UNL     1       0.744  -5.624   0.000  0.00  0.00    -0.358 OA
ATOM     18  N   UNL     1       1.157  -6.339   0.000  0.00  0.00    -0.082 NA
ATOM     19  C   UNL     1       1.964  -6.167   0.000  0.00  0.00    +0.097 A 
ATOM     20  C   UNL     1       2.577  -6.719   0.000  0.00  0.00    +0.055 C 
ENDBRANCH  13  14
ENDBRANCH   2  13
TORSDOF 4
