REMARK  Name = 
REMARK  6 active torsions:
REMARK  status: ('A' for Active; 'I' for Inactive)
REMARK    1  A    between atoms: C_2  and  C_3
REMARK    2  A    between atoms: C_3  and  C_4
REMARK    3  A    between atoms: N_6  and  C_7
REMARK    4  A    between atoms: C_7  and  C_9
REMARK    5  A    between atoms: N_17  and  C_18
REMARK    6  A    between atoms: C_18  and  C_19
REMARK                            x       y       z     vdW  Elec       q    Type
REMARK                         _______ _______ _______ _____ _____    ______ ____
ROOT
ATOM      1  C   UNL     1       8.166  -3.862   0.000  0.00  0.00    +0.140 A 
ATOM      2  N   UNL     1       8.253  -4.682   0.000  0.00  0.00    -0.311 N 
ATOM      3  C   UNL     1       9.059  -4.854   0.000  0.00  0.00    +0.079 A 
ATOM      4  C   UNL     1       9.472  -4.139   0.000  0.00  0.00    +0.098 A 
ATOM      5  C   UNL     1      10.297  -4.139   0.000  0.00  0.00    +0.021 A 
ATOM      6  C   UNL     1      10.710  -4.854   0.000  0.00  0.00    +0.002 A 
ATOM      7  C   UNL     1      10.297  -5.568   0.000  0.00  0.00    +0.002 A 
ATOM      8  C   UNL     1       9.472  -5.568   0.000  0.00  0.00    +0.019 A 
ATOM      9  N   UNL     1       8.920  -3.526   0.000  0.00  0.00    -0.229 NA
ENDROOT
BRANCH   1  10
ATOM     10  C   UNL     1       7.452  -3.449   0.000  0.00  0.00    +0.152 C 
ATOM     11  C   UNL     1       7.452  -2.624   0.000  0.00  0.00    +0.032 C 
BRANCH  10  13
ATOM     12  C   UNL     1       6.023  -3.449   0.000  0.00  0.00    +0.242 C 
ATOM     13  N   UNL     1       6.737  -3.862   0.000  0.00  0.00    -0.199 NA
ATOM     14  O   UNL     1       6.023  -2.624   0.000  0.00  0.00    -0.273 OA
BRANCH  12  15
ATOM     15  C   UNL     1       5.308  -3.862   0.000  0.00  0.00    +0.087 C 
BRANCH  15  17
ATOM     16  C   UNL     1       3.880  -3.862   0.000  0.00  0.00    +0.001 C 
ATOM     17  C   UNL     1       4.594  -3.449   0.000  0.00  0.00    +0.010 C 
ENDBRANCH  15  17
ENDBRANCH  12  15
ENDBRANCH  10  13
ENDBRANCH   1  10
BRANCH   2  18
ATOM     18  C   UNL     1       7.639  -5.234   0.000  0.00  0.00    +0.140 C 
BRANCH  18  19
ATOM     19  C   UNL     1       7.811  -6.041   0.000  0.00  0.00    +0.175 C 
ATOM     20  O   UNL     1       7.198  -6.593   0.000  0.00  0.00    -0.221 OA
ATOM     21  C   UNL     1       8.596  -6.296   0.000  0.00  0.00    +0.038 C 
ENDBRANCH  18  19
ENDBRANCH   2  18
TORSDOF 6
