REMARK  Name = 
REMARK  1 active torsions:
REMARK  status: ('A' for Active; 'I' for Inactive)
REMARK    1  A    between atoms: O_2  and  C_3
REMARK                            x       y       z     vdW  Elec       q    Type
REMARK                         _______ _______ _______ _____ _____    ______ ____
ROOT
ATOM      1  C   UNL     1       0.715  -1.238   0.000  0.00  0.00    +0.325 A 
ATOM      2  N   UNL     1       0.000  -1.650   0.000  0.00  0.00    -0.161 NA
ATOM      3  C   UNL     1       0.000  -2.475   0.000  0.00  0.00    +0.227 A 
ATOM      4  N   UNL     1      -0.715  -2.888   0.000  0.00  0.00    -0.273 N 
ATOM      5  C   UNL     1      -1.429  -2.475   0.000  0.00  0.00    +0.126 C 
ATOM      6  C   UNL     1      -2.143  -2.888   0.000  0.00  0.00    +0.164 C 
ATOM      7  O   UNL     1      -2.143  -3.712   0.000  0.00  0.00    -0.350 OA
ATOM      8  C   UNL     1      -1.429  -4.125   0.000  0.00  0.00    +0.164 C 
ATOM      9  C   UNL     1      -0.715  -3.712   0.000  0.00  0.00    +0.126 C 
ATOM     10  N   UNL     1       0.715  -2.888   0.000  0.00  0.00    -0.178 NA
ATOM     11  C   UNL     1       1.429  -2.475   0.000  0.00  0.00    +0.263 A 
ATOM     12  N   UNL     1       2.143  -2.888   0.000  0.00  0.00    -0.086 NA
ATOM     13  N   UNL     1       1.429  -1.650   0.000  0.00  0.00    -0.158 NA
ENDROOT
BRANCH   1  15
ATOM     14  C   UNL     1       1.429   0.000   0.000  0.00  0.00    +0.256 C 
ATOM     15  O   UNL     1       0.715  -0.412   0.000  0.00  0.00    -0.443 OA
ENDBRANCH   1  15
TORSDOF 1
