REMARK  Name = 
REMARK  6 active torsions:
REMARK  status: ('A' for Active; 'I' for Inactive)
REMARK    1  A    between atoms: C_7  and  O_8
REMARK    2  A    between atoms: O_8  and  C_9
REMARK    3  A    between atoms: C_9  and  C_10
REMARK    4  A    between atoms: C_10  and  N_11
REMARK    5  A    between atoms: N_11  and  C_12
REMARK    6  A    between atoms: C_13  and  C_14
REMARK                            x       y       z     vdW  Elec       q    Type
REMARK                         _______ _______ _______ _____ _____    ______ ____
ROOT
ATOM      1  C   UNL     1       3.572  -2.888   0.000  0.00  0.00    +0.146 A 
ATOM      2  N   UNL     1       3.572  -3.712   0.000  0.00  0.00    -0.266 N 
ATOM      3  C   UNL     1       2.858  -4.125   0.000  0.00  0.00    +0.136 C 
ATOM      4  C   UNL     1       4.287  -4.125   0.000  0.00  0.00    +0.335 A 
ATOM      5  O   UNL     1       4.287  -4.950   0.000  0.00  0.00    -0.246 OA
ATOM      6  N   UNL     1       5.001  -3.712   0.000  0.00  0.00    -0.246 N 
ATOM      7  C   UNL     1       5.716  -4.125   0.000  0.00  0.00    +0.138 C 
ATOM      8  C   UNL     1       5.001  -2.888   0.000  0.00  0.00    +0.277 A 
ATOM      9  O   UNL     1       5.716  -2.475   0.000  0.00  0.00    -0.266 OA
ATOM     10  C   UNL     1       4.287  -2.475   0.000  0.00  0.00    +0.156 A 
ENDROOT
BRANCH  10  11
ATOM     11  C   UNL     1       4.287  -1.650   0.000  0.00  0.00    +0.108 C 
ATOM     12  N   UNL     1       4.287  -0.825   0.000  0.00  0.00    -0.191 NA
ENDBRANCH  10  11
BRANCH   1  13
ATOM     13  N   UNL     1       2.858  -2.475   0.000  0.00  0.00    -0.218 NA
BRANCH  13  14
ATOM     14  C   UNL     1       2.143  -2.888   0.000  0.00  0.00    +0.146 C 
BRANCH  14  15
ATOM     15  C   UNL     1       1.429  -2.475   0.000  0.00  0.00    +0.165 C 
BRANCH  15  16
ATOM     16  O   UNL     1       0.715  -2.888   0.000  0.00  0.00    -0.354 OA
BRANCH  16  19
ATOM     17  C   UNL     1      -0.715  -3.712   0.000  0.00  0.00    +0.002 C 
ATOM     18  C   UNL     1      -0.715  -2.888   0.000  0.00  0.00    +0.027 C 
ATOM     19  C   UNL     1       0.000  -2.475   0.000  0.00  0.00    +0.115 C 
ATOM     20  C   UNL     1       0.000  -1.650   0.000  0.00  0.00    +0.030 C 
ATOM     21  C   UNL     1      -0.715  -1.238   0.000  0.00  0.00    +0.002 C 
ATOM     22  C   UNL     1      -1.429  -1.650   0.000  0.00  0.00    +0.000 C 
ATOM     23  C   UNL     1      -1.429  -2.475   0.000  0.00  0.00    +0.002 C 
ENDBRANCH  16  19
ENDBRANCH  15  16
ENDBRANCH  14  15
ENDBRANCH  13  14
ENDBRANCH   1  13
TORSDOF 6
