REMARK  Name = 
REMARK  5 active torsions:
REMARK  status: ('A' for Active; 'I' for Inactive)
REMARK    1  A    between atoms: C_2  and  C_4
REMARK    2  A    between atoms: C_4  and  C_5
REMARK    3  A    between atoms: C_5  and  N_6
REMARK    4  A    between atoms: C_10  and  C_11
REMARK    5  A    between atoms: C_11  and  N_12
REMARK                            x       y       z     vdW  Elec       q    Type
REMARK                         _______ _______ _______ _____ _____    ______ ____
ROOT
ATOM      1  N   UNL     1       1.429  -2.475   0.000  0.00  0.00    -0.268 NA
ATOM      2  C   UNL     1       0.715  -2.888   0.000  0.00  0.00    +0.104 C 
ATOM      3  C   UNL     1       0.715  -3.712   0.000  0.00  0.00    +0.153 C 
ATOM      4  O   UNL     1       1.429  -4.125   0.000  0.00  0.00    -0.352 OA
ATOM      5  C   UNL     1       2.143  -3.712   0.000  0.00  0.00    +0.159 C 
ATOM      6  C   UNL     1       2.143  -2.888   0.000  0.00  0.00    +0.105 C 
ENDROOT
BRANCH   1   7
ATOM      7  C   UNL     1       1.429  -1.650   0.000  0.00  0.00    +0.072 C 
BRANCH   7   8
ATOM      8  C   UNL     1       2.143  -1.238   0.000  0.00  0.00    +0.017 C 
BRANCH   8  10
ATOM      9  C   UNL     1       2.858   0.000   0.000  0.00  0.00    +0.000 C 
ATOM     10  C   UNL     1       2.143  -0.412   0.000  0.00  0.00    +0.001 C 
ATOM     11  C   UNL     1       1.429   0.000   0.000  0.00  0.00    +0.000 C 
ENDBRANCH   8  10
ENDBRANCH   7   8
ENDBRANCH   1   7
BRANCH   3  12
ATOM     12  C   UNL     1       0.000  -4.125   0.000  0.00  0.00    +0.145 C 
BRANCH  12  13
ATOM     13  N   UNL     1       0.000  -4.950   0.000  0.00  0.00    -0.216 NA
ATOM     14  C   UNL     1      -0.715  -5.362   0.000  0.00  0.00    +0.169 A 
ATOM     15  N   UNL     1      -1.429  -4.950   0.000  0.00  0.00    -0.131 NA
ATOM     16  N   UNL     1      -2.143  -5.362   0.000  0.00  0.00    -0.145 NA
ATOM     17  C   UNL     1      -2.143  -6.188   0.000  0.00  0.00    +0.122 A 
ATOM     18  C   UNL     1      -1.429  -6.600   0.000  0.00  0.00    +0.025 A 
ATOM     19  C   UNL     1      -0.715  -6.188   0.000  0.00  0.00    +0.039 A 
ENDBRANCH  12  13
ENDBRANCH   3  12
TORSDOF 5
