REMARK  Name = 
REMARK  4 active torsions:
REMARK  status: ('A' for Active; 'I' for Inactive)
REMARK    1  A    between atoms: O_2  and  C_3
REMARK    2  A    between atoms: C_9  and  C_11
REMARK    3  A    between atoms: C_11  and  O_12
REMARK    4  A    between atoms: O_12  and  C_13
REMARK                            x       y       z     vdW  Elec       q    Type
REMARK                         _______ _______ _______ _____ _____    ______ ____
ROOT
ATOM      1  C   UNL     1      -1.429  -2.475   0.000  0.00  0.00    +0.143 A 
ATOM      2  C   UNL     1      -0.715  -2.888   0.000  0.00  0.00    +0.073 A 
ATOM      3  C   UNL     1       0.000  -2.475   0.000  0.00  0.00    +0.158 A 
ATOM      4  N   UNL     1       0.715  -2.888   0.000  0.00  0.00    -0.158 NA
ATOM      5  C   UNL     1       1.429  -2.475   0.000  0.00  0.00    +0.277 C 
ATOM      6  O   UNL     1       1.429  -1.650   0.000  0.00  0.00    -0.270 OA
ATOM      7  N   UNL     1       0.000  -1.650   0.000  0.00  0.00    -0.227 NA
ATOM      8  C   UNL     1      -0.715  -1.238   0.000  0.00  0.00    +0.103 A 
ATOM      9  C   UNL     1      -1.429  -1.650   0.000  0.00  0.00    +0.058 A 
ENDROOT
BRANCH   1  11
ATOM     10  C   UNL     1      -2.858  -2.475   0.000  0.00  0.00    +0.252 C 
ATOM     11  O   UNL     1      -2.143  -2.888   0.000  0.00  0.00    -0.471 OA
ENDBRANCH   1  11
BRANCH   5  12
ATOM     12  C   UNL     1       2.143  -2.888   0.000  0.00  0.00    +0.229 C 
BRANCH  12  13
ATOM     13  O   UNL     1       2.858  -2.475   0.000  0.00  0.00    -0.347 OA
BRANCH  13  14
ATOM     14  C   UNL     1       3.572  -2.888   0.000  0.00  0.00    +0.116 C 
ATOM     15  C   UNL     1       3.572  -3.712   0.000  0.00  0.00    +0.030 C 
ATOM     16  C   UNL     1       4.287  -4.125   0.000  0.00  0.00    +0.002 C 
ATOM     17  C   UNL     1       5.001  -3.712   0.000  0.00  0.00    +0.000 C 
ATOM     18  C   UNL     1       5.001  -2.888   0.000  0.00  0.00    +0.002 C 
ATOM     19  C   UNL     1       4.287  -2.475   0.000  0.00  0.00    +0.030 C 
ENDBRANCH  13  14
ENDBRANCH  12  13
ENDBRANCH   5  12
TORSDOF 4
