REMARK  Name = 
REMARK  6 active torsions:
REMARK  status: ('A' for Active; 'I' for Inactive)
REMARK    1  A    between atoms: N_2  and  C_3
REMARK    2  A    between atoms: N_4  and  C_14
REMARK    3  A    between atoms: N_8  and  C_18
REMARK    4  A    between atoms: C_14  and  C_15
REMARK    5  A    between atoms: C_15  and  C_22
REMARK    6  A    between atoms: C_18  and  C_26
REMARK                            x       y       z     vdW  Elec       q    Type
REMARK                         _______ _______ _______ _____ _____    ______ ____
ROOT
ATOM      1  C   UNL     1       2.562   0.825   0.000  0.00  0.00    +0.149 A 
ATOM      2  N   UNL     1       1.779   1.083   0.000  0.00  0.00    -0.219 NA
ATOM      3  C   UNL     1       1.292   0.412   0.000  0.00  0.00    +0.180 A 
ATOM      4  N   UNL     1       1.779  -0.254   0.000  0.00  0.00    -0.294 N 
ATOM      5  C   UNL     1       2.562   0.000   0.000  0.00  0.00    +0.167 A 
ATOM      6  N   UNL     1       3.275  -0.412   0.000  0.00  0.00    -0.205 NA
ATOM      7  C   UNL     1       3.992   0.000   0.000  0.00  0.00    +0.201 A 
ATOM      8  N   UNL     1       3.992   0.825   0.000  0.00  0.00    -0.207 NA
ATOM      9  C   UNL     1       3.275   1.238   0.000  0.00  0.00    +0.155 A 
ENDROOT
BRANCH   9  10
ATOM     10  N   UNL     1       3.275   2.062   0.000  0.00  0.00    -0.284 N 
ATOM     11  C   UNL     1       3.992   2.475   0.000  0.00  0.00    +0.114 C 
ATOM     12  C   UNL     1       3.992   3.300   0.000  0.00  0.00    +0.115 C 
ATOM     13  N   UNL     1       3.275   3.712   0.000  0.00  0.00    -0.276 N 
ATOM     14  C   UNL     1       2.562   3.300   0.000  0.00  0.00    +0.244 C 
ATOM     15  O   UNL     1       1.850   3.712   0.000  0.00  0.00    -0.273 OA
ATOM     16  C   UNL     1       2.562   2.475   0.000  0.00  0.00    +0.151 C 
ATOM     17  C   UNL     1       1.850   2.062   0.000  0.00  0.00    +0.031 C 
BRANCH  13  18
ATOM     18  C   UNL     1       3.275   4.533   0.000  0.00  0.00    +0.093 C 
BRANCH  18  19
ATOM     19  C   UNL     1       2.562   4.950   0.000  0.00  0.00    +0.020 C 
ATOM     20  C   UNL     1       2.562   5.775   0.000  0.00  0.00    +0.002 C 
ATOM     21  C   UNL     1       1.850   4.533   0.000  0.00  0.00    +0.002 C 
ENDBRANCH  18  19
ENDBRANCH  13  18
ENDBRANCH   9  10
BRANCH   4  22
ATOM     22  C   UNL     1       1.521  -1.038   0.000  0.00  0.00    +0.112 C 
BRANCH  22  23
ATOM     23  C   UNL     1       2.075  -1.650   0.000  0.00  0.00    +0.056 C 
ATOM     24  C   UNL     1       2.583  -1.000   0.000  0.00  0.00    +0.037 C 
ATOM     25  C   UNL     1       3.400  -1.117   0.000  0.00  0.00    +0.142 C 
ATOM     26  O   UNL     1       3.708  -1.879   0.000  0.00  0.00    -0.354 OA
ATOM     27  C   UNL     1       3.200  -2.529   0.000  0.00  0.00    +0.142 C 
ATOM     28  C   UNL     1       2.383  -2.417   0.000  0.00  0.00    +0.037 C 
BRANCH  23  29
ATOM     29  C   UNL     1       1.375  -2.087   0.000  0.00  0.00    +0.184 C 
ATOM     30  O   UNL     1       1.404  -2.913   0.000  0.00  0.00    -0.220 OA
ENDBRANCH  23  29
ENDBRANCH  22  23
ENDBRANCH   4  22
TORSDOF 6
