REMARK  Name = 
REMARK  5 active torsions:
REMARK  status: ('A' for Active; 'I' for Inactive)
REMARK    1  A    between atoms: C_2  and  C_3
REMARK    2  A    between atoms: C_3  and  N_5
REMARK    3  A    between atoms: C_6  and  C_8
REMARK    4  A    between atoms: C_8  and  N_9
REMARK    5  A    between atoms: C_12  and  C_14
REMARK                            x       y       z     vdW  Elec       q    Type
REMARK                         _______ _______ _______ _____ _____    ______ ____
ROOT
ATOM      1  C   UNL     1       3.303  -3.835   0.000  0.00  0.00    +0.214 C 
ENDROOT
BRANCH   1   2
ATOM      2  N   UNL     1       4.018  -3.422   0.000  0.00  0.00    -0.240 N 
ATOM      3  N   UNL     1       4.771  -3.758   0.000  0.00  0.00    -0.171 NA
ATOM      4  C   UNL     1       5.323  -3.145   0.000  0.00  0.00    +0.110 A 
ATOM      5  C   UNL     1       4.911  -2.430   0.000  0.00  0.00    +0.039 A 
ATOM      6  C   UNL     1       4.104  -2.602   0.000  0.00  0.00    +0.097 A 
BRANCH   4   7
ATOM      7  C   UNL     1       6.144  -3.231   0.000  0.00  0.00    +0.193 C 
ATOM      8  O   UNL     1       6.479  -3.985   0.000  0.00  0.00    -0.217 OA
ATOM      9  C   UNL     1       6.629  -2.564   0.000  0.00  0.00    +0.042 C 
ENDBRANCH   4   7
ENDBRANCH   1   2
BRANCH   1  11
ATOM     10  N   UNL     1       1.874  -3.835   0.000  0.00  0.00    -0.206 NA
ATOM     11  C   UNL     1       2.589  -3.422   0.000  0.00  0.00    +0.266 C 
ATOM     12  O   UNL     1       2.589  -2.598   0.000  0.00  0.00    -0.271 OA
BRANCH  10  13
ATOM     13  C   UNL     1       1.160  -3.422   0.000  0.00  0.00    +0.095 C 
ATOM     14  C   UNL     1       1.160  -2.598   0.000  0.00  0.00    +0.023 C 
BRANCH  13  16
ATOM     15  C   UNL     1      -0.269  -3.422   0.000  0.00  0.00    +0.002 C 
ATOM     16  C   UNL     1       0.445  -3.835   0.000  0.00  0.00    +0.022 C 
ENDBRANCH  13  16
ENDBRANCH  10  13
ENDBRANCH   1  11
TORSDOF 5
