REMARK  Name = 
REMARK  2 active torsions:
REMARK  status: ('A' for Active; 'I' for Inactive)
REMARK    1  A    between atoms: N_5  and  C_10
REMARK    2  A    between atoms: CA_14  and  C_16
REMARK                            x       y       z     vdW  Elec       q    Type
REMARK                         _______ _______ _______ _____ _____    ______ ____
ROOT
ATOM      1 CL   UNL     1       0.000   0.000   0.000  0.00  0.00    +0.000 Cl
ENDROOT
TORSDOF 0
REMARK  Name = 
REMARK  2 active torsions:
REMARK  status: ('A' for Active; 'I' for Inactive)
REMARK    1  A    between atoms: N_5  and  C_10
REMARK    2  A    between atoms: CA_14  and  C_16
REMARK                            x       y       z     vdW  Elec       q    Type
REMARK                         _______ _______ _______ _____ _____    ______ ____
ROOT
ATOM      1  C   UNL     1       5.215   0.121   0.000  0.00  0.00    +0.051 A 
ATOM      2  C   UNL     1       5.215  -0.704   0.000  0.00  0.00    +0.040 A 
ATOM      3  CA  UNL     1       5.929  -1.116   0.000  0.00  0.00    +0.162 A 
ATOM      4  N   UNL     1       6.644  -0.704   0.000  0.00  0.00    -0.237 NA
ATOM      5  C   UNL     1       6.644   0.121   0.000  0.00  0.00    +0.100 A 
ATOM      6  C   UNL     1       5.929   0.534   0.000  0.00  0.00    +0.035 A 
ENDROOT
BRANCH   1  13
ATOM      7  C   UNL     1       3.786   2.596   0.000  0.00  0.00    +0.034 C 
ATOM      8  C   UNL     1       3.786   1.771   0.000  0.00  0.00    +0.135 C 
ATOM      9  O   UNL     1       3.072   1.359   0.000  0.00  0.00    -0.355 OA
ATOM     10  C   UNL     1       3.072   0.534   0.000  0.00  0.00    +0.135 C 
ATOM     11  C   UNL     1       2.357   0.121   0.000  0.00  0.00    +0.034 C 
ATOM     12  C   UNL     1       3.786   0.121   0.000  0.00  0.00    +0.120 C 
ATOM     13  N   UNL     1       4.501   0.534   0.000  0.00  0.00    -0.303 N 
ATOM     14  C   UNL     1       4.501   1.359   0.000  0.00  0.00    +0.120 C 
ENDBRANCH   1  13
BRANCH   3  15
ATOM     15  C   UNL     1       5.929  -1.941   0.000  0.00  0.00    +0.405 C 
ATOM     16  OXT UNL     1       5.215  -2.354   0.000  0.00  0.00    -0.239 OA
ATOM     17  O   UNL     1       6.644  -2.354   0.000  0.00  0.00    -0.239 OA
ENDBRANCH   3  15
TORSDOF 2
