REMARK  Name = 
REMARK  4 active torsions:
REMARK  status: ('A' for Active; 'I' for Inactive)
REMARK    1  A    between atoms: C_2  and  C_5
REMARK    2  A    between atoms: N_10  and  C_11
REMARK    3  A    between atoms: C_11  and  C_12
REMARK    4  A    between atoms: N_14  and  C_15
REMARK                            x       y       z     vdW  Elec       q    Type
REMARK                         _______ _______ _______ _____ _____    ______ ____
ROOT
ATOM      1  C   UNL     1       0.663  -4.631   0.000  0.00  0.00    +0.196 C 
ENDROOT
BRANCH   1   4
ATOM      2  C   UNL     1       2.092  -2.981   0.000  0.00  0.00    +0.089 A 
ATOM      3  C   UNL     1       1.378  -3.394   0.000  0.00  0.00    +0.083 A 
ATOM      4  N   UNL     1       1.378  -4.219   0.000  0.00  0.00    -0.285 N 
ATOM      5  C   UNL     1       2.092  -4.631   0.000  0.00  0.00    +0.261 A 
ATOM      6  O   UNL     1       2.092  -5.456   0.000  0.00  0.00    -0.267 OA
ATOM      7  C   UNL     1       2.807  -4.219   0.000  0.00  0.00    +0.061 A 
ATOM      8  C   UNL     1       2.807  -3.394   0.000  0.00  0.00    +0.010 A 
BRANCH   2  10
ATOM      9  F   UNL     1       2.092  -1.331   0.000  0.00  0.00    -0.166 F 
ATOM     10  C   UNL     1       2.092  -2.156   0.000  0.00  0.00    +0.420 C 
ATOM     11  F   UNL     1       2.917  -2.156   0.000  0.00  0.00    -0.166 F 
ATOM     12  F   UNL     1       1.267  -2.156   0.000  0.00  0.00    -0.166 F 
ENDBRANCH   2  10
ENDBRANCH   1   4
BRANCH   1  13
ATOM     13  C   UNL     1      -0.051  -4.219   0.000  0.00  0.00    +0.265 C 
ATOM     14  N   UNL     1      -0.766  -4.631   0.000  0.00  0.00    -0.196 NA
ATOM     15  O   UNL     1      -0.051  -3.394   0.000  0.00  0.00    -0.271 OA
BRANCH  14  16
ATOM     16  C   UNL     1      -1.480  -4.219   0.000  0.00  0.00    +0.173 C 
ATOM     17  C   UNL     1      -1.419  -3.396   0.000  0.00  0.00    +0.261 C 
ATOM     18  O   UNL     1      -0.651  -3.095   0.000  0.00  0.00    -0.271 OA
ATOM     19  N   UNL     1      -2.023  -2.835   0.000  0.00  0.00    -0.204 NA
ATOM     20  C   UNL     1      -2.839  -2.958   0.000  0.00  0.00    +0.115 C 
ATOM     21  C   UNL     1      -3.252  -3.672   0.000  0.00  0.00    +0.024 C 
ATOM     22  C   UNL     1      -2.950  -4.441   0.000  0.00  0.00    +0.004 C 
ATOM     23  C   UNL     1      -2.162  -4.684   0.000  0.00  0.00    +0.031 C 
ENDBRANCH  14  16
ENDBRANCH   1  13
TORSDOF 4
