REMARK  Name = 
REMARK  6 active torsions:
REMARK  status: ('A' for Active; 'I' for Inactive)
REMARK    1  A    between atoms: O_2  and  C_3
REMARK    2  A    between atoms: C_3  and  C_4
REMARK    3  A    between atoms: C_4  and  C_5
REMARK    4  A    between atoms: C_5  and  N_6
REMARK    5  A    between atoms: C_7  and  C_9
REMARK    6  A    between atoms: C_14  and  N_15
REMARK                            x       y       z     vdW  Elec       q    Type
REMARK                         _______ _______ _______ _____ _____    ______ ____
ROOT
ATOM      1  C   UNL     1       8.574  -0.825   0.000  0.00  0.00    +0.087 A 
ATOM      2  C   UNL     1       9.288  -1.238   0.000  0.00  0.00    +0.136 A 
ATOM      3  N   UNL     1      10.003  -0.825   0.000  0.00  0.00    -0.229 NA
ATOM      4  C   UNL     1      10.003   0.000   0.000  0.00  0.00    +0.100 A 
ATOM      5  C   UNL     1       9.288   0.412   0.000  0.00  0.00    +0.021 A 
ATOM      6  C   UNL     1       8.574   0.000   0.000  0.00  0.00    +0.009 A 
ENDROOT
BRANCH   2   7
ATOM      7  N   UNL     1       9.288  -2.062   0.000  0.00  0.00    -0.288 N 
ATOM      8  C   UNL     1       8.574  -2.475   0.000  0.00  0.00    +0.124 C 
ATOM      9  C   UNL     1       8.574  -3.300   0.000  0.00  0.00    +0.164 C 
ATOM     10  O   UNL     1       9.288  -3.712   0.000  0.00  0.00    -0.350 OA
ATOM     11  C   UNL     1      10.003  -3.300   0.000  0.00  0.00    +0.164 C 
ATOM     12  C   UNL     1      10.003  -2.475   0.000  0.00  0.00    +0.124 C 
ENDBRANCH   2   7
BRANCH   1  14
ATOM     13  N   UNL     1       7.145  -0.825   0.000  0.00  0.00    -0.202 NA
ATOM     14  C   UNL     1       7.859  -1.238   0.000  0.00  0.00    +0.268 C 
ATOM     15  O   UNL     1       7.859  -2.062   0.000  0.00  0.00    -0.268 OA
BRANCH  13  16
ATOM     16  C   UNL     1       6.430  -1.238   0.000  0.00  0.00    +0.118 C 
BRANCH  16  17
ATOM     17  C   UNL     1       5.716  -0.825   0.000  0.00  0.00    +0.055 C 
BRANCH  17  18
ATOM     18  C   UNL     1       5.001  -1.238   0.000  0.00  0.00    +0.144 C 
BRANCH  18  20
ATOM     19  C   UNL     1       3.572  -1.238   0.000  0.00  0.00    +0.174 C 
ATOM     20  O   UNL     1       4.287  -0.825   0.000  0.00  0.00    -0.351 OA
ENDBRANCH  18  20
ENDBRANCH  17  18
ENDBRANCH  16  17
ENDBRANCH  13  16
ENDBRANCH   1  14
TORSDOF 6
