REMARK  Name = 
REMARK  4 active torsions:
REMARK  status: ('A' for Active; 'I' for Inactive)
REMARK    1  A    between atoms: C_7  and  N_8
REMARK    2  A    between atoms: C_9  and  C_11
REMARK    3  A    between atoms: C_11  and  N_12
REMARK    4  A    between atoms: C_14  and  N_19
REMARK                            x       y       z     vdW  Elec       q    Type
REMARK                         _______ _______ _______ _____ _____    ______ ____
ROOT
ATOM      1  C   UNL     1       0.715  -1.238   0.000  0.00  0.00    +0.196 C 
ENDROOT
BRANCH   1   2
ATOM      2  N   UNL     1       0.715  -0.412   0.000  0.00  0.00    -0.280 N 
ATOM      3  C   UNL     1       1.429   0.000   0.000  0.00  0.00    +0.262 A 
ATOM      4  O   UNL     1       2.143  -0.412   0.000  0.00  0.00    -0.267 OA
ATOM      5  C   UNL     1       1.429   0.825   0.000  0.00  0.00    +0.067 A 
ATOM      6  C   UNL     1       0.715   1.238   0.000  0.00  0.00    +0.082 A 
ATOM      7  C   UNL     1       0.000   0.825   0.000  0.00  0.00    +0.307 A 
ATOM      8  C   UNL     1       0.000   0.000   0.000  0.00  0.00    +0.155 A 
BRANCH   7   9
ATOM      9  N   UNL     1      -0.715   1.238   0.000  0.00  0.00    +0.082 N 
ATOM     10  O   UNL     1      -0.715   2.062   0.000  0.00  0.00    -0.576 OA
ATOM     11  O   UNL     1      -1.429   0.825   0.000  0.00  0.00    +0.042 OA
ENDBRANCH   7   9
ENDBRANCH   1   2
BRANCH   1  13
ATOM     12  N   UNL     1       1.429  -2.475   0.000  0.00  0.00    -0.206 NA
ATOM     13  C   UNL     1       1.429  -1.650   0.000  0.00  0.00    +0.264 C 
ATOM     14  O   UNL     1       2.143  -1.238   0.000  0.00  0.00    -0.271 OA
BRANCH  12  17
ATOM     15  C   UNL     1       2.858  -1.650   0.000  0.00  0.00    +0.002 C 
ATOM     16  C   UNL     1       2.858  -2.475   0.000  0.00  0.00    +0.020 C 
ATOM     17  C   UNL     1       2.143  -2.888   0.000  0.00  0.00    +0.095 C 
ATOM     18  C   UNL     1       2.143  -3.712   0.000  0.00  0.00    +0.022 C 
ATOM     19  C   UNL     1       2.858  -4.125   0.000  0.00  0.00    +0.002 C 
ATOM     20  C   UNL     1       3.572  -3.712   0.000  0.00  0.00    +0.000 C 
ATOM     21  C   UNL     1       3.572  -2.888   0.000  0.00  0.00    +0.002 C 
ENDBRANCH  12  17
ENDBRANCH   1  13
TORSDOF 4
