REMARK  Name = 
REMARK  3 active torsions:
REMARK  status: ('A' for Active; 'I' for Inactive)
REMARK    1  A    between atoms: N_6  and  C_7
REMARK    2  A    between atoms: C_7  and  C_8
REMARK    3  A    between atoms: C_8  and  N_9
REMARK                            x       y       z     vdW  Elec       q    Type
REMARK                         _______ _______ _______ _____ _____    ______ ____
ROOT
ATOM      1  C   UNL     1       2.858   0.825   0.000  0.00  0.00    +0.134 C 
ENDROOT
BRANCH   1   2
ATOM      2  N   UNL     1       3.572   1.238   0.000  0.00  0.00    -0.185 NA
ATOM      3  C   UNL     1       4.287   0.825   0.000  0.00  0.00    +0.345 C 
ATOM      4  N   UNL     1       5.001   1.238   0.000  0.00  0.00    -0.136 NA
ATOM      5  C   UNL     1       5.716   0.825   0.000  0.00  0.00    +0.187 A 
ATOM      6  S   UNL     1       5.802   0.004   0.000  0.00  0.00    -0.049 S 
ATOM      7  C   UNL     1       6.609  -0.167   0.000  0.00  0.00    +0.059 A 
ATOM      8  C   UNL     1       7.021   0.547   0.000  0.00  0.00    +0.108 A 
ATOM      9  N   UNL     1       6.469   1.161   0.000  0.00  0.00    -0.221 NA
ATOM     10  O   UNL     1       4.287   0.000   0.000  0.00  0.00    -0.249 OA
ENDBRANCH   1   2
BRANCH   1  11
ATOM     11  C   UNL     1       2.143   1.238   0.000  0.00  0.00    +0.096 C 
BRANCH  11  15
ATOM     12  C   UNL     1       0.715  -1.238   0.000  0.00  0.00    +0.001 C 
ATOM     13  C   UNL     1       0.715  -0.412   0.000  0.00  0.00    +0.016 C 
ATOM     14  C   UNL     1       1.429   0.000   0.000  0.00  0.00    +0.072 C 
ATOM     15  N   UNL     1       1.429   0.825   0.000  0.00  0.00    -0.271 NA
ATOM     16  C   UNL     1       0.715   1.238   0.000  0.00  0.00    +0.072 C 
ATOM     17  C   UNL     1       0.000   0.825   0.000  0.00  0.00    +0.017 C 
ATOM     18  C   UNL     1       0.000   0.000   0.000  0.00  0.00    +0.003 C 
ENDBRANCH  11  15
ENDBRANCH   1  11
TORSDOF 3
