REMARK  Name = 
REMARK  4 active torsions:
REMARK  status: ('A' for Active; 'I' for Inactive)
REMARK    1  A    between atoms: C_2  and  O_3
REMARK    2  A    between atoms: O_3  and  C_4
REMARK    3  A    between atoms: C_4  and  C_5
REMARK    4  A    between atoms: C_5  and  N_6
REMARK                            x       y       z     vdW  Elec       q    Type
REMARK                         _______ _______ _______ _____ _____    ______ ____
ROOT
ATOM      1  N   UNL     1       3.572  -2.888   0.000  0.00  0.00    -0.263 N 
ATOM      2  C   UNL     1       3.572  -3.712   0.000  0.00  0.00    +0.354 A 
ATOM      3  O   UNL     1       2.858  -4.125   0.000  0.00  0.00    -0.244 OA
ATOM      4  N   UNL     1       4.287  -4.125   0.000  0.00  0.00    -0.153 NA
ATOM      5  C   UNL     1       5.001  -3.712   0.000  0.00  0.00    +0.286 A 
ATOM      6  O   UNL     1       5.716  -4.125   0.000  0.00  0.00    -0.265 OA
ATOM      7  C   UNL     1       5.001  -2.888   0.000  0.00  0.00    +0.099 A 
ATOM      8  C   UNL     1       4.287  -2.475   0.000  0.00  0.00    +0.160 A 
ATOM      9  N   UNL     1       4.287  -1.650   0.000  0.00  0.00    -0.109 NA
ENDROOT
BRANCH   1  10
ATOM     10  C   UNL     1       2.858  -2.475   0.000  0.00  0.00    +0.144 C 
BRANCH  10  11
ATOM     11  C   UNL     1       2.143  -2.888   0.000  0.00  0.00    +0.167 C 
BRANCH  11  12
ATOM     12  O   UNL     1       1.429  -2.475   0.000  0.00  0.00    -0.352 OA
BRANCH  12  14
ATOM     13  C   UNL     1       0.000  -2.475   0.000  0.00  0.00    +0.035 C 
ATOM     14  C   UNL     1       0.715  -2.888   0.000  0.00  0.00    +0.142 C 
ENDBRANCH  12  14
ENDBRANCH  11  12
ENDBRANCH  10  11
ENDBRANCH   1  10
TORSDOF 4
