REMARK  Name = 
REMARK  6 active torsions:
REMARK  status: ('A' for Active; 'I' for Inactive)
REMARK    1  A    between atoms: C_5  and  C_6
REMARK    2  A    between atoms: C_6  and  N_7
REMARK    3  A    between atoms: N_7  and  C_8
REMARK    4  A    between atoms: C_8  and  C_9
REMARK    5  A    between atoms: C_9  and  N_10
REMARK    6  A    between atoms: C_9  and  C_13
REMARK                            x       y       z     vdW  Elec       q    Type
REMARK                         _______ _______ _______ _____ _____    ______ ____
ROOT
ATOM      1  C   UNL     1       1.952   2.777   0.000  0.00  0.00    +0.109 C 
ENDROOT
BRANCH   1   2
ATOM      2  N   UNL     1       1.540   2.062   0.000  0.00  0.00    -0.216 NA
BRANCH   2   3
ATOM      3  C   UNL     1       0.715   2.062   0.000  0.00  0.00    +0.089 C 
BRANCH   3   8
ATOM      4  C   UNL     1      -0.935  -0.795   0.000  0.00  0.00    +0.000 C 
ATOM      5  C   UNL     1      -0.523  -0.081   0.000  0.00  0.00    +0.000 C 
ATOM      6  C   UNL     1       0.302  -0.081   0.000  0.00  0.00    +0.000 C 
ATOM      7  C   UNL     1       0.715   0.634   0.000  0.00  0.00    +0.001 C 
ATOM      8  C   UNL     1       0.302   1.348   0.000  0.00  0.00    +0.017 C 
ATOM      9  C   UNL     1      -0.523   1.348   0.000  0.00  0.00    +0.001 C 
ATOM     10  C   UNL     1      -0.935   0.634   0.000  0.00  0.00    +0.000 C 
ENDBRANCH   3   8
ENDBRANCH   2   3
ENDBRANCH   1   2
BRANCH   1  11
ATOM     11  C   UNL     1       2.777   2.777   0.000  0.00  0.00    +0.101 C 
BRANCH  11  12
ATOM     12  C   UNL     1       3.189   3.491   0.000  0.00  0.00    +0.033 A 
ATOM     13  C   UNL     1       4.010   3.578   0.000  0.00  0.00    +0.094 A 
ATOM     14  N   UNL     1       4.181   4.385   0.000  0.00  0.00    -0.248 N 
ATOM     15  C   UNL     1       4.935   4.720   0.000  0.00  0.00    +0.154 C 
ATOM     16  N   UNL     1       3.467   4.797   0.000  0.00  0.00    -0.168 NA
ATOM     17  C   UNL     1       2.854   4.245   0.000  0.00  0.00    +0.119 A 
ENDBRANCH  11  12
BRANCH  11  18
ATOM     18  N   UNL     1       3.189   2.062   0.000  0.00  0.00    -0.267 NA
ATOM     19  C   UNL     1       2.777   1.348   0.000  0.00  0.00    +0.090 C 
ATOM     20  C   UNL     1       4.014   2.062   0.000  0.00  0.00    +0.090 C 
ENDBRANCH  11  18
ENDBRANCH   1  11
TORSDOF 6
