REMARK  Name = 
REMARK  2 active torsions:
REMARK  status: ('A' for Active; 'I' for Inactive)
REMARK    1  A    between atoms: C_2  and  N_3
REMARK    2  A    between atoms: C_2  and  C_15
REMARK                            x       y       z     vdW  Elec       q    Type
REMARK                         _______ _______ _______ _____ _____    ______ ____
ROOT
ATOM      1  N   UNL     1       1.429  -1.650   0.000  0.00  0.00    -0.189 NA
ATOM      2  C   UNL     1       2.143  -2.062   0.000  0.00  0.00    +0.345 C 
ATOM      3  N   UNL     1       2.858  -1.650   0.000  0.00  0.00    -0.142 NA
ATOM      4  C   UNL     1       3.572  -2.062   0.000  0.00  0.00    +0.155 A 
ATOM      5  N   UNL     1       3.572  -2.888   0.000  0.00  0.00    -0.233 NA
ATOM      6  C   UNL     1       4.287  -3.300   0.000  0.00  0.00    +0.061 A 
ATOM      7  C   UNL     1       4.287  -4.125   0.000  0.00  0.00    +0.052 C 
ATOM      8  C   UNL     1       5.001  -2.888   0.000  0.00  0.00    +0.011 A 
ATOM      9  C   UNL     1       5.001  -2.062   0.000  0.00  0.00    -0.018 A 
ATOM     10  C   UNL     1       5.716  -1.650   0.000  0.00  0.00    +0.031 C 
ATOM     11  C   UNL     1       4.287  -1.650   0.000  0.00  0.00    +0.032 A 
ATOM     12  O   UNL     1       2.143  -2.888   0.000  0.00  0.00    -0.249 OA
ENDROOT
BRANCH   1  14
ATOM     13  C   UNL     1       0.715  -2.888   0.000  0.00  0.00    +0.023 C 
ATOM     14  C   UNL     1       0.715  -2.062   0.000  0.00  0.00    +0.097 C 
BRANCH  14  15
ATOM     15  C   UNL     1       0.000  -1.650   0.000  0.00  0.00    +0.025 C 
ATOM     16  C   UNL     1       0.000  -0.825   0.000  0.00  0.00    +0.034 C 
ATOM     17  C   UNL     1      -0.715  -0.412   0.000  0.00  0.00    +0.142 C 
ATOM     18  O   UNL     1      -1.429  -0.825   0.000  0.00  0.00    -0.354 OA
ATOM     19  C   UNL     1      -1.429  -1.650   0.000  0.00  0.00    +0.142 C 
ATOM     20  C   UNL     1      -0.715  -2.062   0.000  0.00  0.00    +0.034 C 
ENDBRANCH  14  15
ENDBRANCH   1  14
TORSDOF 2
