REMARK  Name = 
REMARK  5 active torsions:
REMARK  status: ('A' for Active; 'I' for Inactive)
REMARK    1  A    between atoms: N_2  and  C_10
REMARK    2  A    between atoms: C_5  and  N_6
REMARK    3  A    between atoms: C_10  and  C_13
REMARK    4  A    between atoms: N_15  and  C_20
REMARK    5  A    between atoms: C_16  and  C_20
REMARK                            x       y       z     vdW  Elec       q    Type
REMARK                         _______ _______ _______ _____ _____    ______ ____
ROOT
ATOM      1  C   UNL     1       2.562   0.825   0.000  0.00  0.00    +0.149 A 
ATOM      2  C   UNL     1       3.275   1.238   0.000  0.00  0.00    +0.154 A 
ATOM      3  N   UNL     1       3.992   0.825   0.000  0.00  0.00    -0.207 NA
ATOM      4  C   UNL     1       3.992   0.000   0.000  0.00  0.00    +0.201 A 
ATOM      5  N   UNL     1       3.275  -0.412   0.000  0.00  0.00    -0.205 NA
ATOM      6  N   UNL     1       1.779   1.083   0.000  0.00  0.00    -0.219 NA
ATOM      7  C   UNL     1       1.292   0.412   0.000  0.00  0.00    +0.180 A 
ATOM      8  N   UNL     1       1.779  -0.254   0.000  0.00  0.00    -0.292 N 
ATOM      9  C   UNL     1       2.562   0.000   0.000  0.00  0.00    +0.167 A 
ENDROOT
BRANCH   2  10
ATOM     10  N   UNL     1       3.275   2.062   0.000  0.00  0.00    -0.287 N 
ATOM     11  C   UNL     1       2.562   2.475   0.000  0.00  0.00    +0.124 C 
ATOM     12  C   UNL     1       2.562   3.300   0.000  0.00  0.00    +0.164 C 
ATOM     13  O   UNL     1       3.275   3.712   0.000  0.00  0.00    -0.351 OA
ATOM     14  C   UNL     1       3.992   3.300   0.000  0.00  0.00    +0.157 C 
ATOM     15  C   UNL     1       3.992   2.475   0.000  0.00  0.00    +0.124 C 
BRANCH  14  16
ATOM     16  C   UNL     1       4.704   3.712   0.000  0.00  0.00    +0.146 C 
BRANCH  16  17
ATOM     17  N   UNL     1       4.704   4.533   0.000  0.00  0.00    -0.203 NA
ATOM     18  C   UNL     1       5.421   4.950   0.000  0.00  0.00    +0.242 C 
ATOM     19  C   UNL     1       5.421   5.775   0.000  0.00  0.00    +0.096 C 
ATOM     20  O   UNL     1       6.133   4.533   0.000  0.00  0.00    -0.273 OA
ENDBRANCH  16  17
ENDBRANCH  14  16
ENDBRANCH   2  10
BRANCH   8  21
ATOM     21  C   UNL     1       1.521  -1.038   0.000  0.00  0.00    +0.139 C 
BRANCH  21  22
ATOM     22  C   UNL     1       2.075  -1.650   0.000  0.00  0.00    +0.152 C 
ATOM     23  O   UNL     1       1.375  -2.087   0.000  0.00  0.00    -0.223 OA
ATOM     24  C   UNL     1       2.583  -1.000   0.000  0.00  0.00    +0.064 C 
ATOM     25  C   UNL     1       3.400  -1.117   0.000  0.00  0.00    +0.145 C 
ATOM     26  O   UNL     1       3.708  -1.879   0.000  0.00  0.00    -0.354 OA
ATOM     27  C   UNL     1       3.200  -2.529   0.000  0.00  0.00    +0.145 C 
ATOM     28  C   UNL     1       2.383  -2.417   0.000  0.00  0.00    +0.064 C 
ENDBRANCH  21  22
ENDBRANCH   8  21
TORSDOF 5
