REMARK  Name = 
REMARK  5 active torsions:
REMARK  status: ('A' for Active; 'I' for Inactive)
REMARK    1  A    between atoms: C_2  and  C_3
REMARK    2  A    between atoms: C_2  and  N_10
REMARK    3  A    between atoms: C_3  and  N_4
REMARK    4  A    between atoms: N_10  and  C_11
REMARK    5  A    between atoms: C_11  and  C_13
REMARK                            x       y       z     vdW  Elec       q    Type
REMARK                         _______ _______ _______ _____ _____    ______ ____
ROOT
ATOM      1  N   UNL     1       3.572  -3.712   0.000  0.00  0.00    -0.210 NA
ENDROOT
BRANCH   1   3
ATOM      2  C   UNL     1       2.858  -4.950   0.000  0.00  0.00    +0.021 C 
ATOM      3  C   UNL     1       2.858  -4.125   0.000  0.00  0.00    +0.098 C 
BRANCH   3   4
ATOM      4  C   UNL     1       2.143  -3.712   0.000  0.00  0.00    +0.145 C 
BRANCH   4   5
ATOM      5  N   UNL     1       1.429  -4.125   0.000  0.00  0.00    -0.248 N 
ATOM      6  N   UNL     1       0.675  -3.789   0.000  0.00  0.00    -0.168 NA
ATOM      7  C   UNL     1       0.123  -4.402   0.000  0.00  0.00    +0.117 A 
ATOM      8  C   UNL     1       0.536  -5.117   0.000  0.00  0.00    +0.018 A 
ATOM      9  C   UNL     1       0.200  -5.871   0.000  0.00  0.00    +0.034 C 
ATOM     10  C   UNL     1       1.343  -4.946   0.000  0.00  0.00    +0.092 A 
ENDBRANCH   4   5
ENDBRANCH   3   4
ENDBRANCH   1   3
BRANCH   1  11
ATOM     11  C   UNL     1       4.287  -4.125   0.000  0.00  0.00    +0.149 C 
ATOM     12  C   UNL     1       4.287  -4.950   0.000  0.00  0.00    +0.029 C 
BRANCH  11  13
ATOM     13  C   UNL     1       5.001  -3.712   0.000  0.00  0.00    +0.242 C 
ATOM     14  N   UNL     1       5.716  -4.125   0.000  0.00  0.00    -0.273 N 
ATOM     15  C   UNL     1       5.716  -4.950   0.000  0.00  0.00    +0.126 C 
ATOM     16  C   UNL     1       6.430  -5.362   0.000  0.00  0.00    +0.164 C 
ATOM     17  O   UNL     1       7.145  -4.950   0.000  0.00  0.00    -0.350 OA
ATOM     18  C   UNL     1       7.145  -4.125   0.000  0.00  0.00    +0.164 C 
ATOM     19  C   UNL     1       6.430  -3.712   0.000  0.00  0.00    +0.126 C 
ATOM     20  O   UNL     1       5.001  -2.888   0.000  0.00  0.00    -0.273 OA
ENDBRANCH  11  13
ENDBRANCH   1  11
TORSDOF 5
