REMARK  Name = 
REMARK  4 active torsions:
REMARK  status: ('A' for Active; 'I' for Inactive)
REMARK    1  A    between atoms: C_2  and  C_4
REMARK    2  A    between atoms: C_2  and  N_20
REMARK    3  A    between atoms: C_4  and  N_5
REMARK    4  A    between atoms: N_8  and  C_9
REMARK                            x       y       z     vdW  Elec       q    Type
REMARK                         _______ _______ _______ _____ _____    ______ ____
ROOT
ATOM      1  N   UNL     1       1.429  -2.475   0.000  0.00  0.00    -0.186 NA
ATOM      2  C   UNL     1       1.429  -3.300   0.000  0.00  0.00    +0.344 C 
ATOM      3  N   UNL     1       2.143  -3.712   0.000  0.00  0.00    -0.159 NA
ATOM      4  O   UNL     1       0.715  -3.712   0.000  0.00  0.00    -0.249 OA
ENDROOT
BRANCH   3   5
ATOM      5  C   UNL     1       2.143  -4.537   0.000  0.00  0.00    +0.094 A 
ATOM      6  C   UNL     1       1.429  -4.950   0.000  0.00  0.00    +0.117 A 
ATOM      7  N   UNL     1       1.429  -5.775   0.000  0.00  0.00    -0.228 NA
ATOM      8  C   UNL     1       2.143  -6.188   0.000  0.00  0.00    +0.132 A 
ATOM      9  N   UNL     1       2.143  -7.013   0.000  0.00  0.00    -0.293 N 
ATOM     10  C   UNL     1       1.476  -7.497   0.000  0.00  0.00    +0.092 C 
ATOM     11  C   UNL     1       1.731  -8.282   0.000  0.00  0.00    +0.023 C 
ATOM     12  C   UNL     1       2.556  -8.282   0.000  0.00  0.00    +0.023 C 
ATOM     13  C   UNL     1       2.811  -7.497   0.000  0.00  0.00    +0.092 C 
ATOM     14  C   UNL     1       2.858  -5.775   0.000  0.00  0.00    +0.036 A 
ATOM     15  C   UNL     1       2.858  -4.950   0.000  0.00  0.00    +0.021 A 
ENDBRANCH   3   5
BRANCH   1  16
ATOM     16  C   UNL     1       0.715  -2.062   0.000  0.00  0.00    +0.131 C 
BRANCH  16  18
ATOM     17  C   UNL     1       1.540  -1.238   0.000  0.00  0.00    +0.018 C 
ATOM     18  C   UNL     1       0.715  -1.238   0.000  0.00  0.00    +0.066 C 
ATOM     19  C   UNL     1      -0.111  -1.238   0.000  0.00  0.00    +0.018 C 
BRANCH  18  20
ATOM     20  N   UNL     1       0.715  -0.412   0.000  0.00  0.00    -0.269 NA
ATOM     21  C   UNL     1       1.429   0.000   0.000  0.00  0.00    +0.105 C 
ATOM     22  C   UNL     1       1.429   0.825   0.000  0.00  0.00    +0.159 C 
ATOM     23  O   UNL     1       0.715   1.238   0.000  0.00  0.00    -0.351 OA
ATOM     24  C   UNL     1       0.000   0.825   0.000  0.00  0.00    +0.159 C 
ATOM     25  C   UNL     1       0.000   0.000   0.000  0.00  0.00    +0.105 C 
ENDBRANCH  18  20
ENDBRANCH  16  18
ENDBRANCH   1  16
TORSDOF 4
