REMARK  Name = 
REMARK  3 active torsions:
REMARK  status: ('A' for Active; 'I' for Inactive)
REMARK    1  A    between atoms: C_2  and  N_3
REMARK    2  A    between atoms: C_2  and  C_20
REMARK    3  A    between atoms: N_6  and  C_7
REMARK                            x       y       z     vdW  Elec       q    Type
REMARK                         _______ _______ _______ _____ _____    ______ ____
ROOT
ATOM      1  C   UNL     1       3.572  -5.362   0.000  0.00  0.00    +0.089 A 
ATOM      2  C   UNL     1       3.572  -6.188   0.000  0.00  0.00    +0.076 A 
ATOM      3  C   UNL     1       2.858  -6.600   0.000  0.00  0.00    +0.054 C 
ATOM      4  N   UNL     1       4.287  -6.600   0.000  0.00  0.00    -0.234 NA
ATOM      5  C   UNL     1       5.001  -6.188   0.000  0.00  0.00    +0.131 A 
ATOM      6  N   UNL     1       5.716  -6.600   0.000  0.00  0.00    -0.288 N 
ATOM      7  C   UNL     1       5.716  -7.425   0.000  0.00  0.00    +0.124 C 
ATOM      8  C   UNL     1       6.430  -7.838   0.000  0.00  0.00    +0.164 C 
ATOM      9  O   UNL     1       7.145  -7.425   0.000  0.00  0.00    -0.350 OA
ATOM     10  C   UNL     1       7.145  -6.600   0.000  0.00  0.00    +0.164 C 
ATOM     11  C   UNL     1       6.430  -6.188   0.000  0.00  0.00    +0.124 C 
ATOM     12  C   UNL     1       5.001  -5.362   0.000  0.00  0.00    +0.036 A 
ATOM     13  C   UNL     1       4.287  -4.950   0.000  0.00  0.00    +0.021 A 
ENDROOT
BRANCH   1  16
ATOM     14  N   UNL     1       1.429  -4.950   0.000  0.00  0.00    -0.189 NA
ATOM     15  C   UNL     1       2.143  -5.362   0.000  0.00  0.00    +0.343 C 
ATOM     16  N   UNL     1       2.858  -4.950   0.000  0.00  0.00    -0.160 NA
ATOM     17  O   UNL     1       2.143  -6.188   0.000  0.00  0.00    -0.249 OA
BRANCH  14  19
ATOM     18  C   UNL     1       0.715  -6.188   0.000  0.00  0.00    +0.023 C 
ATOM     19  C   UNL     1       0.715  -5.362   0.000  0.00  0.00    +0.097 C 
BRANCH  19  20
ATOM     20  C   UNL     1       0.000  -4.950   0.000  0.00  0.00    +0.020 C 
ATOM     21  C   UNL     1      -0.213  -4.153   0.000  0.00  0.00    +0.002 C 
ATOM     22  C   UNL     1      -1.010  -4.367   0.000  0.00  0.00    +0.000 C 
ATOM     23  C   UNL     1      -0.797  -5.163   0.000  0.00  0.00    +0.002 C 
ENDBRANCH  19  20
ENDBRANCH  14  19
ENDBRANCH   1  16
TORSDOF 3
