REMARK  Name = 
REMARK  4 active torsions:
REMARK  status: ('A' for Active; 'I' for Inactive)
REMARK    1  A    between atoms: S_2  and  C_5
REMARK    2  A    between atoms: C_8  and  N_9
REMARK    3  A    between atoms: N_12  and  C_13
REMARK    4  A    between atoms: C_13  and  C_14
REMARK                            x       y       z     vdW  Elec       q    Type
REMARK                         _______ _______ _______ _____ _____    ______ ____
ROOT
ATOM      1  C   UNL     1      -2.858   3.300   0.000  0.00  0.00    +0.186 A 
ATOM      2  N   UNL     1      -2.858   2.475   0.000  0.00  0.00    -0.224 NA
ATOM      3  C   UNL     1      -2.143   2.062   0.000  0.00  0.00    +0.117 A 
ATOM      4  C   UNL     1      -1.429   2.475   0.000  0.00  0.00    +0.094 A 
ATOM      5  C   UNL     1      -1.429   3.300   0.000  0.00  0.00    +0.021 A 
ATOM      6  C   UNL     1      -2.143   3.712   0.000  0.00  0.00    +0.039 A 
ENDROOT
BRANCH   1   8
ATOM      7  C   UNL     1      -4.287   4.125   0.000  0.00  0.00    +0.183 C 
ATOM      8  S   UNL     1      -3.572   3.712   0.000  0.00  0.00    +0.027 S 
ATOM      9  O   UNL     1      -3.160   4.427   0.000  0.00  0.00    -0.167 OA
ATOM     10  O   UNL     1      -3.985   2.998   0.000  0.00  0.00    -0.167 OA
ENDBRANCH   1   8
BRANCH   4  11
ATOM     11  N   UNL     1      -0.715   2.062   0.000  0.00  0.00    -0.159 NA
ATOM     12  C   UNL     1       0.000   2.475   0.000  0.00  0.00    +0.344 C 
ATOM     13  N   UNL     1       0.715   2.062   0.000  0.00  0.00    -0.187 NA
ATOM     14  O   UNL     1       0.000   3.300   0.000  0.00  0.00    -0.249 OA
BRANCH  13  15
ATOM     15  C   UNL     1       1.429   2.475   0.000  0.00  0.00    +0.117 C 
BRANCH  15  16
ATOM     16  C   UNL     1       2.143   2.062   0.000  0.00  0.00    +0.022 C 
ATOM     17  C   UNL     1       2.556   1.348   0.000  0.00  0.00    +0.002 C 
ATOM     18  C   UNL     1       2.968   2.062   0.000  0.00  0.00    +0.002 C 
ENDBRANCH  15  16
ENDBRANCH  13  15
ENDBRANCH   4  11
TORSDOF 4
