REMARK  Name = 
REMARK  4 active torsions:
REMARK  status: ('A' for Active; 'I' for Inactive)
REMARK    1  A    between atoms: C_7  and  C_8
REMARK    2  A    between atoms: C_8  and  C_9
REMARK    3  A    between atoms: N_11  and  C_12
REMARK    4  A    between atoms: C_12  and  C_18
REMARK                            x       y       z     vdW  Elec       q    Type
REMARK                         _______ _______ _______ _____ _____    ______ ____
ROOT
ATOM      1  C   UNL     1      -1.094  -3.967   0.000  0.00  0.00    +0.247 C 
ATOM      2  N   UNL     1      -1.879  -3.712   0.000  0.00  0.00    -0.194 NA
ATOM      3  O   UNL     1      -0.923  -4.774   0.000  0.00  0.00    -0.273 OA
ENDROOT
BRANCH   2   4
ATOM      4  C   UNL     1      -2.492  -4.264   0.000  0.00  0.00    +0.157 C 
ATOM      5  C   UNL     1      -2.929  -3.564   0.000  0.00  0.00    +0.034 C 
ATOM      6  C   UNL     1      -3.754  -3.593   0.000  0.00  0.00    +0.003 C 
ATOM      7  C   UNL     1      -4.141  -4.321   0.000  0.00  0.00    +0.000 C 
ATOM      8  C   UNL     1      -3.704  -5.021   0.000  0.00  0.00    +0.003 C 
ATOM      9  C   UNL     1      -2.880  -4.992   0.000  0.00  0.00    +0.034 C 
BRANCH   4  10
ATOM     10  C   UNL     1      -1.842  -4.772   0.000  0.00  0.00    +0.091 C 
ATOM     11  N   UNL     1      -1.192  -5.280   0.000  0.00  0.00    -0.194 NA
ENDBRANCH   4  10
ENDBRANCH   2   4
BRANCH   1  12
ATOM     12  C   UNL     1      -0.481  -3.415   0.000  0.00  0.00    +0.117 C 
BRANCH  12  15
ATOM     13  C   UNL     1       0.971  -2.360   0.000  0.00  0.00    +0.055 C 
ATOM     14  C   UNL     1       0.971  -3.185   0.000  0.00  0.00    +0.097 A 
ATOM     15  C   UNL     1       0.303  -3.670   0.000  0.00  0.00    +0.037 A 
ATOM     16  C   UNL     1       0.558  -4.454   0.000  0.00  0.00    +0.151 A 
ATOM     17  C   UNL     1       0.073  -5.122   0.000  0.00  0.00    +0.075 C 
ATOM     18  O   UNL     1       1.383  -4.454   0.000  0.00  0.00    -0.358 OA
ATOM     19  N   UNL     1       1.638  -3.670   0.000  0.00  0.00    -0.082 NA
ENDBRANCH  12  15
ENDBRANCH   1  12
TORSDOF 4
