REMARK  Name = 
REMARK  5 active torsions:
REMARK  status: ('A' for Active; 'I' for Inactive)
REMARK    1  A    between atoms: N_4  and  C_11
REMARK    2  A    between atoms: C_9  and  C_11
REMARK    3  A    between atoms: C_10  and  N_17
REMARK    4  A    between atoms: N_17  and  C_25
REMARK    5  A    between atoms: C_25  and  C_28
REMARK                            x       y       z     vdW  Elec       q    Type
REMARK                         _______ _______ _______ _____ _____    ______ ____
ROOT
ATOM      1  C   UNL     1       1.921  -0.283   0.000  0.00  0.00    +0.149 A 
ATOM      2  N   UNL     1       1.137  -0.029   0.000  0.00  0.00    -0.219 NA
ATOM      3  C   UNL     1       0.650  -0.696   0.000  0.00  0.00    +0.180 A 
ATOM      4  N   UNL     1       1.137  -1.363   0.000  0.00  0.00    -0.292 N 
ATOM      5  C   UNL     1       1.921  -1.108   0.000  0.00  0.00    +0.167 A 
ATOM      6  N   UNL     1       2.638  -1.521   0.000  0.00  0.00    -0.205 NA
ATOM      7  C   UNL     1       3.350  -1.108   0.000  0.00  0.00    +0.201 A 
ATOM      8  N   UNL     1       3.350  -0.283   0.000  0.00  0.00    -0.207 NA
ATOM      9  C   UNL     1       2.638   0.129   0.000  0.00  0.00    +0.154 A 
ATOM     10  N   UNL     1       2.638   0.954   0.000  0.00  0.00    -0.292 N 
ATOM     11  C   UNL     1       1.967   1.438   0.000  0.00  0.00    +0.094 C 
ATOM     12  C   UNL     1       2.225   2.225   0.000  0.00  0.00    +0.039 C 
ATOM     13  C   UNL     1       3.050   2.225   0.000  0.00  0.00    +0.077 C 
ATOM     14  C   UNL     1       3.304   1.438   0.000  0.00  0.00    +0.089 C 
ATOM     15  C   UNL     1       4.088   1.183   0.000  0.00  0.00    +0.023 C 
ENDROOT
BRANCH  13  16
ATOM     16  N   UNL     1       3.533   2.892   0.000  0.00  0.00    -0.269 NA
ATOM     17  C   UNL     1       4.354   2.804   0.000  0.00  0.00    +0.090 C 
BRANCH  16  18
ATOM     18  C   UNL     1       3.196   3.646   0.000  0.00  0.00    +0.108 C 
BRANCH  18  19
ATOM     19  C   UNL     1       3.683   4.308   0.000  0.00  0.00    +0.199 C 
ATOM     20  O   UNL     1       3.346   5.062   0.000  0.00  0.00    -0.219 OA
ENDBRANCH  18  19
ENDBRANCH  16  18
ENDBRANCH  13  16
BRANCH   4  21
ATOM     21  C   UNL     1       0.883  -2.150   0.000  0.00  0.00    +0.142 C 
BRANCH  21  22
ATOM     22  C   UNL     1       0.075  -2.321   0.000  0.00  0.00    +0.174 C 
ATOM     23  O   UNL     1       0.346  -1.542   0.000  0.00  0.00    -0.221 OA
ATOM     24  C   UNL     1      -0.729  -2.138   0.000  0.00  0.00    +0.067 C 
ATOM     25  C   UNL     1      -1.150  -2.850   0.000  0.00  0.00    +0.145 C 
ATOM     26  O   UNL     1      -0.604  -3.467   0.000  0.00  0.00    -0.354 OA
ATOM     27  C   UNL     1       0.154  -3.142   0.000  0.00  0.00    +0.145 C 
ATOM     28  C   UNL     1       0.863  -3.562   0.000  0.00  0.00    +0.035 C 
ENDBRANCH  21  22
ENDBRANCH   4  21
TORSDOF 5
