REMARK  Name = 
REMARK  4 active torsions:
REMARK  status: ('A' for Active; 'I' for Inactive)
REMARK    1  A    between atoms: C_5  and  O_6
REMARK    2  A    between atoms: O_6  and  C_7
REMARK    3  A    between atoms: C_7  and  C_8
REMARK    4  A    between atoms: C_8  and  N_9
REMARK                            x       y       z     vdW  Elec       q    Type
REMARK                         _______ _______ _______ _____ _____    ______ ____
ROOT
ATOM      1  C   UNL     1       2.143  -5.362   0.000  0.00  0.00    +0.230 C 
ENDROOT
BRANCH   1   2
ATOM      2  O   UNL     1       2.858  -4.950   0.000  0.00  0.00    -0.473 OA
BRANCH   2   8
ATOM      3  F   UNL     1       2.858  -1.650   0.000  0.00  0.00    -0.204 F 
ATOM      4  C   UNL     1       2.858  -2.475   0.000  0.00  0.00    +0.141 A 
ATOM      5  C   UNL     1       2.143  -2.888   0.000  0.00  0.00    +0.044 A 
ATOM      6  C   UNL     1       2.143  -3.712   0.000  0.00  0.00    +0.094 A 
ATOM      7 CL   UNL     1       1.429  -4.125   0.000  0.00  0.00    -0.079 Cl
ATOM      8  C   UNL     1       2.858  -4.125   0.000  0.00  0.00    +0.149 A 
ATOM      9  C   UNL     1       3.572  -3.712   0.000  0.00  0.00    +0.040 A 
ATOM     10  C   UNL     1       3.572  -2.888   0.000  0.00  0.00    +0.033 A 
ENDBRANCH   2   8
ENDBRANCH   1   2
BRANCH   1  11
ATOM     11  C   UNL     1       2.143  -6.188   0.000  0.00  0.00    +0.158 C 
BRANCH  11  12
ATOM     12  N   UNL     1       1.429  -6.600   0.000  0.00  0.00    -0.274 N 
ATOM     13  C   UNL     1       0.715  -6.188   0.000  0.00  0.00    +0.353 A 
ATOM     14  O   UNL     1       0.715  -5.362   0.000  0.00  0.00    -0.244 OA
ATOM     15  N   UNL     1       0.000  -6.600   0.000  0.00  0.00    -0.152 NA
ATOM     16  C   UNL     1       0.000  -7.425   0.000  0.00  0.00    +0.295 A 
ATOM     17  O   UNL     1      -0.715  -7.838   0.000  0.00  0.00    -0.264 OA
ATOM     18  C   UNL     1       0.715  -7.838   0.000  0.00  0.00    +0.133 A 
ATOM     19 CL   UNL     1       0.715  -8.662   0.000  0.00  0.00    -0.076 Cl
ATOM     20  C   UNL     1       1.429  -7.425   0.000  0.00  0.00    +0.096 A 
ENDBRANCH  11  12
ENDBRANCH   1  11
TORSDOF 4
