REMARK  Name = 
REMARK  5 active torsions:
REMARK  status: ('A' for Active; 'I' for Inactive)
REMARK    1  A    between atoms: O_2  and  C_3
REMARK    2  A    between atoms: C_3  and  C_4
REMARK    3  A    between atoms: C_4  and  N_5
REMARK    4  A    between atoms: C_7  and  C_12
REMARK    5  A    between atoms: N_14  and  C_15
REMARK                            x       y       z     vdW  Elec       q    Type
REMARK                         _______ _______ _______ _____ _____    ______ ____
ROOT
ATOM      1  C   UNL     1       4.287  -1.650   0.000  0.00  0.00    +0.284 C 
ATOM      2  N   UNL     1       4.287  -2.475   0.000  0.00  0.00    -0.202 NA
ATOM      3  O   UNL     1       5.001  -1.238   0.000  0.00  0.00    -0.267 OA
ENDROOT
BRANCH   2   4
ATOM      4  C   UNL     1       3.572  -2.888   0.000  0.00  0.00    +0.098 C 
ATOM      5  C   UNL     1       2.858  -2.475   0.000  0.00  0.00    +0.038 C 
ATOM      6  C   UNL     1       2.143  -2.888   0.000  0.00  0.00    +0.061 C 
ATOM      7  C   UNL     1       1.861  -2.112   0.000  0.00  0.00    +0.017 C 
ATOM      8  C   UNL     1       1.331  -3.031   0.000  0.00  0.00    +0.017 C 
ATOM      9  N   UNL     1       2.143  -3.712   0.000  0.00  0.00    -0.223 NA
ATOM     10  C   UNL     1       2.858  -4.125   0.000  0.00  0.00    +0.061 C 
ATOM     11  C   UNL     1       2.328  -4.757   0.000  0.00  0.00    +0.017 C 
ATOM     12  C   UNL     1       3.388  -4.757   0.000  0.00  0.00    +0.017 C 
ATOM     13  C   UNL     1       3.572  -3.712   0.000  0.00  0.00    +0.038 C 
ENDBRANCH   2   4
BRANCH   1  19
ATOM     14  N   UNL     1       2.858   0.000   0.000  0.00  0.00    -0.214 N 
ATOM     15  C   UNL     1       2.143  -0.412   0.000  0.00  0.00    +0.277 A 
ATOM     16  O   UNL     1       1.429   0.000   0.000  0.00  0.00    -0.266 OA
ATOM     17  C   UNL     1       2.143  -1.238   0.000  0.00  0.00    +0.064 A 
ATOM     18  C   UNL     1       2.858  -1.650   0.000  0.00  0.00    +0.030 A 
ATOM     19  C   UNL     1       3.572  -1.238   0.000  0.00  0.00    +0.156 A 
ATOM     20  N   UNL     1       3.572  -0.412   0.000  0.00  0.00    -0.162 NA
BRANCH  14  21
ATOM     21  C   UNL     1       2.858   0.825   0.000  0.00  0.00    +0.163 C 
BRANCH  21  22
ATOM     22  C   UNL     1       2.143   1.238   0.000  0.00  0.00    +0.169 C 
BRANCH  22  24
ATOM     23  C   UNL     1       1.429   2.475   0.000  0.00  0.00    +0.174 C 
ATOM     24  O   UNL     1       2.143   2.062   0.000  0.00  0.00    -0.349 OA
ENDBRANCH  22  24
ENDBRANCH  21  22
ENDBRANCH  14  21
ENDBRANCH   1  19
TORSDOF 5
