REMARK  Name = 
REMARK  3 active torsions:
REMARK  status: ('A' for Active; 'I' for Inactive)
REMARK    1  A    between atoms: N_7  and  C_8
REMARK    2  A    between atoms: C_8  and  C_9
REMARK    3  A    between atoms: C_9  and  N_10
REMARK                            x       y       z     vdW  Elec       q    Type
REMARK                         _______ _______ _______ _____ _____    ______ ____
ROOT
ATOM      1  C   UNL     1       2.858  -0.825   0.000  0.00  0.00    +0.134 C 
ENDROOT
BRANCH   1   2
ATOM      2  N   UNL     1       3.572  -0.412   0.000  0.00  0.00    -0.185 NA
ATOM      3  C   UNL     1       4.287  -0.825   0.000  0.00  0.00    +0.345 C 
ATOM      4  N   UNL     1       5.001  -0.412   0.000  0.00  0.00    -0.136 NA
ATOM      5  C   UNL     1       5.716  -0.825   0.000  0.00  0.00    +0.187 A 
ATOM      6  S   UNL     1       5.802  -1.645   0.000  0.00  0.00    -0.049 S 
ATOM      7  C   UNL     1       6.609  -1.817   0.000  0.00  0.00    +0.059 A 
ATOM      8  C   UNL     1       7.021  -1.103   0.000  0.00  0.00    +0.108 A 
ATOM      9  N   UNL     1       6.469  -0.489   0.000  0.00  0.00    -0.221 NA
ATOM     10  O   UNL     1       4.287  -1.650   0.000  0.00  0.00    -0.249 OA
ENDBRANCH   1   2
BRANCH   1  11
ATOM     11  C   UNL     1       2.143  -0.412   0.000  0.00  0.00    +0.096 C 
BRANCH  11  14
ATOM     12  C   UNL     1       2.143  -2.062   0.000  0.00  0.00    +0.017 C 
ATOM     13  C   UNL     1       1.429  -1.650   0.000  0.00  0.00    +0.058 C 
ATOM     14  N   UNL     1       1.429  -0.825   0.000  0.00  0.00    -0.272 NA
ATOM     15  C   UNL     1       0.715  -0.412   0.000  0.00  0.00    +0.072 C 
ATOM     16  C   UNL     1       0.000  -0.825   0.000  0.00  0.00    +0.017 C 
ATOM     17  C   UNL     1       0.000  -1.650   0.000  0.00  0.00    +0.003 C 
ATOM     18  C   UNL     1       0.715  -2.062   0.000  0.00  0.00    +0.016 C 
ENDBRANCH  11  14
ENDBRANCH   1  11
TORSDOF 3
