REMARK  Name = 
REMARK  6 active torsions:
REMARK  status: ('A' for Active; 'I' for Inactive)
REMARK    1  A    between atoms: C_2  and  O_3
REMARK    2  A    between atoms: O_3  and  C_4
REMARK    3  A    between atoms: C_4  and  C_6
REMARK    4  A    between atoms: C_8  and  C_9
REMARK    5  A    between atoms: C_9  and  C_10
REMARK    6  A    between atoms: N_12  and  C_13
REMARK                            x       y       z     vdW  Elec       q    Type
REMARK                         _______ _______ _______ _____ _____    ______ ____
ROOT
ATOM      1  C   UNL     1       2.652  -2.123   0.000  0.00  0.00    +0.115 A 
ATOM      2  S   UNL     1       1.984  -2.608   0.000  0.00  0.00    -0.068 S 
ATOM      3  C   UNL     1       2.239  -3.393   0.000  0.00  0.00    +0.052 A 
ATOM      4  C   UNL     1       3.064  -3.393   0.000  0.00  0.00    +0.075 A 
ATOM      5  N   UNL     1       3.319  -2.608   0.000  0.00  0.00    -0.244 NA
ENDROOT
BRANCH   1   6
ATOM      6  C   UNL     1       2.652  -1.298   0.000  0.00  0.00    +0.161 C 
ATOM      7  C   UNL     1       3.366  -0.886   0.000  0.00  0.00    +0.039 C 
BRANCH   6   8
ATOM      8  O   UNL     1       1.937  -0.886   0.000  0.00  0.00    -0.350 OA
BRANCH   8  10
ATOM      9  C   UNL     1       1.223   0.352   0.000  0.00  0.00    +0.035 C 
ATOM     10  C   UNL     1       1.937  -0.061   0.000  0.00  0.00    +0.143 C 
ENDBRANCH   8  10
ENDBRANCH   6   8
ENDBRANCH   1   6
BRANCH   4  11
ATOM     11  C   UNL     1       3.549  -4.060   0.000  0.00  0.00    +0.133 C 
BRANCH  11  12
ATOM     12  C   UNL     1       4.370  -3.974   0.000  0.00  0.00    +0.247 C 
ATOM     13  N   UNL     1       4.855  -4.641   0.000  0.00  0.00    -0.206 NA
ATOM     14  O   UNL     1       4.705  -3.220   0.000  0.00  0.00    -0.273 OA
BRANCH  13  15
ATOM     15  C   UNL     1       4.519  -5.395   0.000  0.00  0.00    +0.108 C 
ATOM     16  C   UNL     1       4.034  -6.062   0.000  0.00  0.00    +0.162 C 
ATOM     17  O   UNL     1       4.519  -6.730   0.000  0.00  0.00    -0.352 OA
ATOM     18  C   UNL     1       5.304  -6.475   0.000  0.00  0.00    +0.144 C 
ATOM     19  C   UNL     1       5.304  -5.650   0.000  0.00  0.00    +0.055 C 
ATOM     20  C   UNL     1       3.805  -4.983   0.000  0.00  0.00    +0.024 C 
ENDBRANCH  13  15
ENDBRANCH  11  12
ENDBRANCH   4  11
TORSDOF 6
