REMARK  Name = 
REMARK  6 active torsions:
REMARK  status: ('A' for Active; 'I' for Inactive)
REMARK    1  A    between atoms: C_6  and  O_7
REMARK    2  A    between atoms: O_7  and  C_8
REMARK    3  A    between atoms: C_8  and  C_9
REMARK    4  A    between atoms: C_9  and  N_10
REMARK    5  A    between atoms: C_11  and  C_12
REMARK    6  A    between atoms: C_12  and  C_13
REMARK                            x       y       z     vdW  Elec       q    Type
REMARK                         _______ _______ _______ _____ _____    ______ ____
ROOT
ATOM      1  N   UNL     1       1.139  -1.365   0.000  0.00  0.00    -0.311 N 
ATOM      2  C   UNL     1       1.923  -1.110   0.000  0.00  0.00    +0.079 A 
ATOM      3  C   UNL     1       1.923  -0.285   0.000  0.00  0.00    +0.098 A 
ATOM      4  C   UNL     1       2.638   0.127   0.000  0.00  0.00    +0.021 A 
ATOM      5  C   UNL     1       3.352  -0.285   0.000  0.00  0.00    +0.002 A 
ATOM      6  C   UNL     1       3.352  -1.110   0.000  0.00  0.00    +0.002 A 
ATOM      7  N   UNL     1       1.139  -0.030   0.000  0.00  0.00    -0.231 NA
ATOM      8  C   UNL     1       2.638  -1.523   0.000  0.00  0.00    +0.019 A 
ATOM      9  C   UNL     1       0.654  -0.698   0.000  0.00  0.00    +0.123 A 
ENDROOT
BRANCH   9  10
ATOM     10  C   UNL     1      -0.171  -0.698   0.000  0.00  0.00    +0.099 C 
BRANCH  10  11
ATOM     11  C   UNL     1      -0.584   0.017   0.000  0.00  0.00    +0.190 C 
ATOM     12  O   UNL     1      -1.409   0.017   0.000  0.00  0.00    -0.220 OA
ENDBRANCH  10  11
ENDBRANCH   9  10
BRANCH   1  13
ATOM     13  C   UNL     1       0.884  -2.150   0.000  0.00  0.00    +0.154 C 
BRANCH  13  14
ATOM     14  C   UNL     1       1.436  -2.763   0.000  0.00  0.00    +0.230 C 
BRANCH  14  15
ATOM     15  O   UNL     1       1.181  -3.548   0.000  0.00  0.00    -0.473 OA
BRANCH  15  19
ATOM     16  C   UNL     1       3.899  -4.431   0.000  0.00  0.00    +0.031 C 
ATOM     17  C   UNL     1       3.092  -4.602   0.000  0.00  0.00    -0.019 A 
ATOM     18  C   UNL     1       2.540  -3.989   0.000  0.00  0.00    +0.033 A 
ATOM     19  C   UNL     1       1.733  -4.161   0.000  0.00  0.00    +0.138 A 
ATOM     20  C   UNL     1       1.478  -4.945   0.000  0.00  0.00    +0.037 A 
ATOM     21  C   UNL     1       2.030  -5.559   0.000  0.00  0.00    +0.003 A 
ATOM     22  C   UNL     1       2.837  -5.387   0.000  0.00  0.00    -0.004 A 
ENDBRANCH  15  19
ENDBRANCH  14  15
ENDBRANCH  13  14
ENDBRANCH   1  13
TORSDOF 6
