REMARK  Name = 
REMARK  4 active torsions:
REMARK  status: ('A' for Active; 'I' for Inactive)
REMARK    1  A    between atoms: C_2  and  C_3
REMARK    2  A    between atoms: C_2  and  N_10
REMARK    3  A    between atoms: C_3  and  N_4
REMARK    4  A    between atoms: N_13  and  C_14
REMARK                            x       y       z     vdW  Elec       q    Type
REMARK                         _______ _______ _______ _____ _____    ______ ____
ROOT
ATOM      1  N   UNL     1       3.572  -3.712   0.000  0.00  0.00    -0.187 NA
ATOM      2  C   UNL     1       4.287  -4.125   0.000  0.00  0.00    +0.344 C 
ATOM      3  N   UNL     1       5.001  -3.712   0.000  0.00  0.00    -0.159 NA
ATOM      4  O   UNL     1       4.287  -4.950   0.000  0.00  0.00    -0.249 OA
ENDROOT
BRANCH   3   5
ATOM      5  C   UNL     1       5.716  -4.125   0.000  0.00  0.00    +0.094 A 
ATOM      6  C   UNL     1       5.716  -4.950   0.000  0.00  0.00    +0.115 A 
ATOM      7  N   UNL     1       6.430  -5.362   0.000  0.00  0.00    -0.241 NA
ATOM      8  C   UNL     1       7.145  -4.950   0.000  0.00  0.00    +0.099 A 
ATOM      9  C   UNL     1       7.145  -4.125   0.000  0.00  0.00    +0.022 A 
ATOM     10  C   UNL     1       6.430  -3.712   0.000  0.00  0.00    +0.020 A 
ENDBRANCH   3   5
BRANCH   1  12
ATOM     11  C   UNL     1       2.858  -4.950   0.000  0.00  0.00    +0.025 C 
ATOM     12  C   UNL     1       2.858  -4.125   0.000  0.00  0.00    +0.117 C 
BRANCH  12  13
ATOM     13  C   UNL     1       2.143  -3.712   0.000  0.00  0.00    +0.115 C 
BRANCH  13  14
ATOM     14  N   UNL     1       1.429  -4.125   0.000  0.00  0.00    -0.278 N 
ATOM     15  C   UNL     1       0.675  -3.789   0.000  0.00  0.00    +0.226 C 
ATOM     16  O   UNL     1       0.504  -2.982   0.000  0.00  0.00    -0.275 OA
ATOM     17  C   UNL     1       0.123  -4.402   0.000  0.00  0.00    +0.087 C 
ATOM     18  C   UNL     1       0.536  -5.117   0.000  0.00  0.00    +0.031 C 
ATOM     19  C   UNL     1       1.343  -4.946   0.000  0.00  0.00    +0.094 C 
ENDBRANCH  13  14
ENDBRANCH  12  13
ENDBRANCH   1  12
TORSDOF 4
