REMARK  Name = 
REMARK  6 active torsions:
REMARK  status: ('A' for Active; 'I' for Inactive)
REMARK    1  A    between atoms: N_7  and  C_8
REMARK    2  A    between atoms: C_8  and  C_9
REMARK    3  A    between atoms: C_9  and  C_11
REMARK    4  A    between atoms: C_11  and  O_12
REMARK    5  A    between atoms: O_12  and  C_13
REMARK    6  A    between atoms: C_18  and  C_19
REMARK                            x       y       z     vdW  Elec       q    Type
REMARK                         _______ _______ _______ _____ _____    ______ ____
ROOT
ATOM      1  C   UNL     1       2.143  -2.888   0.000  0.00  0.00    +0.240 C 
ENDROOT
BRANCH   1   2
ATOM      2  C   UNL     1       1.429  -2.475   0.000  0.00  0.00    +0.220 C 
ATOM      3  O   UNL     1       1.429  -1.650   0.000  0.00  0.00    -0.217 OA
BRANCH   2   4
ATOM      4  C   UNL     1       0.715  -2.888   0.000  0.00  0.00    +0.167 C 
BRANCH   4   8
ATOM      5  C   UNL     1      -2.143  -2.888   0.000  0.00  0.00    +0.054 C 
ATOM      6  C   UNL     1      -1.429  -2.475   0.000  0.00  0.00    +0.079 A 
ATOM      7  N   UNL     1      -0.715  -2.888   0.000  0.00  0.00    -0.171 NA
ATOM      8  N   UNL     1       0.000  -2.475   0.000  0.00  0.00    -0.214 N 
ATOM      9  C   UNL     1       0.000  -1.650   0.000  0.00  0.00    +0.277 A 
ATOM     10  O   UNL     1       0.715  -1.238   0.000  0.00  0.00    -0.266 OA
ATOM     11  C   UNL     1      -0.715  -1.238   0.000  0.00  0.00    +0.063 A 
ATOM     12  C   UNL     1      -1.429  -1.650   0.000  0.00  0.00    +0.021 A 
ENDBRANCH   4   8
ENDBRANCH   2   4
ENDBRANCH   1   2
BRANCH   1  13
ATOM     13  O   UNL     1       2.858  -2.475   0.000  0.00  0.00    -0.473 OA
BRANCH  13  14
ATOM     14  C   UNL     1       3.572  -2.888   0.000  0.00  0.00    +0.143 A 
ATOM     15  C   UNL     1       3.572  -3.712   0.000  0.00  0.00    +0.105 A 
ATOM     16  C   UNL     1       4.287  -4.125   0.000  0.00  0.00    +0.007 A 
ATOM     17  C   UNL     1       5.001  -3.712   0.000  0.00  0.00    +0.000 A 
ATOM     18  C   UNL     1       5.001  -2.888   0.000  0.00  0.00    +0.003 A 
ATOM     19  C   UNL     1       4.287  -2.475   0.000  0.00  0.00    +0.037 A 
BRANCH  15  20
ATOM     20  C   UNL     1       2.858  -4.125   0.000  0.00  0.00    +0.421 C 
ATOM     21  F   UNL     1       3.270  -4.840   0.000  0.00  0.00    -0.166 F 
ATOM     22  F   UNL     1       2.445  -3.410   0.000  0.00  0.00    -0.166 F 
ATOM     23  F   UNL     1       2.143  -4.537   0.000  0.00  0.00    -0.166 F 
ENDBRANCH  15  20
ENDBRANCH  13  14
ENDBRANCH   1  13
TORSDOF 6
