REMARK  Name = 
REMARK  3 active torsions:
REMARK  status: ('A' for Active; 'I' for Inactive)
REMARK    1  A    between atoms: N_3  and  C_4
REMARK    2  A    between atoms: N_12  and  C_13
REMARK    3  A    between atoms: C_18  and  N_19
REMARK                            x       y       z     vdW  Elec       q    Type
REMARK                         _______ _______ _______ _____ _____    ______ ____
ROOT
ATOM      1  O   UNL     1      -2.299  -1.735   0.000  0.00  0.00    -0.249 OA
ATOM      2  C   UNL     1      -2.299  -2.560   0.000  0.00  0.00    +0.344 C 
ATOM      3  N   UNL     1      -1.584  -2.973   0.000  0.00  0.00    -0.158 NA
ATOM      4  N   UNL     1      -3.013  -2.973   0.000  0.00  0.00    -0.179 NA
ENDROOT
BRANCH   4   5
ATOM      5  C   UNL     1      -3.728  -2.560   0.000  0.00  0.00    +0.174 C 
ATOM      6  C   UNL     1      -3.666  -1.738   0.000  0.00  0.00    +0.261 C 
ATOM      7  O   UNL     1      -2.898  -1.436   0.000  0.00  0.00    -0.271 OA
ATOM      8  N   UNL     1      -4.271  -1.177   0.000  0.00  0.00    -0.204 NA
ATOM      9  C   UNL     1      -5.086  -1.300   0.000  0.00  0.00    +0.115 C 
ATOM     10  C   UNL     1      -5.499  -2.014   0.000  0.00  0.00    +0.024 C 
ATOM     11  C   UNL     1      -5.197  -2.782   0.000  0.00  0.00    +0.004 C 
ATOM     12  C   UNL     1      -4.409  -3.025   0.000  0.00  0.00    +0.031 C 
ENDBRANCH   4   5
BRANCH   3  13
ATOM     13  C   UNL     1      -0.870  -2.560   0.000  0.00  0.00    +0.106 A 
ATOM     14  C   UNL     1      -0.155  -2.973   0.000  0.00  0.00    +0.147 A 
ATOM     15  N   UNL     1       0.559  -2.560   0.000  0.00  0.00    -0.228 NA
ATOM     16  C   UNL     1       0.559  -1.735   0.000  0.00  0.00    +0.100 A 
ATOM     17  C   UNL     1      -0.155  -1.323   0.000  0.00  0.00    +0.022 A 
ATOM     18  C   UNL     1      -0.870  -1.735   0.000  0.00  0.00    +0.021 A 
BRANCH  14  19
ATOM     19  N   UNL     1      -0.155  -3.798   0.000  0.00  0.00    -0.292 N 
ATOM     20  C   UNL     1      -0.823  -4.283   0.000  0.00  0.00    +0.092 C 
ATOM     21  C   UNL     1      -0.568  -5.067   0.000  0.00  0.00    +0.023 C 
ATOM     22  C   UNL     1       0.257  -5.067   0.000  0.00  0.00    +0.023 C 
ATOM     23  C   UNL     1       0.512  -4.283   0.000  0.00  0.00    +0.092 C 
ENDBRANCH  14  19
ENDBRANCH   3  13
TORSDOF 3
