REMARK  Name = 
REMARK  5 active torsions:
REMARK  status: ('A' for Active; 'I' for Inactive)
REMARK    1  A    between atoms: C_2  and  C_3
REMARK    2  A    between atoms: C_3  and  C_4
REMARK    3  A    between atoms: C_6  and  N_7
REMARK    4  A    between atoms: N_10  and  C_11
REMARK    5  A    between atoms: C_21  and  O_22
REMARK                            x       y       z     vdW  Elec       q    Type
REMARK                         _______ _______ _______ _____ _____    ______ ____
ROOT
ATOM      1  N   UNL     1       4.057  -3.179   0.000  0.00  0.00    -0.189 NA
ATOM      2  C   UNL     1       4.470  -3.894   0.000  0.00  0.00    +0.343 C 
ATOM      3  N   UNL     1       5.295  -3.894   0.000  0.00  0.00    -0.159 NA
ATOM      4  O   UNL     1       4.057  -4.608   0.000  0.00  0.00    -0.249 OA
ENDROOT
BRANCH   3   5
ATOM      5  C   UNL     1       5.707  -4.608   0.000  0.00  0.00    +0.094 A 
ATOM      6  C   UNL     1       5.295  -5.323   0.000  0.00  0.00    +0.019 A 
ATOM      7  C   UNL     1       5.707  -6.037   0.000  0.00  0.00    +0.037 A 
ATOM      8  C   UNL     1       5.295  -6.752   0.000  0.00  0.00    +0.036 C 
ATOM      9  C   UNL     1       6.532  -6.037   0.000  0.00  0.00    +0.275 A 
ATOM     10  O   UNL     1       6.944  -6.752   0.000  0.00  0.00    -0.266 OA
ATOM     11  N   UNL     1       6.944  -5.323   0.000  0.00  0.00    -0.205 NA
ATOM     12  C   UNL     1       6.532  -4.608   0.000  0.00  0.00    +0.119 A 
ENDBRANCH   3   5
BRANCH   1  17
ATOM     13  C   UNL     1       2.649  -2.596   0.000  0.00  0.00    +0.044 C 
ATOM     14  C   UNL     1       2.065  -3.179   0.000  0.00  0.00    +0.118 C 
ATOM     15  C   UNL     1       2.649  -3.763   0.000  0.00  0.00    +0.047 C 
ATOM     16  C   UNL     1       2.649  -4.588   0.000  0.00  0.00    +0.004 C 
ATOM     17  C   UNL     1       3.232  -3.179   0.000  0.00  0.00    +0.101 C 
BRANCH  13  19
ATOM     18  C   UNL     1       4.029  -2.226   0.000  0.00  0.00    +0.000 C 
ATOM     19  C   UNL     1       3.232  -2.013   0.000  0.00  0.00    +0.004 C 
ENDBRANCH  13  19
BRANCH  14  20
ATOM     20  O   UNL     1       1.240  -3.179   0.000  0.00  0.00    -0.353 OA
ATOM     21  C   UNL     1       0.828  -3.894   0.000  0.00  0.00    +0.174 C 
ENDBRANCH  14  20
BRANCH  13  22
ATOM     22  C   UNL     1       2.065  -2.013   0.000  0.00  0.00    +0.004 C 
ATOM     23  C   UNL     1       1.268  -2.226   0.000  0.00  0.00    +0.000 C 
ENDBRANCH  13  22
ENDBRANCH   1  17
TORSDOF 5
