REMARK  Name = 
REMARK  6 active torsions:
REMARK  status: ('A' for Active; 'I' for Inactive)
REMARK    1  A    between atoms: N_2  and  C_3
REMARK    2  A    between atoms: N_2  and  C_15
REMARK    3  A    between atoms: C_3  and  C_4
REMARK    4  A    between atoms: N_6  and  C_7
REMARK    5  A    between atoms: C_7  and  C_8
REMARK    6  A    between atoms: C_8  and  C_9
REMARK                            x       y       z     vdW  Elec       q    Type
REMARK                         _______ _______ _______ _____ _____    ______ ____
ROOT
ATOM      1  C   UNL     1       0.000  -3.300   0.000  0.00  0.00    +0.258 C 
ATOM      2  N   UNL     1       0.715  -3.712   0.000  0.00  0.00    -0.204 NA
ATOM      3  O   UNL     1       0.000  -2.475   0.000  0.00  0.00    -0.272 OA
ENDROOT
BRANCH   1   4
ATOM      4  C   UNL     1      -0.715  -3.712   0.000  0.00  0.00    +0.160 C 
BRANCH   4   6
ATOM      5  C   UNL     1      -1.429  -2.475   0.000  0.00  0.00    +0.090 C 
ATOM      6  N   UNL     1      -1.429  -3.300   0.000  0.00  0.00    -0.263 NA
BRANCH   6   7
ATOM      7  C   UNL     1      -2.143  -3.712   0.000  0.00  0.00    +0.083 C 
ATOM      8  C   UNL     1      -2.897  -3.377   0.000  0.00  0.00    +0.167 C 
ATOM      9  S   UNL     1      -3.449  -3.990   0.000  0.00  0.00    -0.009 S 
ATOM     10  O   UNL     1      -4.001  -3.377   0.000  0.00  0.00    -0.173 OA
ATOM     11  O   UNL     1      -4.117  -4.475   0.000  0.00  0.00    -0.173 OA
ATOM     12  C   UNL     1      -3.037  -4.705   0.000  0.00  0.00    +0.152 C 
ATOM     13  C   UNL     1      -2.230  -4.533   0.000  0.00  0.00    +0.043 C 
ENDBRANCH   6   7
ENDBRANCH   4   6
ENDBRANCH   1   4
BRANCH   2  14
ATOM     14  C   UNL     1       1.429  -3.300   0.000  0.00  0.00    +0.121 C 
BRANCH  14  15
ATOM     15  C   UNL     1       2.143  -3.712   0.000  0.00  0.00    +0.069 C 
BRANCH  15  16
ATOM     16  C   UNL     1       2.858  -3.300   0.000  0.00  0.00    +0.061 A 
ATOM     17  N   UNL     1       3.572  -3.712   0.000  0.00  0.00    -0.248 NA
ATOM     18  C   UNL     1       4.287  -3.300   0.000  0.00  0.00    +0.098 A 
ATOM     19  C   UNL     1       4.287  -2.475   0.000  0.00  0.00    +0.021 A 
ATOM     20  C   UNL     1       3.572  -2.062   0.000  0.00  0.00    +0.003 A 
ATOM     21  C   UNL     1       2.858  -2.475   0.000  0.00  0.00    +0.015 A 
ENDBRANCH  15  16
ENDBRANCH  14  15
ENDBRANCH   2  14
TORSDOF 6
