REMARK  Name = 
REMARK  2 active torsions:
REMARK  status: ('A' for Active; 'I' for Inactive)
REMARK    1  A    between atoms: N_3  and  C_4
REMARK    2  A    between atoms: N_11  and  C_12
REMARK                            x       y       z     vdW  Elec       q    Type
REMARK                         _______ _______ _______ _____ _____    ______ ____
ROOT
ATOM      1  O   UNL     1       2.493  -5.314   0.000  0.00  0.00    -0.249 OA
ATOM      2  C   UNL     1       3.313  -5.227   0.000  0.00  0.00    +0.344 C 
ATOM      3  N   UNL     1       3.798  -5.895   0.000  0.00  0.00    -0.159 NA
ATOM      4  N   UNL     1       3.649  -4.474   0.000  0.00  0.00    -0.187 NA
ENDROOT
BRANCH   4   5
ATOM      5  C   UNL     1       3.164  -3.806   0.000  0.00  0.00    +0.122 C 
ATOM      6  C   UNL     1       3.419  -3.022   0.000  0.00  0.00    +0.172 C 
ATOM      7  S   UNL     1       2.751  -2.537   0.000  0.00  0.00    -0.008 S 
ATOM      8  O   UNL     1       3.303  -1.923   0.000  0.00  0.00    -0.173 OA
ATOM      9  O   UNL     1       2.199  -1.923   0.000  0.00  0.00    -0.173 OA
ATOM     10  C   UNL     1       2.084  -3.022   0.000  0.00  0.00    +0.153 C 
ATOM     11  C   UNL     1       2.339  -3.806   0.000  0.00  0.00    +0.049 C 
ENDBRANCH   4   5
BRANCH   3  12
ATOM     12  C   UNL     1       3.462  -6.648   0.000  0.00  0.00    +0.094 A 
ATOM     13  C   UNL     1       2.642  -6.735   0.000  0.00  0.00    +0.115 A 
ATOM     14  N   UNL     1       2.306  -7.488   0.000  0.00  0.00    -0.241 NA
ATOM     15  C   UNL     1       2.791  -8.156   0.000  0.00  0.00    +0.099 A 
ATOM     16  C   UNL     1       3.612  -8.069   0.000  0.00  0.00    +0.022 A 
ATOM     17  C   UNL     1       3.947  -7.316   0.000  0.00  0.00    +0.020 A 
ENDBRANCH   3  12
TORSDOF 2
