REMARK  Name = 
REMARK  9 active torsions:
REMARK  status: ('A' for Active; 'I' for Inactive)
REMARK    1  A    between atoms: N_2  and  C_12
REMARK    2  A    between atoms: C_5  and  N_7
REMARK    3  A    between atoms: N_7  and  C_11
REMARK    4  A    between atoms: N_7  and  C_18
REMARK    5  A    between atoms: C_8  and  C_11
REMARK    6  A    between atoms: C_12  and  C_13
REMARK    7  A    between atoms: C_13  and  C_19
REMARK    8  A    between atoms: C_18  and  C_28
REMARK    9  A    between atoms: O_23  and  C_28
REMARK                            x       y       z     vdW  Elec       q    Type
REMARK                         _______ _______ _______ _____ _____    ______ ____
ROOT
ATOM      1  C   UNL     1       1.425   0.000   0.000  0.00  0.00    +0.149 A 
ATOM      2  C   UNL     1       0.713  -0.412   0.000  0.00  0.00    +0.155 A 
ATOM      3  N   UNL     1       0.000   0.000   0.000  0.00  0.00    -0.207 NA
ATOM      4  C   UNL     1       0.000   0.825   0.000  0.00  0.00    +0.201 A 
ATOM      5  N   UNL     1       0.713   1.238   0.000  0.00  0.00    -0.205 NA
ATOM      6  N   UNL     1       2.212  -0.254   0.000  0.00  0.00    -0.219 NA
ATOM      7  C   UNL     1       2.696   0.412   0.000  0.00  0.00    +0.180 A 
ATOM      8  N   UNL     1       2.212   1.083   0.000  0.00  0.00    -0.294 N 
ATOM      9  C   UNL     1       1.425   0.825   0.000  0.00  0.00    +0.167 A 
ENDROOT
BRANCH   8  10
ATOM     10  C   UNL     1       2.467   1.867   0.000  0.00  0.00    +0.112 C 
BRANCH  10  11
ATOM     11  C   UNL     1       3.275   2.038   0.000  0.00  0.00    +0.056 C 
ATOM     12  C   UNL     1       2.962   2.804   0.000  0.00  0.00    +0.037 C 
ATOM     13  C   UNL     1       3.471   3.454   0.000  0.00  0.00    +0.142 C 
ATOM     14  O   UNL     1       4.287   3.337   0.000  0.00  0.00    -0.354 OA
ATOM     15  C   UNL     1       4.600   2.575   0.000  0.00  0.00    +0.142 C 
ATOM     16  C   UNL     1       4.092   1.925   0.000  0.00  0.00    +0.037 C 
BRANCH  11  17
ATOM     17  C   UNL     1       3.304   1.212   0.000  0.00  0.00    +0.184 C 
ATOM     18  O   UNL     1       4.029   0.825   0.000  0.00  0.00    -0.220 OA
ENDBRANCH  11  17
ENDBRANCH  10  11
ENDBRANCH   8  10
BRANCH   2  19
ATOM     19  N   UNL     1       0.713  -1.238   0.000  0.00  0.00    -0.281 N 
BRANCH  19  20
ATOM     20  C   UNL     1       0.000  -1.650   0.000  0.00  0.00    +0.125 C 
BRANCH  20  21
ATOM     21  C   UNL     1       0.000  -2.475   0.000  0.00  0.00    +0.164 C 
BRANCH  21  22
ATOM     22  O   UNL     1      -0.717  -2.888   0.000  0.00  0.00    -0.349 OA
ATOM     23  C   UNL     1      -0.717  -3.712   0.000  0.00  0.00    +0.174 C 
ENDBRANCH  21  22
ENDBRANCH  20  21
ENDBRANCH  19  20
BRANCH  19  24
ATOM     24  C   UNL     1       1.425  -1.650   0.000  0.00  0.00    +0.178 C 
BRANCH  24  25
ATOM     25  C   UNL     1       1.425  -2.475   0.000  0.00  0.00    +0.246 C 
ATOM     26  O   UNL     1       0.713  -2.888   0.000  0.00  0.00    -0.273 OA
ATOM     27  N   UNL     1       2.142  -2.888   0.000  0.00  0.00    -0.275 N 
ATOM     28  C   UNL     1       2.142  -3.712   0.000  0.00  0.00    +0.115 C 
ATOM     29  C   UNL     1       2.854  -2.475   0.000  0.00  0.00    +0.115 C 
ENDBRANCH  24  25
ENDBRANCH  19  24
ENDBRANCH   2  19
TORSDOF 9
