REMARK  Name = 
REMARK  7 active torsions:
REMARK  status: ('A' for Active; 'I' for Inactive)
REMARK    1  A    between atoms: O_2  and  C_3
REMARK    2  A    between atoms: C_3  and  C_4
REMARK    3  A    between atoms: C_4  and  O_5
REMARK    4  A    between atoms: O_5  and  C_6
REMARK    5  A    between atoms: C_11  and  C_12
REMARK    6  A    between atoms: N_14  and  C_15
REMARK    7  A    between atoms: C_15  and  C_16
REMARK                            x       y       z     vdW  Elec       q    Type
REMARK                         _______ _______ _______ _____ _____    ______ ____
ROOT
ATOM      1  C   UNL     1       2.143  -3.712   0.000  0.00  0.00    +0.229 A 
ATOM      2  C   UNL     1       2.858  -4.125   0.000  0.00  0.00    +0.108 A 
ATOM      3  C   UNL     1       3.572  -3.712   0.000  0.00  0.00    +0.011 A 
ATOM      4  C   UNL     1       3.572  -2.888   0.000  0.00  0.00    +0.021 A 
ATOM      5  C   UNL     1       2.858  -2.475   0.000  0.00  0.00    +0.102 A 
ATOM      6  N   UNL     1       2.143  -2.888   0.000  0.00  0.00    -0.210 NA
ENDROOT
BRANCH   2   7
ATOM      7  C   UNL     1       2.858  -4.950   0.000  0.00  0.00    +0.269 C 
ATOM      8  N   UNL     1       2.143  -5.362   0.000  0.00  0.00    -0.199 NA
ATOM      9  O   UNL     1       3.572  -5.362   0.000  0.00  0.00    -0.268 OA
BRANCH   8  10
ATOM     10  C   UNL     1       2.143  -6.188   0.000  0.00  0.00    +0.146 C 
BRANCH  10  11
ATOM     11  C   UNL     1       2.858  -6.600   0.000  0.00  0.00    +0.153 C 
ATOM     12  O   UNL     1       2.858  -7.425   0.000  0.00  0.00    -0.352 OA
ATOM     13  C   UNL     1       3.572  -7.838   0.000  0.00  0.00    +0.159 C 
ATOM     14  C   UNL     1       4.287  -7.425   0.000  0.00  0.00    +0.105 C 
ATOM     15  N   UNL     1       4.287  -6.600   0.000  0.00  0.00    -0.267 NA
ATOM     16  C   UNL     1       5.001  -6.188   0.000  0.00  0.00    +0.090 C 
ATOM     17  C   UNL     1       3.572  -6.188   0.000  0.00  0.00    +0.104 C 
ENDBRANCH  10  11
ENDBRANCH   8  10
ENDBRANCH   2   7
BRANCH   1  18
ATOM     18  O   UNL     1       1.429  -4.125   0.000  0.00  0.00    -0.457 OA
BRANCH  18  19
ATOM     19  C   UNL     1       0.715  -3.712   0.000  0.00  0.00    +0.239 C 
BRANCH  19  20
ATOM     20  C   UNL     1       0.000  -4.125   0.000  0.00  0.00    +0.189 C 
BRANCH  20  22
ATOM     21  C   UNL     1      -1.429  -4.125   0.000  0.00  0.00    +0.174 C 
ATOM     22  O   UNL     1      -0.715  -3.712   0.000  0.00  0.00    -0.347 OA
ENDBRANCH  20  22
ENDBRANCH  19  20
ENDBRANCH  18  19
ENDBRANCH   1  18
TORSDOF 7
