REMARK  Name = 
REMARK  7 active torsions:
REMARK  status: ('A' for Active; 'I' for Inactive)
REMARK    1  A    between atoms: C_2  and  C_3
REMARK    2  A    between atoms: C_3  and  C_4
REMARK    3  A    between atoms: C_3  and  C_6
REMARK    4  A    between atoms: C_3  and  N_8
REMARK    5  A    between atoms: N_8  and  C_9
REMARK    6  A    between atoms: C_9  and  C_10
REMARK    7  A    between atoms: C_10  and  N_11
REMARK                            x       y       z     vdW  Elec       q    Type
REMARK                         _______ _______ _______ _____ _____    ______ ____
ROOT
ATOM      1  N   UNL     1      -0.147   3.177   0.000  0.00  0.00    -0.216 NA
ENDROOT
BRANCH   1   2
ATOM      2  C   UNL     1      -0.147   2.352   0.000  0.00  0.00    +0.115 C 
BRANCH   2   3
ATOM      3  C   UNL     1       0.568   1.939   0.000  0.00  0.00    +0.146 C 
BRANCH   3   4
ATOM      4  N   UNL     1       0.568   1.114   0.000  0.00  0.00    -0.247 N 
ATOM      5  N   UNL     1      -0.100   0.629   0.000  0.00  0.00    -0.167 NA
ATOM      6  C   UNL     1       0.155  -0.155   0.000  0.00  0.00    +0.128 A 
ATOM      7  C   UNL     1       0.980  -0.155   0.000  0.00  0.00    +0.074 A 
ATOM      8 BR   UNL     1       1.465  -0.823   0.000  0.00  0.00    -0.046 Br
ATOM      9  C   UNL     1       1.235   0.629   0.000  0.00  0.00    +0.103 A 
ENDBRANCH   3   4
ENDBRANCH   2   3
ENDBRANCH   1   2
BRANCH   1  10
ATOM     10  C   UNL     1      -0.861   3.589   0.000  0.00  0.00    +0.090 C 
BRANCH  10  11
ATOM     11  C   UNL     1      -1.274   2.875   0.000  0.00  0.00    +0.019 C 
ATOM     12  C   UNL     1      -0.861   2.160   0.000  0.00  0.00    +0.002 C 
ENDBRANCH  10  11
BRANCH  10  14
ATOM     13  C   UNL     1      -1.576   4.827   0.000  0.00  0.00    +0.002 C 
ATOM     14  C   UNL     1      -1.576   4.002   0.000  0.00  0.00    +0.019 C 
ENDBRANCH  10  14
BRANCH  10  15
ATOM     15  C   UNL     1      -0.449   4.304   0.000  0.00  0.00    +0.198 C 
ATOM     16  O   UNL     1       0.376   4.304   0.000  0.00  0.00    -0.219 OA
ENDBRANCH  10  15
ENDBRANCH   1  10
TORSDOF 7
