REMARK  Name = 
REMARK  6 active torsions:
REMARK  status: ('A' for Active; 'I' for Inactive)
REMARK    1  A    between atoms: N_2  and  C_13
REMARK    2  A    between atoms: C_5  and  N_6
REMARK    3  A    between atoms: N_7  and  C_15
REMARK    4  A    between atoms: C_13  and  C_14
REMARK    5  A    between atoms: C_14  and  C_21
REMARK    6  A    between atoms: C_15  and  C_17
REMARK                            x       y       z     vdW  Elec       q    Type
REMARK                         _______ _______ _______ _____ _____    ______ ____
ROOT
ATOM      1  C   UNL     1       2.562   0.825   0.000  0.00  0.00    +0.149 A 
ATOM      2  C   UNL     1       3.275   1.238   0.000  0.00  0.00    +0.155 A 
ATOM      3  N   UNL     1       3.992   0.825   0.000  0.00  0.00    -0.207 NA
ATOM      4  C   UNL     1       3.992   0.000   0.000  0.00  0.00    +0.201 A 
ATOM      5  N   UNL     1       3.275  -0.412   0.000  0.00  0.00    -0.205 NA
ATOM      6  N   UNL     1       1.779   1.083   0.000  0.00  0.00    -0.219 NA
ATOM      7  C   UNL     1       1.292   0.412   0.000  0.00  0.00    +0.180 A 
ATOM      8  N   UNL     1       1.779  -0.254   0.000  0.00  0.00    -0.292 N 
ATOM      9  C   UNL     1       2.562   0.000   0.000  0.00  0.00    +0.167 A 
ENDROOT
BRANCH   2  10
ATOM     10  N   UNL     1       3.275   2.062   0.000  0.00  0.00    -0.282 N 
ATOM     11  C   UNL     1       3.992   2.475   0.000  0.00  0.00    +0.114 C 
ATOM     12  C   UNL     1       3.992   3.300   0.000  0.00  0.00    +0.115 C 
ATOM     13  N   UNL     1       3.275   3.712   0.000  0.00  0.00    -0.268 N 
ATOM     14  C   UNL     1       2.562   3.300   0.000  0.00  0.00    +0.246 C 
ATOM     15  O   UNL     1       1.850   3.712   0.000  0.00  0.00    -0.273 OA
ATOM     16  C   UNL     1       2.562   2.475   0.000  0.00  0.00    +0.178 C 
BRANCH  13  17
ATOM     17  C   UNL     1       3.275   4.533   0.000  0.00  0.00    +0.183 C 
BRANCH  17  18
ATOM     18  C   UNL     1       2.562   4.950   0.000  0.00  0.00    +0.281 C 
ATOM     19  N   UNL     1       2.562   5.775   0.000  0.00  0.00    -0.086 NA
ATOM     20  O   UNL     1       1.850   4.533   0.000  0.00  0.00    -0.270 OA
ENDBRANCH  17  18
ENDBRANCH  13  17
ENDBRANCH   2  10
BRANCH   8  21
ATOM     21  C   UNL     1       1.521  -1.038   0.000  0.00  0.00    +0.144 C 
BRANCH  21  22
ATOM     22  C   UNL     1       2.075  -1.650   0.000  0.00  0.00    +0.201 C 
ATOM     23  O   UNL     1       2.883  -1.479   0.000  0.00  0.00    -0.218 OA
BRANCH  22  24
ATOM     24  C   UNL     1       1.821  -2.433   0.000  0.00  0.00    +0.147 C 
ATOM     25  C   UNL     1       2.304  -3.104   0.000  0.00  0.00    +0.035 C 
ATOM     26  C   UNL     1       1.821  -3.771   0.000  0.00  0.00    +0.035 C 
ATOM     27  C   UNL     1       1.033  -3.517   0.000  0.00  0.00    +0.142 C 
ATOM     28  O   UNL     1       1.033  -2.692   0.000  0.00  0.00    -0.354 OA
ENDBRANCH  22  24
ENDBRANCH  21  22
ENDBRANCH   8  21
TORSDOF 6
