REMARK  Name = 
REMARK  4 active torsions:
REMARK  status: ('A' for Active; 'I' for Inactive)
REMARK    1  A    between atoms: C_2  and  C_4
REMARK    2  A    between atoms: C_4  and  N_5
REMARK    3  A    between atoms: C_8  and  N_11
REMARK    4  A    between atoms: N_14  and  C_15
REMARK                            x       y       z     vdW  Elec       q    Type
REMARK                         _______ _______ _______ _____ _____    ______ ____
ROOT
ATOM      1  N   UNL     1      -2.143  -1.238   0.000  0.00  0.00    -0.265 NA
ATOM      2  C   UNL     1      -2.858  -1.650   0.000  0.00  0.00    +0.074 C 
ATOM      3  C   UNL     1      -2.858  -2.475   0.000  0.00  0.00    +0.039 C 
ATOM      4  C   UNL     1      -2.143  -2.888   0.000  0.00  0.00    +0.100 C 
ATOM      5  C   UNL     1      -1.429  -2.475   0.000  0.00  0.00    +0.039 C 
ATOM      6  C   UNL     1      -1.429  -1.650   0.000  0.00  0.00    +0.074 C 
ENDROOT
BRANCH   4   7
ATOM      7  N   UNL     1      -2.143  -3.712   0.000  0.00  0.00    -0.189 NA
ATOM      8  C   UNL     1      -2.858  -4.125   0.000  0.00  0.00    +0.343 C 
ATOM      9  N   UNL     1      -2.858  -4.950   0.000  0.00  0.00    -0.161 NA
ATOM     10  O   UNL     1      -3.572  -3.712   0.000  0.00  0.00    -0.249 OA
BRANCH   9  11
ATOM     11  C   UNL     1      -2.143  -5.362   0.000  0.00  0.00    +0.078 A 
ATOM     12  C   UNL     1      -2.143  -6.188   0.000  0.00  0.00    +0.037 A 
ATOM     13  C   UNL     1      -1.429  -6.600   0.000  0.00  0.00    +0.100 A 
ATOM     14  N   UNL     1      -0.715  -6.188   0.000  0.00  0.00    -0.242 NA
ATOM     15  C   UNL     1      -0.715  -5.362   0.000  0.00  0.00    +0.100 A 
ATOM     16  C   UNL     1      -1.429  -4.950   0.000  0.00  0.00    +0.037 A 
ENDBRANCH   9  11
ENDBRANCH   4   7
BRANCH   1  17
ATOM     17  C   UNL     1      -2.143  -0.412   0.000  0.00  0.00    +0.162 C 
BRANCH  17  19
ATOM     18  N   UNL     1      -2.858   0.825   0.000  0.00  0.00    -0.087 NA
ATOM     19  C   UNL     1      -2.858   0.000   0.000  0.00  0.00    +0.277 C 
ATOM     20  O   UNL     1      -3.572  -0.412   0.000  0.00  0.00    -0.270 OA
ENDBRANCH  17  19
ENDBRANCH   1  17
TORSDOF 4
