REMARK  Name = 
REMARK  2 active torsions:
REMARK  status: ('A' for Active; 'I' for Inactive)
REMARK    1  A    between atoms: C_3  and  C_4
REMARK    2  A    between atoms: C_4  and  C_5
REMARK                            x       y       z     vdW  Elec       q    Type
REMARK                         _______ _______ _______ _____ _____    ______ ____
ROOT
ATOM      1 CL   UNL     1       0.000   0.000   0.000  0.00  0.00    +0.000 Cl
ENDROOT
TORSDOF 0
REMARK  Name = 
REMARK  2 active torsions:
REMARK  status: ('A' for Active; 'I' for Inactive)
REMARK    1  A    between atoms: C_3  and  C_4
REMARK    2  A    between atoms: C_4  and  C_5
REMARK                            x       y       z     vdW  Elec       q    Type
REMARK                         _______ _______ _______ _____ _____    ______ ____
ROOT
ATOM      1  C   UNL     1       3.072   0.147   0.000  0.00  0.00    +0.239 A 
ATOM      2  O   UNL     1       2.404  -0.338   0.000  0.00  0.00    -0.336 OA
ATOM      3  N   UNL     1       2.659  -1.123   0.000  0.00  0.00    -0.037 NA
ATOM      4  C   UNL     1       3.484  -1.123   0.000  0.00  0.00    +0.295 A 
ATOM      5  N   UNL     1       3.969  -1.790   0.000  0.00  0.00    -0.083 NA
ATOM      6  N   UNL     1       3.739  -0.338   0.000  0.00  0.00    -0.175 NA
ENDROOT
BRANCH   1   7
ATOM      7  C   UNL     1       3.072   0.972   0.000  0.00  0.00    +0.109 C 
BRANCH   7   9
ATOM      8  N   UNL     1       2.357   2.209   0.000  0.00  0.00    -0.131 NA
ATOM      9  C   UNL     1       2.357   1.384   0.000  0.00  0.00    +0.119 C 
ENDBRANCH   7   9
ENDBRANCH   1   7
TORSDOF 2
