REMARK  Name = 
REMARK  2 active torsions:
REMARK  status: ('A' for Active; 'I' for Inactive)
REMARK    1  A    between atoms: C_5  and  C_7
REMARK    2  A    between atoms: C_7  and  N_8
REMARK                            x       y       z     vdW  Elec       q    Type
REMARK                         _______ _______ _______ _____ _____    ______ ____
ROOT
ATOM      1  C   UNL     1       2.772  -0.050   0.000  0.00  0.00    +0.141 C 
ENDROOT
BRANCH   1   2
ATOM      2  N   UNL     1       3.584  -0.193   0.000  0.00  0.00    -0.276 N 
ATOM      3  C   UNL     1       3.866  -0.968   0.000  0.00  0.00    +0.259 A 
ATOM      4  O   UNL     1       3.336  -1.600   0.000  0.00  0.00    -0.267 OA
ATOM      5  C   UNL     1       4.679  -1.111   0.000  0.00  0.00    +0.048 A 
ATOM      6  C   UNL     1       4.961  -1.887   0.000  0.00  0.00    +0.037 C 
ATOM      7  C   UNL     1       5.209  -0.479   0.000  0.00  0.00    +0.062 A 
ATOM      8  C   UNL     1       6.022  -0.623   0.000  0.00  0.00    +0.052 C 
ATOM      9  N   UNL     1       4.927   0.296   0.000  0.00  0.00    -0.230 NA
ATOM     10  C   UNL     1       4.114   0.439   0.000  0.00  0.00    +0.181 A 
ENDBRANCH   1   2
BRANCH   1  15
ATOM     11  C   UNL     1       2.241  -3.157   0.000  0.00  0.00    +0.000 C 
ATOM     12  C   UNL     1       2.241  -2.332   0.000  0.00  0.00    +0.000 C 
ATOM     13  C   UNL     1       2.956  -1.919   0.000  0.00  0.00    +0.003 C 
ATOM     14  C   UNL     1       2.956  -1.094   0.000  0.00  0.00    +0.032 C 
ATOM     15  C   UNL     1       2.241  -0.682   0.000  0.00  0.00    +0.147 C 
ATOM     16  O   UNL     1       1.711  -0.050   0.000  0.00  0.00    -0.224 OA
ATOM     17  C   UNL     1       1.527  -1.094   0.000  0.00  0.00    +0.032 C 
ATOM     18  C   UNL     1       1.527  -1.919   0.000  0.00  0.00    +0.003 C 
ENDBRANCH   1  15
TORSDOF 2
