REMARK  Name = 
REMARK  6 active torsions:
REMARK  status: ('A' for Active; 'I' for Inactive)
REMARK    1  A    between atoms: C_2  and  S_5
REMARK    2  A    between atoms: S_5  and  C_6
REMARK    3  A    between atoms: C_6  and  C_7
REMARK    4  A    between atoms: C_7  and  N_8
REMARK    5  A    between atoms: C_9  and  C_11
REMARK    6  A    between atoms: C_11  and  N_12
REMARK                            x       y       z     vdW  Elec       q    Type
REMARK                         _______ _______ _______ _____ _____    ______ ____
ROOT
ATOM      1  N   UNL     1       1.429  -2.475   0.000  0.00  0.00    -0.203 NA
ATOM      2  C   UNL     1       2.143  -2.888   0.000  0.00  0.00    +0.265 C 
ATOM      3  O   UNL     1       2.143  -3.712   0.000  0.00  0.00    -0.271 OA
ENDROOT
BRANCH   2   4
ATOM      4  C   UNL     1       2.858  -2.475   0.000  0.00  0.00    +0.197 C 
BRANCH   4   5
ATOM      5  N   UNL     1       3.572  -2.888   0.000  0.00  0.00    -0.269 N 
ATOM      6  C   UNL     1       3.572  -3.712   0.000  0.00  0.00    +0.353 A 
ATOM      7  O   UNL     1       2.858  -4.125   0.000  0.00  0.00    -0.244 OA
ATOM      8  N   UNL     1       4.287  -4.125   0.000  0.00  0.00    -0.153 NA
ATOM      9  C   UNL     1       5.001  -3.712   0.000  0.00  0.00    +0.285 A 
ATOM     10  O   UNL     1       5.716  -4.125   0.000  0.00  0.00    -0.265 OA
ATOM     11  C   UNL     1       5.001  -2.888   0.000  0.00  0.00    +0.081 A 
ATOM     12  C   UNL     1       4.287  -2.475   0.000  0.00  0.00    +0.085 A 
ENDBRANCH   4   5
ENDBRANCH   2   4
BRANCH   1  13
ATOM     13  C   UNL     1       0.715  -2.888   0.000  0.00  0.00    +0.127 C 
BRANCH  13  14
ATOM     14  C   UNL     1       0.000  -2.475   0.000  0.00  0.00    +0.089 C 
BRANCH  14  15
ATOM     15  S   UNL     1      -0.715  -2.888   0.000  0.00  0.00    -0.040 S 
BRANCH  15  17
ATOM     16  F   UNL     1      -2.143  -2.062   0.000  0.00  0.00    -0.160 F 
ATOM     17  C   UNL     1      -1.429  -2.475   0.000  0.00  0.00    +0.444 C 
ATOM     18  F   UNL     1      -1.016  -1.760   0.000  0.00  0.00    -0.160 F 
ATOM     19  F   UNL     1      -1.841  -3.189   0.000  0.00  0.00    -0.160 F 
ENDBRANCH  15  17
ENDBRANCH  14  15
ENDBRANCH  13  14
ENDBRANCH   1  13
TORSDOF 6
