REMARK  Name = 
REMARK  4 active torsions:
REMARK  status: ('A' for Active; 'I' for Inactive)
REMARK    1  A    between atoms: C_2  and  N_3
REMARK    2  A    between atoms: C_4  and  C_6
REMARK    3  A    between atoms: C_8  and  N_12
REMARK    4  A    between atoms: C_16  and  C_18
REMARK                            x       y       z     vdW  Elec       q    Type
REMARK                         _______ _______ _______ _____ _____    ______ ____
ROOT
ATOM      1  C   UNL     1       0.715  -1.238   0.000  0.00  0.00    +0.137 A 
ATOM      2  N   UNL     1       0.000  -1.650   0.000  0.00  0.00    -0.239 NA
ATOM      3  C   UNL     1       0.000  -2.475   0.000  0.00  0.00    +0.100 A 
ATOM      4  C   UNL     1       0.715  -2.888   0.000  0.00  0.00    +0.035 A 
ATOM      5  C   UNL     1       1.429  -2.475   0.000  0.00  0.00    +0.051 A 
ATOM      6  C   UNL     1       1.429  -1.650   0.000  0.00  0.00    +0.038 A 
ENDROOT
BRANCH   5   7
ATOM      7  N   UNL     1       2.143  -2.888   0.000  0.00  0.00    -0.302 N 
ATOM      8  C   UNL     1       2.143  -3.712   0.000  0.00  0.00    +0.130 C 
ATOM      9  C   UNL     1       2.858  -4.125   0.000  0.00  0.00    +0.214 C 
ATOM     10  O   UNL     1       3.572  -3.712   0.000  0.00  0.00    -0.343 OA
ATOM     11  C   UNL     1       3.572  -2.888   0.000  0.00  0.00    +0.164 C 
ATOM     12  C   UNL     1       2.858  -2.475   0.000  0.00  0.00    +0.123 C 
BRANCH   9  13
ATOM     13  C   UNL     1       2.858  -4.950   0.000  0.00  0.00    +0.290 C 
ATOM     14  N   UNL     1       2.143  -5.362   0.000  0.00  0.00    -0.086 NA
ATOM     15  O   UNL     1       3.572  -5.362   0.000  0.00  0.00    -0.269 OA
ENDBRANCH   9  13
ENDBRANCH   5   7
BRANCH   1  17
ATOM     16  N   UNL     1       0.000   0.000   0.000  0.00  0.00    -0.200 NA
ATOM     17  C   UNL     1       0.715  -0.412   0.000  0.00  0.00    +0.283 C 
ATOM     18  O   UNL     1       1.429   0.000   0.000  0.00  0.00    -0.267 OA
BRANCH  16  20
ATOM     19  C   UNL     1      -0.715   1.238   0.000  0.00  0.00    +0.025 C 
ATOM     20  C   UNL     1       0.000   0.825   0.000  0.00  0.00    +0.116 C 
ENDBRANCH  16  20
ENDBRANCH   1  17
TORSDOF 4
