REMARK  Name = 
REMARK  3 active torsions:
REMARK  status: ('A' for Active; 'I' for Inactive)
REMARK    1  A    between atoms: C_7  and  C_8
REMARK    2  A    between atoms: C_8  and  C_9
REMARK    3  A    between atoms: C_9  and  N_10
REMARK                            x       y       z     vdW  Elec       q    Type
REMARK                         _______ _______ _______ _____ _____    ______ ____
ROOT
ATOM      1  N   UNL     1       4.592  -2.952   0.000  0.00  0.00    -0.187 NA
ATOM      2  C   UNL     1       5.307  -3.364   0.000  0.00  0.00    +0.345 C 
ATOM      3  N   UNL     1       6.021  -2.952   0.000  0.00  0.00    -0.139 NA
ATOM      4  C   UNL     1       6.736  -3.364   0.000  0.00  0.00    +0.197 A 
ATOM      5  N   UNL     1       6.822  -4.185   0.000  0.00  0.00    -0.060 NA
ATOM      6  O   UNL     1       7.629  -4.356   0.000  0.00  0.00    -0.356 OA
ATOM      7  C   UNL     1       8.041  -3.642   0.000  0.00  0.00    +0.156 A 
ATOM      8  C   UNL     1       8.862  -3.556   0.000  0.00  0.00    +0.075 C 
ATOM      9  C   UNL     1       7.489  -3.029   0.000  0.00  0.00    +0.075 A 
ATOM     10  O   UNL     1       5.307  -4.189   0.000  0.00  0.00    -0.249 OA
ENDROOT
BRANCH   1  11
ATOM     11  C   UNL     1       3.878  -3.364   0.000  0.00  0.00    +0.118 C 
BRANCH  11  12
ATOM     12  C   UNL     1       3.163  -2.952   0.000  0.00  0.00    +0.038 C 
BRANCH  12  15
ATOM     13  C   UNL     1       2.976  -4.737   0.000  0.00  0.00    +0.049 C 
ATOM     14  C   UNL     1       2.363  -4.185   0.000  0.00  0.00    +0.065 C 
ATOM     15  C   UNL     1       2.449  -3.364   0.000  0.00  0.00    +0.119 C 
ATOM     16  C   UNL     1       1.695  -3.029   0.000  0.00  0.00    +0.268 C 
ATOM     17  O   UNL     1       1.524  -2.222   0.000  0.00  0.00    -0.271 OA
ATOM     18  N   UNL     1       1.143  -3.642   0.000  0.00  0.00    -0.080 NA
ATOM     19  N   UNL     1       1.556  -4.356   0.000  0.00  0.00    -0.164 NA
ENDBRANCH  12  15
ENDBRANCH  11  12
ENDBRANCH   1  11
TORSDOF 3
