REMARK  Name = 
REMARK  5 active torsions:
REMARK  status: ('A' for Active; 'I' for Inactive)
REMARK    1  A    between atoms: C_2  and  C_3
REMARK    2  A    between atoms: C_5  and  C_6
REMARK    3  A    between atoms: N_21  and  C_22
REMARK    4  A    between atoms: C_22  and  C_23
REMARK    5  A    between atoms: C_23  and  O_24
REMARK                            x       y       z     vdW  Elec       q    Type
REMARK                         _______ _______ _______ _____ _____    ______ ____
ROOT
ATOM      1  C   UNL     1      -1.441  -1.110   0.000  0.00  0.00    +0.080 A 
ATOM      2  N   UNL     1      -0.656  -1.365   0.000  0.00  0.00    -0.167 NA
ATOM      3  N   UNL     1      -0.171  -0.698   0.000  0.00  0.00    -0.202 N 
ATOM      4  C   UNL     1       0.654  -0.698   0.000  0.00  0.00    +0.235 A 
ATOM      5  N   UNL     1       1.139  -1.365   0.000  0.00  0.00    -0.288 N 
ATOM      6  C   UNL     1       1.923  -1.110   0.000  0.00  0.00    +0.156 A 
ATOM      7  C   UNL     1       1.923  -0.285   0.000  0.00  0.00    +0.171 A 
ATOM      8  N   UNL     1       2.638   0.127   0.000  0.00  0.00    -0.261 N 
ATOM      9  C   UNL     1       3.352  -0.285   0.000  0.00  0.00    +0.354 A 
ATOM     10  N   UNL     1       3.352  -1.110   0.000  0.00  0.00    -0.152 NA
ATOM     11  O   UNL     1       4.067   0.127   0.000  0.00  0.00    -0.244 OA
ATOM     12  C   UNL     1       2.638   0.952   0.000  0.00  0.00    +0.137 C 
ATOM     13  C   UNL     1       2.638  -1.523   0.000  0.00  0.00    +0.302 A 
ATOM     14  O   UNL     1       2.638  -2.348   0.000  0.00  0.00    -0.263 OA
ATOM     15  N   UNL     1       1.139  -0.030   0.000  0.00  0.00    -0.192 NA
ATOM     16  C   UNL     1      -0.656  -0.030   0.000  0.00  0.00    +0.065 A 
ATOM     17  C   UNL     1      -1.441  -0.285   0.000  0.00  0.00    +0.031 A 
ENDROOT
BRANCH   1  19
ATOM     18  C   UNL     1      -2.862  -1.260   0.000  0.00  0.00    +0.007 C 
ATOM     19  C   UNL     1      -2.108  -1.595   0.000  0.00  0.00    +0.048 C 
ENDBRANCH   1  19
BRANCH  16  20
ATOM     20  C   UNL     1      -0.401   0.754   0.000  0.00  0.00    +0.046 C 
ATOM     21  C   UNL     1       0.406   0.926   0.000  0.00  0.00    +0.007 C 
ENDBRANCH  16  20
BRANCH   5  22
ATOM     22  C   UNL     1       0.884  -2.150   0.000  0.00  0.00    +0.141 C 
BRANCH  22  23
ATOM     23  C   UNL     1       0.077  -2.321   0.000  0.00  0.00    +0.167 C 
BRANCH  23  24
ATOM     24  O   UNL     1      -0.178  -3.106   0.000  0.00  0.00    -0.349 OA
ATOM     25  C   UNL     1      -0.985  -3.278   0.000  0.00  0.00    +0.174 C 
ENDBRANCH  23  24
ENDBRANCH  22  23
ENDBRANCH   5  22
TORSDOF 5
