REMARK  Name = 
REMARK  7 active torsions:
REMARK  status: ('A' for Active; 'I' for Inactive)
REMARK    1  A    between atoms: O_2  and  C_3
REMARK    2  A    between atoms: C_3  and  C_4
REMARK    3  A    between atoms: C_4  and  N_5
REMARK    4  A    between atoms: C_7  and  C_12
REMARK    5  A    between atoms: N_14  and  C_15
REMARK    6  A    between atoms: C_15  and  C_16
REMARK    7  A    between atoms: C_16  and  C_17
REMARK                            x       y       z     vdW  Elec       q    Type
REMARK                         _______ _______ _______ _____ _____    ______ ____
ROOT
ATOM      1  N   UNL     1      -0.715  -1.238   0.000  0.00  0.00    -0.214 N 
ATOM      2  C   UNL     1      -1.429  -1.650   0.000  0.00  0.00    +0.277 A 
ATOM      3  O   UNL     1      -2.143  -1.238   0.000  0.00  0.00    -0.266 OA
ATOM      4  C   UNL     1      -1.429  -2.475   0.000  0.00  0.00    +0.064 A 
ATOM      5  C   UNL     1      -0.715  -2.888   0.000  0.00  0.00    +0.030 A 
ATOM      6  C   UNL     1       0.000  -2.475   0.000  0.00  0.00    +0.156 A 
ATOM      7  N   UNL     1       0.000  -1.650   0.000  0.00  0.00    -0.162 NA
ENDROOT
BRANCH   6   8
ATOM      8  C   UNL     1       0.715  -2.888   0.000  0.00  0.00    +0.284 C 
ATOM      9  N   UNL     1       1.429  -2.475   0.000  0.00  0.00    -0.200 NA
ATOM     10  O   UNL     1       0.715  -3.712   0.000  0.00  0.00    -0.267 OA
BRANCH   9  11
ATOM     11  C   UNL     1       2.143  -2.888   0.000  0.00  0.00    +0.120 C 
BRANCH  11  12
ATOM     12  C   UNL     1       2.858  -2.475   0.000  0.00  0.00    +0.045 C 
BRANCH  12  13
ATOM     13  C   UNL     1       3.572  -2.888   0.000  0.00  0.00    -0.047 C 
ATOM     14  C   UNL     1       3.572  -3.712   0.000  0.00  0.00    +0.022 C 
ATOM     15  C   UNL     1       4.287  -4.125   0.000  0.00  0.00    +0.005 C 
ATOM     16  C   UNL     1       5.001  -3.712   0.000  0.00  0.00    +0.005 C 
ATOM     17  C   UNL     1       5.001  -2.888   0.000  0.00  0.00    +0.025 C 
ATOM     18  C   UNL     1       4.287  -2.475   0.000  0.00  0.00    -0.035 C 
ENDBRANCH  12  13
ENDBRANCH  11  12
ENDBRANCH   9  11
ENDBRANCH   6   8
BRANCH   1  19
ATOM     19  C   UNL     1      -0.715  -0.412   0.000  0.00  0.00    +0.163 C 
BRANCH  19  20
ATOM     20  C   UNL     1      -1.429   0.000   0.000  0.00  0.00    +0.169 C 
BRANCH  20  22
ATOM     21  C   UNL     1      -2.143   1.238   0.000  0.00  0.00    +0.174 C 
ATOM     22  O   UNL     1      -1.429   0.825   0.000  0.00  0.00    -0.349 OA
ENDBRANCH  20  22
ENDBRANCH  19  20
ENDBRANCH   1  19
TORSDOF 7
