REMARK  Name = 
REMARK  7 active torsions:
REMARK  status: ('A' for Active; 'I' for Inactive)
REMARK    1  A    between atoms: C_2  and  O_3
REMARK    2  A    between atoms: C_2  and  C_9
REMARK    3  A    between atoms: O_3  and  C_4
REMARK    4  A    between atoms: C_4  and  C_5
REMARK    5  A    between atoms: N_11  and  C_12
REMARK    6  A    between atoms: C_12  and  C_13
REMARK    7  A    between atoms: C_18  and  N_19
REMARK                            x       y       z     vdW  Elec       q    Type
REMARK                         _______ _______ _______ _____ _____    ______ ____
ROOT
ATOM      1  C   UNL     1       5.001  -1.238   0.000  0.00  0.00    +0.144 C 
ENDROOT
BRANCH   1   2
ATOM      2  C   UNL     1       5.716  -0.825   0.000  0.00  0.00    +0.031 A 
ATOM      3  C   UNL     1       6.430  -1.238   0.000  0.00  0.00    +0.129 A 
ATOM      4  N   UNL     1       7.145  -0.825   0.000  0.00  0.00    -0.229 NA
ATOM      5  C   UNL     1       7.145   0.000   0.000  0.00  0.00    +0.100 A 
ATOM      6  C   UNL     1       6.430   0.412   0.000  0.00  0.00    +0.021 A 
ATOM      7  C   UNL     1       5.716   0.000   0.000  0.00  0.00    +0.002 A 
BRANCH   3   8
ATOM      8  N   UNL     1       6.430  -2.062   0.000  0.00  0.00    -0.288 N 
ATOM      9  C   UNL     1       5.716  -2.475   0.000  0.00  0.00    +0.124 C 
ATOM     10  C   UNL     1       5.716  -3.300   0.000  0.00  0.00    +0.164 C 
ATOM     11  O   UNL     1       6.430  -3.712   0.000  0.00  0.00    -0.350 OA
ATOM     12  C   UNL     1       7.145  -3.300   0.000  0.00  0.00    +0.164 C 
ATOM     13  C   UNL     1       7.145  -2.475   0.000  0.00  0.00    +0.124 C 
ENDBRANCH   3   8
ENDBRANCH   1   2
BRANCH   1  15
ATOM     14  C   UNL     1       3.572  -1.238   0.000  0.00  0.00    +0.269 C 
ATOM     15  N   UNL     1       4.287  -0.825   0.000  0.00  0.00    -0.198 NA
ATOM     16  O   UNL     1       3.572  -2.062   0.000  0.00  0.00    -0.271 OA
BRANCH  14  18
ATOM     17  C   UNL     1       2.858   0.000   0.000  0.00  0.00    +0.042 C 
ATOM     18  C   UNL     1       2.858  -0.825   0.000  0.00  0.00    +0.193 C 
BRANCH  18  19
ATOM     19  O   UNL     1       2.143  -1.238   0.000  0.00  0.00    -0.339 OA
BRANCH  19  20
ATOM     20  C   UNL     1       1.429  -0.825   0.000  0.00  0.00    +0.246 C 
BRANCH  20  21
ATOM     21  C   UNL     1       0.715  -1.238   0.000  0.00  0.00    +0.425 C 
ATOM     22  F   UNL     1       0.302  -0.523   0.000  0.00  0.00    -0.167 F 
ATOM     23  F   UNL     1       1.127  -1.952   0.000  0.00  0.00    -0.167 F 
ATOM     24  F   UNL     1       0.000  -1.650   0.000  0.00  0.00    -0.167 F 
ENDBRANCH  20  21
ENDBRANCH  19  20
ENDBRANCH  18  19
ENDBRANCH  14  18
ENDBRANCH   1  15
TORSDOF 7
