REMARK  Name = 
REMARK  4 active torsions:
REMARK  status: ('A' for Active; 'I' for Inactive)
REMARK    1  A    between atoms: N_2  and  C_4
REMARK    2  A    between atoms: N_7  and  C_8
REMARK    3  A    between atoms: C_8  and  C_9
REMARK    4  A    between atoms: C_9  and  N_10
REMARK                            x       y       z     vdW  Elec       q    Type
REMARK                         _______ _______ _______ _____ _____    ______ ____
ROOT
ATOM      1  N   UNL     1       3.572  -3.712   0.000  0.00  0.00    -0.185 NA
ATOM      2  C   UNL     1       4.287  -4.125   0.000  0.00  0.00    +0.345 C 
ATOM      3  N   UNL     1       5.001  -3.712   0.000  0.00  0.00    -0.142 NA
ATOM      4  C   UNL     1       5.716  -4.125   0.000  0.00  0.00    +0.155 A 
ATOM      5  N   UNL     1       5.716  -4.950   0.000  0.00  0.00    -0.233 NA
ATOM      6  C   UNL     1       6.430  -5.362   0.000  0.00  0.00    +0.061 A 
ATOM      7  C   UNL     1       6.430  -6.188   0.000  0.00  0.00    +0.052 C 
ATOM      8  C   UNL     1       7.145  -4.950   0.000  0.00  0.00    +0.011 A 
ATOM      9  C   UNL     1       7.145  -4.125   0.000  0.00  0.00    -0.018 A 
ATOM     10  C   UNL     1       7.859  -3.712   0.000  0.00  0.00    +0.031 C 
ATOM     11  C   UNL     1       6.430  -3.712   0.000  0.00  0.00    +0.032 A 
ATOM     12  O   UNL     1       4.287  -4.950   0.000  0.00  0.00    -0.249 OA
ENDROOT
BRANCH   1  13
ATOM     13  C   UNL     1       2.858  -4.125   0.000  0.00  0.00    +0.134 C 
BRANCH  13  14
ATOM     14  C   UNL     1       2.143  -3.712   0.000  0.00  0.00    +0.096 C 
BRANCH  14  18
ATOM     15  C   UNL     1       0.000  -4.950   0.000  0.00  0.00    +0.060 C 
ATOM     16  C   UNL     1       0.715  -5.362   0.000  0.00  0.00    +0.033 C 
ATOM     17  C   UNL     1       1.429  -4.950   0.000  0.00  0.00    +0.074 C 
ATOM     18  N   UNL     1       1.429  -4.125   0.000  0.00  0.00    -0.271 NA
ATOM     19  C   UNL     1       0.715  -3.712   0.000  0.00  0.00    +0.074 C 
ATOM     20  C   UNL     1       0.000  -4.125   0.000  0.00  0.00    +0.033 C 
BRANCH  15  22
ATOM     21  C   UNL     1      -0.715  -6.188   0.000  0.00  0.00    +0.090 C 
ATOM     22  N   UNL     1      -0.715  -5.362   0.000  0.00  0.00    -0.272 NA
ATOM     23  C   UNL     1      -1.429  -4.950   0.000  0.00  0.00    +0.090 C 
ENDBRANCH  15  22
ENDBRANCH  14  18
ENDBRANCH  13  14
ENDBRANCH   1  13
TORSDOF 4
