REMARK  Name = 
REMARK  3 active torsions:
REMARK  status: ('A' for Active; 'I' for Inactive)
REMARK    1  A    between atoms: C_2  and  C_3
REMARK    2  A    between atoms: C_3  and  C_4
REMARK    3  A    between atoms: N_9  and  C_10
REMARK                            x       y       z     vdW  Elec       q    Type
REMARK                         _______ _______ _______ _____ _____    ______ ____
ROOT
ATOM      1  C   UNL     1       0.302  -0.302   0.000  0.00  0.00    +0.100 C 
ATOM      2  C   UNL     1       1.127  -0.302   0.000  0.00  0.00    +0.049 C 
ATOM      3  C   UNL     1       1.540   0.412   0.000  0.00  0.00    +0.094 C 
ATOM      4  C   UNL     1       1.952  -0.302   0.000  0.00  0.00    +0.027 C 
ATOM      5  C   UNL     1       2.777  -0.302   0.000  0.00  0.00    +0.002 C 
ATOM      6  C   UNL     1       3.189   0.412   0.000  0.00  0.00    +0.000 C 
ATOM      7  C   UNL     1       2.777   1.127   0.000  0.00  0.00    +0.002 C 
ATOM      8  C   UNL     1       1.952   1.127   0.000  0.00  0.00    +0.027 C 
ATOM      9  O   UNL     1       1.127   1.127   0.000  0.00  0.00    -0.358 OA
ATOM     10  C   UNL     1       0.302   1.127   0.000  0.00  0.00    +0.144 C 
ATOM     11  C   UNL     1      -0.111   0.412   0.000  0.00  0.00    +0.054 C 
ENDROOT
BRANCH   1  14
ATOM     12  O   UNL     1      -1.348  -0.302   0.000  0.00  0.00    -0.273 OA
ATOM     13  C   UNL     1      -0.935  -1.016   0.000  0.00  0.00    +0.247 C 
ATOM     14  N   UNL     1      -0.111  -1.016   0.000  0.00  0.00    -0.207 NA
BRANCH  13  15
ATOM     15  C   UNL     1      -1.348  -1.731   0.000  0.00  0.00    +0.136 C 
BRANCH  15  16
ATOM     16  C   UNL     1      -2.173  -1.731   0.000  0.00  0.00    +0.110 A 
ATOM     17  N   UNL     1      -2.658  -1.063   0.000  0.00  0.00    -0.081 NA
ATOM     18  O   UNL     1      -3.443  -1.318   0.000  0.00  0.00    -0.350 OA
ATOM     19  C   UNL     1      -3.443  -2.143   0.000  0.00  0.00    +0.213 A 
ATOM     20  C   UNL     1      -2.658  -2.398   0.000  0.00  0.00    +0.062 A 
ENDBRANCH  15  16
ENDBRANCH  13  15
ENDBRANCH   1  14
TORSDOF 3
