REMARK  Name = 
REMARK  4 active torsions:
REMARK  status: ('A' for Active; 'I' for Inactive)
REMARK    1  A    between atoms: C_2  and  C_5
REMARK    2  A    between atoms: N_8  and  C_9
REMARK    3  A    between atoms: C_9  and  C_10
REMARK    4  A    between atoms: N_12  and  C_13
REMARK                            x       y       z     vdW  Elec       q    Type
REMARK                         _______ _______ _______ _____ _____    ______ ____
ROOT
ATOM      1  C   UNL     1       1.854  -4.474   0.000  0.00  0.00    +0.214 C 
ENDROOT
BRANCH   1   4
ATOM      2  C   UNL     1       2.751  -2.537   0.000  0.00  0.00    +0.174 A 
ATOM      3  N   UNL     1       2.084  -3.022   0.000  0.00  0.00    -0.165 NA
ATOM      4  N   UNL     1       2.339  -3.806   0.000  0.00  0.00    -0.240 N 
ATOM      5  C   UNL     1       3.164  -3.806   0.000  0.00  0.00    +0.097 A 
ATOM      6  C   UNL     1       3.419  -3.022   0.000  0.00  0.00    +0.045 A 
BRANCH   2   8
ATOM      7  F   UNL     1       2.751  -0.887   0.000  0.00  0.00    -0.164 F 
ATOM      8  C   UNL     1       2.751  -1.712   0.000  0.00  0.00    +0.437 C 
ATOM      9  F   UNL     1       3.576  -1.712   0.000  0.00  0.00    -0.164 F 
ATOM     10  F   UNL     1       1.926  -1.712   0.000  0.00  0.00    -0.164 F 
ENDBRANCH   2   8
ENDBRANCH   1   4
BRANCH   1  11
ATOM     11  C   UNL     1       1.033  -4.387   0.000  0.00  0.00    +0.266 C 
ATOM     12  N   UNL     1       0.548  -5.055   0.000  0.00  0.00    -0.206 NA
ATOM     13  O   UNL     1       0.698  -3.634   0.000  0.00  0.00    -0.271 OA
BRANCH  12  14
ATOM     14  C   UNL     1      -0.272  -4.969   0.000  0.00  0.00    +0.095 C 
ATOM     15  C   UNL     1      -0.608  -4.215   0.000  0.00  0.00    +0.022 C 
ATOM     16  C   UNL     1      -1.428  -4.129   0.000  0.00  0.00    +0.002 C 
ATOM     17  C   UNL     1      -1.913  -4.796   0.000  0.00  0.00    +0.000 C 
ATOM     18  C   UNL     1      -1.577  -5.550   0.000  0.00  0.00    +0.002 C 
ATOM     19  C   UNL     1      -0.757  -5.636   0.000  0.00  0.00    +0.022 C 
ENDBRANCH  12  14
ENDBRANCH   1  11
TORSDOF 4
