REMARK  Name = 
REMARK  2 active torsions:
REMARK  status: ('A' for Active; 'I' for Inactive)
REMARK    1  A    between atoms: C_5  and  C_7
REMARK    2  A    between atoms: C_7  and  N_8
REMARK                            x       y       z     vdW  Elec       q    Type
REMARK                         _______ _______ _______ _____ _____    ______ ____
ROOT
ATOM      1  N   UNL     1       1.139  -1.365   0.000  0.00  0.00    -0.244 N 
ATOM      2  C   UNL     1       1.923  -1.110   0.000  0.00  0.00    +0.138 A 
ATOM      3  C   UNL     1       1.923  -0.285   0.000  0.00  0.00    +0.064 A 
ATOM      4  C   UNL     1       2.638   0.127   0.000  0.00  0.00    +0.123 A 
ATOM      5  N   UNL     1       3.352  -0.285   0.000  0.00  0.00    -0.165 NA
ATOM      6  N   UNL     1       3.352  -1.110   0.000  0.00  0.00    -0.213 N 
ATOM      7  C   UNL     1       4.067  -1.523   0.000  0.00  0.00    +0.157 C 
ATOM      8  C   UNL     1       1.139  -0.030   0.000  0.00  0.00    +0.123 A 
ATOM      9  C   UNL     1       2.638  -1.523   0.000  0.00  0.00    +0.294 A 
ATOM     10  O   UNL     1       2.638  -2.348   0.000  0.00  0.00    -0.264 OA
ATOM     11  N   UNL     1       0.654  -0.698   0.000  0.00  0.00    -0.167 NA
ENDROOT
BRANCH   1  12
ATOM     12  C   UNL     1       0.884  -2.150   0.000  0.00  0.00    +0.158 C 
BRANCH  12  17
ATOM     13  C   UNL     1      -1.447  -4.272   0.000  0.00  0.00    +0.000 C 
ATOM     14  C   UNL     1      -0.939  -3.622   0.000  0.00  0.00    +0.000 C 
ATOM     15  C   UNL     1      -0.122  -3.737   0.000  0.00  0.00    +0.003 C 
ATOM     16  C   UNL     1       0.386  -3.087   0.000  0.00  0.00    +0.032 C 
ATOM     17  C   UNL     1       0.077  -2.321   0.000  0.00  0.00    +0.149 C 
ATOM     18  O   UNL     1       0.048  -1.497   0.000  0.00  0.00    -0.224 OA
ATOM     19  C   UNL     1      -0.740  -2.207   0.000  0.00  0.00    +0.032 C 
ATOM     20  C   UNL     1      -1.248  -2.857   0.000  0.00  0.00    +0.003 C 
ENDBRANCH  12  17
ENDBRANCH   1  12
TORSDOF 2
