REMARK  Name = 
REMARK  1 active torsions:
REMARK  status: ('A' for Active; 'I' for Inactive)
REMARK    1  A    between atoms: C_5  and  C_7
REMARK                            x       y       z     vdW  Elec       q    Type
REMARK                         _______ _______ _______ _____ _____    ______ ____
ROOT
ATOM      1  C   UNL     1       2.037   4.353   0.000  0.00  0.00    +0.019 C 
ATOM      2  C   UNL     1       2.037   3.528   0.000  0.00  0.00    +0.009 C 
ATOM      3  C   UNL     1       2.751   3.115   0.000  0.00  0.00    +0.064 C 
ATOM      4  C   UNL     1       3.466   3.528   0.000  0.00  0.00    +0.095 C 
ATOM      5  N   UNL     1       3.466   4.353   0.000  0.00  0.00    -0.218 NA
ATOM      6  C   UNL     1       2.751   4.765   0.000  0.00  0.00    +0.089 C 
ENDROOT
BRANCH   3   7
ATOM      7  C   UNL     1       2.751   2.290   0.000  0.00  0.00    +0.089 A 
ATOM      8  S   UNL     1       2.084   1.805   0.000  0.00  0.00    -0.070 S 
ATOM      9  C   UNL     1       2.339   1.021   0.000  0.00  0.00    +0.057 A 
ATOM     10  C   UNL     1       3.164   1.021   0.000  0.00  0.00    +0.106 A 
ATOM     11  N   UNL     1       3.419   1.805   0.000  0.00  0.00    -0.241 NA
ENDBRANCH   3   7
TORSDOF 1
