REMARK  Name = 
REMARK  3 active torsions:
REMARK  status: ('A' for Active; 'I' for Inactive)
REMARK    1  A    between atoms: C_2  and  C_4
REMARK    2  A    between atoms: N_6  and  C_7
REMARK    3  A    between atoms: C_7  and  C_8
REMARK                            x       y       z     vdW  Elec       q    Type
REMARK                         _______ _______ _______ _____ _____    ______ ____
ROOT
ATOM      1  C   UNL     1       5.001  -3.712   0.000  0.00  0.00    +0.004 A 
ATOM      2  C   UNL     1       5.716  -4.125   0.000  0.00  0.00    +0.032 A 
ATOM      3  C   UNL     1       6.430  -3.712   0.000  0.00  0.00    +0.132 A 
ATOM      4  N   UNL     1       7.145  -4.125   0.000  0.00  0.00    -0.288 N 
ATOM      5  C   UNL     1       7.145  -4.950   0.000  0.00  0.00    +0.124 C 
ATOM      6  C   UNL     1       7.859  -5.362   0.000  0.00  0.00    +0.164 C 
ATOM      7  O   UNL     1       8.574  -4.950   0.000  0.00  0.00    -0.350 OA
ATOM      8  C   UNL     1       8.574  -4.125   0.000  0.00  0.00    +0.164 C 
ATOM      9  C   UNL     1       7.859  -3.712   0.000  0.00  0.00    +0.124 C 
ATOM     10  N   UNL     1       6.430  -2.888   0.000  0.00  0.00    -0.229 NA
ATOM     11  C   UNL     1       5.716  -2.475   0.000  0.00  0.00    +0.100 A 
ATOM     12  C   UNL     1       5.001  -2.888   0.000  0.00  0.00    +0.018 A 
ENDROOT
BRANCH   1  13
ATOM     13  C   UNL     1       4.287  -4.125   0.000  0.00  0.00    +0.142 C 
BRANCH  13  15
ATOM     14  C   UNL     1       2.858  -4.125   0.000  0.00  0.00    +0.241 C 
ATOM     15  N   UNL     1       3.572  -3.712   0.000  0.00  0.00    -0.201 NA
ATOM     16  O   UNL     1       2.858  -4.950   0.000  0.00  0.00    -0.273 OA
BRANCH  14  18
ATOM     17  C   UNL     1       1.429  -4.125   0.000  0.00  0.00    +0.010 C 
ATOM     18  C   UNL     1       2.143  -3.712   0.000  0.00  0.00    +0.078 C 
ATOM     19  C   UNL     1       2.143  -2.888   0.000  0.00  0.00    +0.010 C 
ENDBRANCH  14  18
ENDBRANCH  13  15
ENDBRANCH   1  13
TORSDOF 3
