REMARK  Name = 
REMARK  4 active torsions:
REMARK  status: ('A' for Active; 'I' for Inactive)
REMARK    1  A    between atoms: N_6  and  C_7
REMARK    2  A    between atoms: C_7  and  C_8
REMARK    3  A    between atoms: C_8  and  C_10
REMARK    4  A    between atoms: C_19  and  C_20
REMARK                            x       y       z     vdW  Elec       q    Type
REMARK                         _______ _______ _______ _____ _____    ______ ____
ROOT
ATOM      1  C   UNL     1       1.429  -1.650   0.000  0.00  0.00    +0.031 C 
ATOM      2  C   UNL     1       1.429  -2.475   0.000  0.00  0.00    -0.012 A 
ATOM      3  C   UNL     1       0.715  -2.888   0.000  0.00  0.00    +0.109 A 
ATOM      4  C   UNL     1       0.715  -3.712   0.000  0.00  0.00    +0.265 A 
ATOM      5  O   UNL     1       0.000  -4.125   0.000  0.00  0.00    -0.267 OA
ATOM      6  N   UNL     1       1.429  -4.125   0.000  0.00  0.00    -0.296 N 
ATOM      7  C   UNL     1       2.143  -3.712   0.000  0.00  0.00    +0.040 A 
ATOM      8  C   UNL     1       2.858  -4.125   0.000  0.00  0.00    +0.050 C 
ATOM      9  C   UNL     1       2.143  -2.888   0.000  0.00  0.00    +0.009 A 
ENDROOT
BRANCH   3  10
ATOM     10  C   UNL     1       0.000  -2.475   0.000  0.00  0.00    +0.288 C 
ATOM     11  N   UNL     1      -0.715  -2.888   0.000  0.00  0.00    -0.084 NA
ATOM     12  O   UNL     1       0.000  -1.650   0.000  0.00  0.00    -0.267 OA
ENDBRANCH   3  10
BRANCH   6  13
ATOM     13  C   UNL     1       1.429  -4.950   0.000  0.00  0.00    +0.146 C 
BRANCH  13  14
ATOM     14  C   UNL     1       2.143  -5.362   0.000  0.00  0.00    +0.197 C 
ATOM     15  O   UNL     1       2.858  -4.950   0.000  0.00  0.00    -0.216 OA
BRANCH  14  16
ATOM     16  C   UNL     1       2.143  -6.188   0.000  0.00  0.00    +0.010 A 
ATOM     17  C   UNL     1       1.429  -6.600   0.000  0.00  0.00    -0.001 A 
ATOM     18  C   UNL     1       1.429  -7.425   0.000  0.00  0.00    +0.011 A 
ATOM     19  C   UNL     1       2.143  -7.838   0.000  0.00  0.00    +0.058 A 
ATOM     20 CL   UNL     1       2.143  -8.662   0.000  0.00  0.00    -0.082 Cl
ATOM     21  C   UNL     1       2.858  -7.425   0.000  0.00  0.00    +0.011 A 
ATOM     22  C   UNL     1       2.858  -6.600   0.000  0.00  0.00    -0.001 A 
ENDBRANCH  14  16
ENDBRANCH  13  14
ENDBRANCH   6  13
TORSDOF 4
