REMARK  Name = 
REMARK  2 active torsions:
REMARK  status: ('A' for Active; 'I' for Inactive)
REMARK    1  A    between atoms: C_2  and  O_3
REMARK    2  A    between atoms: O_3  and  C_4
REMARK                            x       y       z     vdW  Elec       q    Type
REMARK                         _______ _______ _______ _____ _____    ______ ____
ROOT
ATOM      1  C   UNL     1       0.715  -1.238   0.000  0.00  0.00    +0.135 C 
ATOM      2  C   UNL     1       0.000  -1.650   0.000  0.00  0.00    +0.122 C 
ATOM      3  N   UNL     1       0.000  -2.475   0.000  0.00  0.00    -0.291 N 
ATOM      4  C   UNL     1      -0.715  -2.888   0.000  0.00  0.00    +0.136 A 
ATOM      5  N   UNL     1      -1.429  -2.475   0.000  0.00  0.00    -0.196 NA
ATOM      6  C   UNL     1      -2.143  -2.888   0.000  0.00  0.00    +0.257 A 
ATOM      7  N   UNL     1      -2.858  -2.475   0.000  0.00  0.00    -0.086 NA
ATOM      8  N   UNL     1      -2.143  -3.712   0.000  0.00  0.00    -0.215 NA
ATOM      9  C   UNL     1      -1.429  -4.125   0.000  0.00  0.00    +0.065 A 
ATOM     10  C   UNL     1      -1.429  -4.950   0.000  0.00  0.00    +0.052 C 
ATOM     11  C   UNL     1      -0.715  -3.712   0.000  0.00  0.00    +0.049 A 
ATOM     12  C   UNL     1       0.715  -2.888   0.000  0.00  0.00    +0.092 C 
ATOM     13  C   UNL     1       1.429  -2.475   0.000  0.00  0.00    +0.024 C 
ATOM     14  C   UNL     1       1.429  -1.650   0.000  0.00  0.00    +0.033 C 
ENDROOT
BRANCH   1  15
ATOM     15  O   UNL     1       0.715  -0.412   0.000  0.00  0.00    -0.355 OA
BRANCH  15  17
ATOM     16  C   UNL     1       1.429   0.825   0.000  0.00  0.00    +0.035 C 
ATOM     17  C   UNL     1       1.429   0.000   0.000  0.00  0.00    +0.142 C 
ENDBRANCH  15  17
ENDBRANCH   1  15
TORSDOF 2
