REMARK  Name = 
REMARK  3 active torsions:
REMARK  status: ('A' for Active; 'I' for Inactive)
REMARK    1  A    between atoms: C_2  and  C_5
REMARK    2  A    between atoms: N_12  and  C_13
REMARK    3  A    between atoms: C_17  and  C_19
REMARK                            x       y       z     vdW  Elec       q    Type
REMARK                         _______ _______ _______ _____ _____    ______ ____
ROOT
ATOM      1  C   UNL     1       0.412   8.139   0.000  0.00  0.00    +0.080 A 
ATOM      2  N   UNL     1      -0.302   7.727   0.000  0.00  0.00    -0.151 NA
ATOM      3  N   UNL     1      -0.302   6.902   0.000  0.00  0.00    -0.131 NA
ATOM      4  C   UNL     1       0.412   6.489   0.000  0.00  0.00    +0.177 A 
ATOM      5  N   UNL     1       0.412   5.665   0.000  0.00  0.00    -0.140 NA
ATOM      6  C   UNL     1       1.127   5.252   0.000  0.00  0.00    +0.345 C 
ATOM      7  N   UNL     1       1.127   4.427   0.000  0.00  0.00    -0.188 NA
ATOM      8  O   UNL     1       1.841   5.665   0.000  0.00  0.00    -0.249 OA
ATOM      9  C   UNL     1       1.127   6.902   0.000  0.00  0.00    +0.039 A 
ATOM     10  C   UNL     1       1.127   7.727   0.000  0.00  0.00    +0.019 A 
ENDROOT
BRANCH   7  11
ATOM     11  C   UNL     1       1.841   4.014   0.000  0.00  0.00    +0.102 C 
ATOM     12  C   UNL     1       1.841   3.189   0.000  0.00  0.00    +0.051 C 
ATOM     13  C   UNL     1       2.556   2.777   0.000  0.00  0.00    +0.117 C 
ATOM     14  O   UNL     1       3.270   3.189   0.000  0.00  0.00    -0.356 OA
ATOM     15  C   UNL     1       3.270   4.014   0.000  0.00  0.00    +0.144 C 
ATOM     16  C   UNL     1       2.556   4.427   0.000  0.00  0.00    +0.054 C 
BRANCH  13  17
ATOM     17  C   UNL     1       2.556   1.952   0.000  0.00  0.00    +0.027 C 
ATOM     18  C   UNL     1       2.143   1.238   0.000  0.00  0.00    +0.002 C 
ATOM     19  C   UNL     1       2.968   1.238   0.000  0.00  0.00    +0.002 C 
ENDBRANCH  13  17
ENDBRANCH   7  11
BRANCH   1  21
ATOM     20  C   UNL     1       0.412   9.790   0.000  0.00  0.00    +0.006 C 
ATOM     21  C   UNL     1       0.412   8.964   0.000  0.00  0.00    +0.037 C 
ATOM     22  C   UNL     1       1.238   8.964   0.000  0.00  0.00    +0.006 C 
ATOM     23  C   UNL     1      -0.412   8.964   0.000  0.00  0.00    +0.006 C 
ENDBRANCH   1  21
TORSDOF 3
