REMARK  Name = 
REMARK  5 active torsions:
REMARK  status: ('A' for Active; 'I' for Inactive)
REMARK    1  A    between atoms: C_2  and  N_3
REMARK    2  A    between atoms: N_5  and  C_6
REMARK    3  A    between atoms: N_8  and  C_9
REMARK    4  A    between atoms: C_9  and  C_10
REMARK    5  A    between atoms: C_10  and  C_11
REMARK                            x       y       z     vdW  Elec       q    Type
REMARK                         _______ _______ _______ _____ _____    ______ ____
ROOT
ATOM      1  N   UNL     1      -0.861   4.414   0.000  0.00  0.00    -0.092 NA
ATOM      2  C   UNL     1      -0.861   3.589   0.000  0.00  0.00    +0.454 C 
ATOM      3  N   UNL     1      -0.147   3.177   0.000  0.00  0.00    -0.092 NA
ATOM      4  N   UNL     1      -1.576   3.177   0.000  0.00  0.00    -0.092 NA
ENDROOT
BRANCH   1   6
ATOM      5  C   UNL     1      -1.576   5.652   0.000  0.00  0.00    +0.051 C 
ATOM      6  C   UNL     1      -1.576   4.827   0.000  0.00  0.00    +0.220 C 
ENDBRANCH   1   6
BRANCH   4   7
ATOM      7  C   UNL     1      -2.290   3.589   0.000  0.00  0.00    +0.220 C 
ATOM      8  C   UNL     1      -3.005   3.177   0.000  0.00  0.00    +0.051 C 
ENDBRANCH   4   7
BRANCH   3   9
ATOM      9  C   UNL     1      -0.147   2.352   0.000  0.00  0.00    +0.227 C 
BRANCH   9  10
ATOM     10  C   UNL     1       0.568   1.939   0.000  0.00  0.00    +0.099 C 
BRANCH  10  11
ATOM     11  C   UNL     1       0.568   1.114   0.000  0.00  0.00    +0.092 A 
ATOM     12  S   UNL     1      -0.100   0.629   0.000  0.00  0.00    -0.070 S 
ATOM     13  C   UNL     1       0.155  -0.155   0.000  0.00  0.00    +0.057 A 
ATOM     14  C   UNL     1       0.980  -0.155   0.000  0.00  0.00    +0.106 A 
ATOM     15  N   UNL     1       1.235   0.629   0.000  0.00  0.00    -0.241 NA
ENDBRANCH  10  11
ENDBRANCH   9  10
ENDBRANCH   3   9
TORSDOF 5
