REMARK  Name = 
REMARK  4 active torsions:
REMARK  status: ('A' for Active; 'I' for Inactive)
REMARK    1  A    between atoms: C_7  and  N_8
REMARK    2  A    between atoms: C_9  and  C_11
REMARK    3  A    between atoms: C_11  and  N_12
REMARK    4  A    between atoms: C_16  and  C_19
REMARK                            x       y       z     vdW  Elec       q    Type
REMARK                         _______ _______ _______ _____ _____    ______ ____
ROOT
ATOM      1  C   UNL     1      -4.287  -2.475   0.000  0.00  0.00    +0.196 C 
ENDROOT
BRANCH   1   2
ATOM      2  N   UNL     1      -5.001  -2.888   0.000  0.00  0.00    -0.285 N 
ATOM      3  C   UNL     1      -5.716  -2.475   0.000  0.00  0.00    +0.265 A 
ATOM      4  O   UNL     1      -5.716  -1.650   0.000  0.00  0.00    -0.267 OA
ATOM      5  C   UNL     1      -6.430  -2.888   0.000  0.00  0.00    +0.127 A 
ATOM      6  C   UNL     1      -6.430  -3.712   0.000  0.00  0.00    +0.010 A 
ATOM      7  C   UNL     1      -5.716  -4.125   0.000  0.00  0.00    +0.019 A 
ATOM      8  C   UNL     1      -5.001  -3.712   0.000  0.00  0.00    +0.079 A 
BRANCH   5   9
ATOM      9  C   UNL     1      -7.145  -2.475   0.000  0.00  0.00    +0.423 C 
ATOM     10  F   UNL     1      -7.557  -3.189   0.000  0.00  0.00    -0.166 F 
ATOM     11  F   UNL     1      -6.732  -1.760   0.000  0.00  0.00    -0.166 F 
ATOM     12  F   UNL     1      -7.859  -2.062   0.000  0.00  0.00    -0.166 F 
ENDBRANCH   5   9
ENDBRANCH   1   2
BRANCH   1  14
ATOM     13  N   UNL     1      -2.858  -2.475   0.000  0.00  0.00    -0.206 NA
ATOM     14  C   UNL     1      -3.572  -2.888   0.000  0.00  0.00    +0.264 C 
ATOM     15  O   UNL     1      -3.572  -3.712   0.000  0.00  0.00    -0.271 OA
BRANCH  13  18
ATOM     16  C   UNL     1      -1.429  -1.650   0.000  0.00  0.00    +0.002 C 
ATOM     17  C   UNL     1      -1.429  -2.475   0.000  0.00  0.00    +0.020 C 
ATOM     18  C   UNL     1      -2.143  -2.888   0.000  0.00  0.00    +0.095 C 
ATOM     19  C   UNL     1      -2.143  -3.712   0.000  0.00  0.00    +0.022 C 
ATOM     20  C   UNL     1      -1.429  -4.125   0.000  0.00  0.00    +0.002 C 
ATOM     21  C   UNL     1      -0.715  -3.712   0.000  0.00  0.00    +0.000 C 
ATOM     22  C   UNL     1      -0.715  -2.888   0.000  0.00  0.00    +0.002 C 
ENDBRANCH  13  18
ENDBRANCH   1  14
TORSDOF 4
