REMARK  Name = 
REMARK  4 active torsions:
REMARK  status: ('A' for Active; 'I' for Inactive)
REMARK    1  A    between atoms: C_2  and  C_4
REMARK    2  A    between atoms: C_4  and  N_5
REMARK    3  A    between atoms: N_8  and  C_9
REMARK    4  A    between atoms: C_9  and  C_10
REMARK                            x       y       z     vdW  Elec       q    Type
REMARK                         _______ _______ _______ _____ _____    ______ ____
ROOT
ATOM      1  C   UNL     1       7.145  -4.950   0.000  0.00  0.00    +0.004 A 
ATOM      2  C   UNL     1       7.859  -5.362   0.000  0.00  0.00    +0.032 A 
ATOM      3  C   UNL     1       8.574  -4.950   0.000  0.00  0.00    +0.132 A 
ATOM      4  N   UNL     1       9.288  -5.362   0.000  0.00  0.00    -0.288 N 
ATOM      5  C   UNL     1       9.288  -6.188   0.000  0.00  0.00    +0.124 C 
ATOM      6  C   UNL     1      10.003  -6.600   0.000  0.00  0.00    +0.164 C 
ATOM      7  O   UNL     1      10.717  -6.188   0.000  0.00  0.00    -0.350 OA
ATOM      8  C   UNL     1      10.717  -5.362   0.000  0.00  0.00    +0.164 C 
ATOM      9  C   UNL     1      10.003  -4.950   0.000  0.00  0.00    +0.124 C 
ATOM     10  N   UNL     1       8.574  -4.125   0.000  0.00  0.00    -0.229 NA
ATOM     11  C   UNL     1       7.859  -3.712   0.000  0.00  0.00    +0.100 A 
ATOM     12  C   UNL     1       7.145  -4.125   0.000  0.00  0.00    +0.018 A 
ENDROOT
BRANCH   1  13
ATOM     13  C   UNL     1       6.430  -5.362   0.000  0.00  0.00    +0.143 C 
BRANCH  13  16
ATOM     14  N   UNL     1       4.287  -4.950   0.000  0.00  0.00    -0.187 NA
ATOM     15  C   UNL     1       5.001  -5.362   0.000  0.00  0.00    +0.340 C 
ATOM     16  N   UNL     1       5.716  -4.950   0.000  0.00  0.00    -0.182 NA
ATOM     17  O   UNL     1       5.001  -6.188   0.000  0.00  0.00    -0.249 OA
BRANCH  14  18
ATOM     18  C   UNL     1       3.572  -5.362   0.000  0.00  0.00    +0.117 C 
BRANCH  18  20
ATOM     19  C   UNL     1       2.143  -5.362   0.000  0.00  0.00    +0.002 C 
ATOM     20  C   UNL     1       2.858  -4.950   0.000  0.00  0.00    +0.022 C 
ATOM     21  C   UNL     1       2.858  -4.125   0.000  0.00  0.00    +0.002 C 
ENDBRANCH  18  20
ENDBRANCH  14  18
ENDBRANCH  13  16
ENDBRANCH   1  13
TORSDOF 4
