REMARK  Name = 
REMARK  5 active torsions:
REMARK  status: ('A' for Active; 'I' for Inactive)
REMARK    1  A    between atoms: C_7  and  C_8
REMARK    2  A    between atoms: C_8  and  N_9
REMARK    3  A    between atoms: N_9  and  C_10
REMARK    4  A    between atoms: C_10  and  C_11
REMARK    5  A    between atoms: C_11  and  C_13
REMARK                            x       y       z     vdW  Elec       q    Type
REMARK                         _______ _______ _______ _____ _____    ______ ____
ROOT
ATOM      1  N   UNL     1       1.429  -2.475   0.000  0.00  0.00    -0.215 NA
ENDROOT
BRANCH   1   2
ATOM      2  C   UNL     1       0.715  -2.888   0.000  0.00  0.00    +0.089 C 
BRANCH   2   5
ATOM      3  C   UNL     1      -0.715  -3.712   0.000  0.00  0.00    +0.000 C 
ATOM      4  C   UNL     1      -0.715  -2.888   0.000  0.00  0.00    +0.001 C 
ATOM      5  C   UNL     1       0.000  -2.475   0.000  0.00  0.00    +0.017 C 
ATOM      6  C   UNL     1       0.000  -1.650   0.000  0.00  0.00    +0.001 C 
ATOM      7  C   UNL     1      -0.715  -1.238   0.000  0.00  0.00    +0.000 C 
ATOM      8  C   UNL     1      -1.429  -1.650   0.000  0.00  0.00    +0.000 C 
ATOM      9  C   UNL     1      -1.429  -2.475   0.000  0.00  0.00    +0.000 C 
ENDBRANCH   2   5
ENDBRANCH   1   2
BRANCH   1  10
ATOM     10  C   UNL     1       2.143  -2.888   0.000  0.00  0.00    +0.126 C 
BRANCH  10  11
ATOM     11  C   UNL     1       2.858  -2.475   0.000  0.00  0.00    +0.192 C 
ATOM     12  O   UNL     1       2.858  -1.650   0.000  0.00  0.00    -0.217 OA
BRANCH  11  13
ATOM     13  C   UNL     1       3.572  -2.888   0.000  0.00  0.00    +0.012 A 
ATOM     14  C   UNL     1       3.572  -3.712   0.000  0.00  0.00    +0.019 A 
ATOM     15  C   UNL     1       4.287  -4.125   0.000  0.00  0.00    +0.099 A 
ATOM     16  N   UNL     1       5.001  -3.712   0.000  0.00  0.00    -0.242 NA
ATOM     17  C   UNL     1       5.001  -2.888   0.000  0.00  0.00    +0.099 A 
ATOM     18  C   UNL     1       4.287  -2.475   0.000  0.00  0.00    +0.019 A 
ENDBRANCH  11  13
ENDBRANCH  10  11
ENDBRANCH   1  10
TORSDOF 5
