REMARK  Name = 
REMARK  4 active torsions:
REMARK  status: ('A' for Active; 'I' for Inactive)
REMARK    1  A    between atoms: C_7  and  N_10
REMARK    2  A    between atoms: N_13  and  C_14
REMARK    3  A    between atoms: C_14  and  C_15
REMARK    4  A    between atoms: C_15  and  C_16
REMARK                            x       y       z     vdW  Elec       q    Type
REMARK                         _______ _______ _______ _____ _____    ______ ____
ROOT
ATOM      1  N   UNL     1       0.715   2.062   0.000  0.00  0.00    -0.189 NA
ATOM      2  C   UNL     1       1.429   2.475   0.000  0.00  0.00    +0.339 C 
ATOM      3  N   UNL     1       2.143   2.062   0.000  0.00  0.00    -0.187 NA
ATOM      4  O   UNL     1       1.429   3.300   0.000  0.00  0.00    -0.249 OA
ENDROOT
BRANCH   1  10
ATOM      5  C   UNL     1      -2.858   3.300   0.000  0.00  0.00    +0.095 C 
ATOM      6  C   UNL     1      -2.143   3.712   0.000  0.00  0.00    +0.226 C 
ATOM      7  N   UNL     1      -1.429   3.300   0.000  0.00  0.00    -0.279 N 
ATOM      8  C   UNL     1      -1.429   2.475   0.000  0.00  0.00    +0.095 C 
ATOM      9  C   UNL     1      -0.715   2.062   0.000  0.00  0.00    +0.043 C 
ATOM     10  C   UNL     1       0.000   2.475   0.000  0.00  0.00    +0.100 C 
ATOM     11  C   UNL     1       0.000   3.300   0.000  0.00  0.00    +0.043 C 
ATOM     12  C   UNL     1      -0.715   3.712   0.000  0.00  0.00    +0.095 C 
ATOM     13  O   UNL     1      -2.143   4.537   0.000  0.00  0.00    -0.275 OA
ENDBRANCH   1  10
BRANCH   3  14
ATOM     14  C   UNL     1       2.858   2.475   0.000  0.00  0.00    +0.122 C 
BRANCH  14  15
ATOM     15  C   UNL     1       3.572   2.062   0.000  0.00  0.00    +0.053 C 
BRANCH  15  16
ATOM     16  C   UNL     1       4.287   2.475   0.000  0.00  0.00    +0.019 A 
ATOM     17  C   UNL     1       5.040   2.139   0.000  0.00  0.00    +0.092 A 
ATOM     18  N   UNL     1       5.593   2.752   0.000  0.00  0.00    -0.248 N 
ATOM     19  C   UNL     1       6.413   2.666   0.000  0.00  0.00    +0.154 C 
ATOM     20  N   UNL     1       5.180   3.467   0.000  0.00  0.00    -0.168 NA
ATOM     21  C   UNL     1       4.373   3.296   0.000  0.00  0.00    +0.117 A 
ENDBRANCH  15  16
ENDBRANCH  14  15
ENDBRANCH   3  14
TORSDOF 4
