REMARK  Name = 
REMARK  4 active torsions:
REMARK  status: ('A' for Active; 'I' for Inactive)
REMARK    1  A    between atoms: C_2  and  C_3
REMARK    2  A    between atoms: C_2  and  C_13
REMARK    3  A    between atoms: N_5  and  C_6
REMARK    4  A    between atoms: C_6  and  C_11
REMARK                            x       y       z     vdW  Elec       q    Type
REMARK                         _______ _______ _______ _____ _____    ______ ____
ROOT
ATOM      1  C   UNL     1      -2.164  -0.583   0.000  0.00  0.00    +0.014 C 
ATOM      2  C   UNL     1      -2.418  -1.367   0.000  0.00  0.00    +0.103 C 
ENDROOT
BRANCH   2   3
ATOM      3  C   UNL     1      -3.225  -1.539   0.000  0.00  0.00    +0.015 A 
ATOM      4  C   UNL     1      -3.839  -0.987   0.000  0.00  0.00    +0.054 A 
ATOM      5  C   UNL     1      -3.752  -0.166   0.000  0.00  0.00    +0.051 C 
ATOM      6  N   UNL     1      -4.553  -1.399   0.000  0.00  0.00    -0.253 N 
ATOM      7  C   UNL     1      -5.307  -1.064   0.000  0.00  0.00    +0.153 C 
ATOM      8  N   UNL     1      -4.382  -2.206   0.000  0.00  0.00    -0.174 NA
ATOM      9  C   UNL     1      -3.561  -2.292   0.000  0.00  0.00    +0.077 A 
ATOM     10  C   UNL     1      -3.149  -3.007   0.000  0.00  0.00    +0.054 C 
ENDBRANCH   2   3
BRANCH   2  11
ATOM     11  C   UNL     1      -1.867  -1.980   0.000  0.00  0.00    +0.246 C 
ATOM     12  N   UNL     1      -1.060  -1.809   0.000  0.00  0.00    -0.194 NA
ATOM     13  O   UNL     1      -2.122  -2.765   0.000  0.00  0.00    -0.273 OA
BRANCH  12  14
ATOM     14  C   UNL     1      -0.507  -2.422   0.000  0.00  0.00    +0.157 C 
ATOM     15  C   UNL     1      -1.175  -2.907   0.000  0.00  0.00    +0.034 C 
ATOM     16  C   UNL     1      -0.920  -3.692   0.000  0.00  0.00    +0.003 C 
ATOM     17  C   UNL     1      -0.095  -3.692   0.000  0.00  0.00    +0.003 C 
ATOM     18  C   UNL     1       0.160  -2.907   0.000  0.00  0.00    +0.034 C 
BRANCH  14  19
ATOM     19  C   UNL     1       0.044  -1.809   0.000  0.00  0.00    +0.091 C 
ATOM     20  N   UNL     1       0.597  -1.196   0.000  0.00  0.00    -0.194 NA
ENDBRANCH  14  19
ENDBRANCH  12  14
ENDBRANCH   2  11
TORSDOF 4
