REMARK  Name = 
REMARK  5 active torsions:
REMARK  status: ('A' for Active; 'I' for Inactive)
REMARK    1  A    between atoms: N_6  and  C_7
REMARK    2  A    between atoms: C_7  and  C_8
REMARK    3  A    between atoms: C_8  and  O_9
REMARK    4  A    between atoms: O_9  and  C_10
REMARK    5  A    between atoms: C_10  and  C_11
REMARK                            x       y       z     vdW  Elec       q    Type
REMARK                         _______ _______ _______ _____ _____    ______ ____
ROOT
ATOM      1 CL   UNL     1      -2.143   0.412   0.000  0.00  0.00    -0.079 Cl
ATOM      2  C   UNL     1      -1.429   0.825   0.000  0.00  0.00    +0.096 A 
ATOM      3  C   UNL     1      -0.715   0.412   0.000  0.00  0.00    +0.115 A 
ATOM      4  N   UNL     1       0.000   0.825   0.000  0.00  0.00    -0.210 NA
ATOM      5  C   UNL     1       0.000   1.650   0.000  0.00  0.00    +0.237 A 
ATOM      6  N   UNL     1       0.715   2.062   0.000  0.00  0.00    -0.201 NA
ATOM      7  N   UNL     1      -0.715   2.062   0.000  0.00  0.00    -0.210 NA
ATOM      8  C   UNL     1      -1.429   1.650   0.000  0.00  0.00    +0.115 A 
ENDROOT
BRANCH   6   9
ATOM      9  C   UNL     1       1.429   1.650   0.000  0.00  0.00    +0.147 C 
BRANCH   9  10
ATOM     10  C   UNL     1       2.143   2.062   0.000  0.00  0.00    +0.166 C 
BRANCH  10  11
ATOM     11  O   UNL     1       2.858   1.650   0.000  0.00  0.00    -0.352 OA
BRANCH  11  12
ATOM     12  C   UNL     1       3.572   2.062   0.000  0.00  0.00    +0.142 C 
BRANCH  12  13
ATOM     13  C   UNL     1       4.287   1.650   0.000  0.00  0.00    +0.030 C 
ATOM     14  C   UNL     1       4.699   0.935   0.000  0.00  0.00    +0.003 C 
ATOM     15  C   UNL     1       5.112   1.650   0.000  0.00  0.00    +0.003 C 
ENDBRANCH  12  13
ENDBRANCH  11  12
ENDBRANCH  10  11
ENDBRANCH   9  10
ENDBRANCH   6   9
TORSDOF 5
