REMARK  Name = 
REMARK  4 active torsions:
REMARK  status: ('A' for Active; 'I' for Inactive)
REMARK    1  A    between atoms: O_2  and  C_3
REMARK    2  A    between atoms: N_11  and  C_12
REMARK    3  A    between atoms: C_12  and  C_13
REMARK    4  A    between atoms: C_13  and  C_14
REMARK                            x       y       z     vdW  Elec       q    Type
REMARK                         _______ _______ _______ _____ _____    ______ ____
ROOT
ATOM      1  C   UNL     1      -1.429  -1.650   0.000  0.00  0.00    +0.119 C 
ATOM      2  C   UNL     1      -1.429  -2.475   0.000  0.00  0.00    +0.051 C 
ATOM      3  C   UNL     1      -0.715  -2.888   0.000  0.00  0.00    +0.097 C 
ATOM      4  N   UNL     1       0.000  -2.475   0.000  0.00  0.00    -0.263 N 
ATOM      5  C   UNL     1       0.715  -2.888   0.000  0.00  0.00    +0.323 C 
ATOM      6  N   UNL     1       1.429  -2.475   0.000  0.00  0.00    -0.188 NA
ATOM      7  O   UNL     1       0.715  -3.712   0.000  0.00  0.00    -0.251 OA
ATOM      8  C   UNL     1       0.000  -1.650   0.000  0.00  0.00    +0.097 C 
ATOM      9  C   UNL     1      -0.715  -1.238   0.000  0.00  0.00    +0.051 C 
ENDROOT
BRANCH   1  11
ATOM     10  C   UNL     1      -2.858  -1.650   0.000  0.00  0.00    +0.174 C 
ATOM     11  O   UNL     1      -2.143  -1.238   0.000  0.00  0.00    -0.353 OA
ENDBRANCH   1  11
BRANCH   6  12
ATOM     12  C   UNL     1       2.143  -2.888   0.000  0.00  0.00    +0.123 C 
BRANCH  12  13
ATOM     13  C   UNL     1       2.858  -2.475   0.000  0.00  0.00    +0.069 C 
BRANCH  13  14
ATOM     14  C   UNL     1       3.572  -2.888   0.000  0.00  0.00    +0.061 A 
ATOM     15  N   UNL     1       3.572  -3.712   0.000  0.00  0.00    -0.248 NA
ATOM     16  C   UNL     1       4.287  -4.125   0.000  0.00  0.00    +0.098 A 
ATOM     17  C   UNL     1       5.001  -3.712   0.000  0.00  0.00    +0.021 A 
ATOM     18  C   UNL     1       5.001  -2.888   0.000  0.00  0.00    +0.003 A 
ATOM     19  C   UNL     1       4.287  -2.475   0.000  0.00  0.00    +0.015 A 
ENDBRANCH  13  14
ENDBRANCH  12  13
ENDBRANCH   6  12
TORSDOF 4
