REMARK  Name = 
REMARK  5 active torsions:
REMARK  status: ('A' for Active; 'I' for Inactive)
REMARK    1  A    between atoms: C_2  and  C_4
REMARK    2  A    between atoms: C_4  and  N_5
REMARK    3  A    between atoms: C_8  and  N_11
REMARK    4  A    between atoms: C_12  and  C_14
REMARK    5  A    between atoms: C_14  and  C_15
REMARK                            x       y       z     vdW  Elec       q    Type
REMARK                         _______ _______ _______ _____ _____    ______ ____
ROOT
ATOM      1  N   UNL     1      -2.143  -3.712   0.000  0.00  0.00    -0.207 NA
ATOM      2  C   UNL     1      -2.858  -4.125   0.000  0.00  0.00    +0.246 C 
ATOM      3  O   UNL     1      -3.572  -3.712   0.000  0.00  0.00    -0.273 OA
ENDROOT
BRANCH   1   7
ATOM      4  N   UNL     1      -2.143  -1.238   0.000  0.00  0.00    -0.273 NA
ATOM      5  C   UNL     1      -2.858  -1.650   0.000  0.00  0.00    +0.074 C 
ATOM      6  C   UNL     1      -2.858  -2.475   0.000  0.00  0.00    +0.039 C 
ATOM      7  C   UNL     1      -2.143  -2.888   0.000  0.00  0.00    +0.098 C 
ATOM      8  C   UNL     1      -1.429  -2.475   0.000  0.00  0.00    +0.039 C 
ATOM      9  C   UNL     1      -1.429  -1.650   0.000  0.00  0.00    +0.074 C 
BRANCH   4  10
ATOM     10  C   UNL     1      -2.143  -0.412   0.000  0.00  0.00    +0.072 C 
BRANCH  10  12
ATOM     11  C   UNL     1      -2.858   0.825   0.000  0.00  0.00    +0.001 C 
ATOM     12  C   UNL     1      -2.858   0.000   0.000  0.00  0.00    +0.016 C 
ATOM     13  C   UNL     1      -3.572  -0.412   0.000  0.00  0.00    +0.001 C 
ENDBRANCH  10  12
ENDBRANCH   4  10
ENDBRANCH   1   7
BRANCH   2  14
ATOM     14  C   UNL     1      -2.858  -4.950   0.000  0.00  0.00    +0.115 C 
BRANCH  14  15
ATOM     15  C   UNL     1      -2.143  -5.362   0.000  0.00  0.00    +0.006 A 
ATOM     16  C   UNL     1      -2.143  -6.188   0.000  0.00  0.00    +0.095 A 
ATOM     17  N   UNL     1      -1.429  -6.600   0.000  0.00  0.00    -0.248 NA
ATOM     18  C   UNL     1      -0.715  -6.188   0.000  0.00  0.00    +0.059 A 
ATOM     19  C   UNL     1       0.000  -6.600   0.000  0.00  0.00    +0.052 C 
ATOM     20  C   UNL     1      -0.715  -5.362   0.000  0.00  0.00    +0.014 A 
ATOM     21  C   UNL     1      -1.429  -4.950   0.000  0.00  0.00    -0.001 A 
ENDBRANCH  14  15
ENDBRANCH   2  14
TORSDOF 5
