REMARK  Name = 
REMARK  3 active torsions:
REMARK  status: ('A' for Active; 'I' for Inactive)
REMARK    1  A    between atoms: N_10  and  C_11
REMARK    2  A    between atoms: C_11  and  C_12
REMARK    3  A    between atoms: C_12  and  C_13
REMARK                            x       y       z     vdW  Elec       q    Type
REMARK                         _______ _______ _______ _____ _____    ______ ____
ROOT
ATOM      1  C   UNL     1       1.429  -2.475   0.000  0.00  0.00    +0.024 C 
ATOM      2  C   UNL     1       0.715  -2.062   0.000  0.00  0.00    +0.107 C 
ATOM      3  N   UNL     1       0.715  -1.238   0.000  0.00  0.00    -0.259 N 
ATOM      4  C   UNL     1       1.429  -0.825   0.000  0.00  0.00    +0.323 C 
ATOM      5  N   UNL     1       2.143  -1.238   0.000  0.00  0.00    -0.188 NA
ATOM      6  O   UNL     1       1.429   0.000   0.000  0.00  0.00    -0.251 OA
ATOM      7  C   UNL     1       0.000  -0.825   0.000  0.00  0.00    +0.127 C 
ATOM      8  C   UNL     1      -0.715  -1.238   0.000  0.00  0.00    +0.164 C 
ATOM      9  O   UNL     1      -0.715  -2.062   0.000  0.00  0.00    -0.350 OA
ATOM     10  C   UNL     1       0.000  -2.475   0.000  0.00  0.00    +0.162 C 
ENDROOT
BRANCH   5  11
ATOM     11  C   UNL     1       2.858  -0.825   0.000  0.00  0.00    +0.123 C 
BRANCH  11  12
ATOM     12  C   UNL     1       3.572  -1.238   0.000  0.00  0.00    +0.070 C 
BRANCH  12  13
ATOM     13  C   UNL     1       4.287  -0.825   0.000  0.00  0.00    +0.067 A 
ATOM     14  N   UNL     1       5.040  -1.161   0.000  0.00  0.00    -0.247 NA
ATOM     15  C   UNL     1       5.593  -0.547   0.000  0.00  0.00    +0.088 A 
ATOM     16  C   UNL     1       6.413  -0.634   0.000  0.00  0.00    +0.059 C 
ATOM     17  S   UNL     1       5.180   0.167   0.000  0.00  0.00    -0.071 S 
ATOM     18  C   UNL     1       4.373  -0.004   0.000  0.00  0.00    +0.051 A 
ENDBRANCH  12  13
ENDBRANCH  11  12
ENDBRANCH   5  11
TORSDOF 3
