REMARK  Name = 
REMARK  5 active torsions:
REMARK  status: ('A' for Active; 'I' for Inactive)
REMARK    1  A    between atoms: C_2  and  N_4
REMARK    2  A    between atoms: N_3  and  C_11
REMARK    3  A    between atoms: C_11  and  C_13
REMARK    4  A    between atoms: C_13  and  C_23
REMARK    5  A    between atoms: C_20  and  O_24
REMARK                            x       y       z     vdW  Elec       q    Type
REMARK                         _______ _______ _______ _____ _____    ______ ____
ROOT
ATOM      1  C   UNL     1       4.067   0.954   0.000  0.00  0.00    +0.149 A 
ATOM      2  N   UNL     1       3.279   1.208   0.000  0.00  0.00    -0.219 NA
ATOM      3  C   UNL     1       2.796   0.542   0.000  0.00  0.00    +0.180 A 
ATOM      4  N   UNL     1       3.279  -0.125   0.000  0.00  0.00    -0.294 N 
ATOM      5  C   UNL     1       4.067   0.129   0.000  0.00  0.00    +0.167 A 
ATOM      6  N   UNL     1       4.779  -0.283   0.000  0.00  0.00    -0.205 NA
ATOM      7  C   UNL     1       5.492   0.129   0.000  0.00  0.00    +0.201 A 
ATOM      8  N   UNL     1       5.492   0.954   0.000  0.00  0.00    -0.207 NA
ATOM      9  C   UNL     1       4.779   1.367   0.000  0.00  0.00    +0.154 A 
ENDROOT
BRANCH   9  10
ATOM     10  N   UNL     1       4.779   2.192   0.000  0.00  0.00    -0.289 N 
ATOM     11  C   UNL     1       5.492   2.604   0.000  0.00  0.00    +0.124 C 
ATOM     12  C   UNL     1       5.492   3.429   0.000  0.00  0.00    +0.163 C 
ATOM     13  O   UNL     1       4.779   3.842   0.000  0.00  0.00    -0.353 OA
ATOM     14  C   UNL     1       4.067   3.429   0.000  0.00  0.00    +0.133 C 
ATOM     15  C   UNL     1       3.350   3.842   0.000  0.00  0.00    +0.034 C 
ATOM     16  C   UNL     1       2.638   3.429   0.000  0.00  0.00    +0.032 C 
ATOM     17  C   UNL     1       2.638   2.604   0.000  0.00  0.00    +0.117 C 
ATOM     18  C   UNL     1       3.350   2.192   0.000  0.00  0.00    +0.052 C 
ATOM     19  C   UNL     1       4.067   2.604   0.000  0.00  0.00    +0.104 C 
BRANCH  17  20
ATOM     20  O   UNL     1       1.921   2.192   0.000  0.00  0.00    -0.354 OA
ATOM     21  C   UNL     1       1.208   2.604   0.000  0.00  0.00    +0.174 C 
ENDBRANCH  17  20
ENDBRANCH   9  10
BRANCH   4  22
ATOM     22  C   UNL     1       3.025  -0.912   0.000  0.00  0.00    +0.112 C 
BRANCH  22  23
ATOM     23  C   UNL     1       3.579  -1.525   0.000  0.00  0.00    +0.056 C 
ATOM     24  C   UNL     1       4.083  -0.875   0.000  0.00  0.00    +0.037 C 
ATOM     25  C   UNL     1       4.900  -0.988   0.000  0.00  0.00    +0.142 C 
ATOM     26  O   UNL     1       5.213  -1.754   0.000  0.00  0.00    -0.354 OA
ATOM     27  C   UNL     1       4.704  -2.404   0.000  0.00  0.00    +0.142 C 
ATOM     28  C   UNL     1       3.888  -2.288   0.000  0.00  0.00    +0.037 C 
BRANCH  23  29
ATOM     29  C   UNL     1       2.879  -1.962   0.000  0.00  0.00    +0.184 C 
ATOM     30  O   UNL     1       2.908  -2.783   0.000  0.00  0.00    -0.220 OA
ENDBRANCH  23  29
ENDBRANCH  22  23
ENDBRANCH   4  22
TORSDOF 5
