REMARK  Name = 
REMARK  3 active torsions:
REMARK  status: ('A' for Active; 'I' for Inactive)
REMARK    1  A    between atoms: C_7  and  N_8
REMARK    2  A    between atoms: N_11  and  C_12
REMARK    3  A    between atoms: N_15  and  C_18
REMARK                            x       y       z     vdW  Elec       q    Type
REMARK                         _______ _______ _______ _____ _____    ______ ____
ROOT
ATOM      1  N   UNL     1       0.000   8.004   0.000  0.00  0.00    -0.160 NA
ATOM      2  C   UNL     1       0.000   7.179   0.000  0.00  0.00    +0.343 C 
ATOM      3  N   UNL     1       0.715   6.766   0.000  0.00  0.00    -0.189 NA
ATOM      4  O   UNL     1      -0.715   6.766   0.000  0.00  0.00    -0.249 OA
ENDROOT
BRANCH   1   7
ATOM      5  C   UNL     1      -1.429   7.179   0.000  0.00  0.00    +0.032 C 
ATOM      6  C   UNL     1      -1.429   8.004   0.000  0.00  0.00    -0.003 A 
ATOM      7  C   UNL     1      -0.715   8.416   0.000  0.00  0.00    +0.090 A 
ATOM      8  C   UNL     1      -0.715   9.241   0.000  0.00  0.00    +0.115 A 
ATOM      9  N   UNL     1      -1.429   9.654   0.000  0.00  0.00    -0.241 NA
ATOM     10  C   UNL     1      -2.143   9.241   0.000  0.00  0.00    +0.099 A 
ATOM     11  C   UNL     1      -2.143   8.416   0.000  0.00  0.00    +0.018 A 
ENDBRANCH   1   7
BRANCH   3  12
ATOM     12  C   UNL     1       0.715   5.941   0.000  0.00  0.00    +0.100 C 
ATOM     13  C   UNL     1       0.000   5.529   0.000  0.00  0.00    +0.039 C 
ATOM     14  C   UNL     1       0.000   4.704   0.000  0.00  0.00    +0.074 C 
ATOM     15  N   UNL     1       0.715   4.291   0.000  0.00  0.00    -0.274 NA
ATOM     16  C   UNL     1       1.429   4.704   0.000  0.00  0.00    +0.074 C 
ATOM     17  C   UNL     1       1.429   5.529   0.000  0.00  0.00    +0.039 C 
BRANCH  15  18
ATOM     18  C   UNL     1       0.715   3.466   0.000  0.00  0.00    +0.058 C 
ATOM     19  C   UNL     1       0.047   2.981   0.000  0.00  0.00    +0.016 C 
ATOM     20  C   UNL     1       0.302   2.196   0.000  0.00  0.00    +0.001 C 
ATOM     21  C   UNL     1       1.127   2.196   0.000  0.00  0.00    +0.001 C 
ATOM     22  C   UNL     1       1.382   2.981   0.000  0.00  0.00    +0.016 C 
ENDBRANCH  15  18
ENDBRANCH   3  12
TORSDOF 3
