REMARK  Name = 
REMARK  4 active torsions:
REMARK  status: ('A' for Active; 'I' for Inactive)
REMARK    1  A    between atoms: N_10  and  C_11
REMARK    2  A    between atoms: C_11  and  C_12
REMARK    3  A    between atoms: C_12  and  C_13
REMARK    4  A    between atoms: N_17  and  C_18
REMARK                            x       y       z     vdW  Elec       q    Type
REMARK                         _______ _______ _______ _____ _____    ______ ____
ROOT
ATOM      1  C   UNL     1      -2.143   1.238   0.000  0.00  0.00    +0.000 C 
ATOM      2  C   UNL     1      -1.429   1.650   0.000  0.00  0.00    +0.003 C 
ATOM      3  C   UNL     1      -0.715   1.238   0.000  0.00  0.00    +0.022 C 
ATOM      4  C   UNL     1       0.000   1.650   0.000  0.00  0.00    +0.095 C 
ATOM      5  N   UNL     1       0.000   2.475   0.000  0.00  0.00    -0.263 N 
ATOM      6  C   UNL     1       0.715   2.888   0.000  0.00  0.00    +0.323 C 
ATOM      7  N   UNL     1       1.429   2.475   0.000  0.00  0.00    -0.188 NA
ATOM      8  O   UNL     1       0.715   3.712   0.000  0.00  0.00    -0.251 OA
ATOM      9  C   UNL     1      -0.715   2.888   0.000  0.00  0.00    +0.095 C 
ATOM     10  C   UNL     1      -1.429   2.475   0.000  0.00  0.00    +0.022 C 
ENDROOT
BRANCH   7  11
ATOM     11  C   UNL     1       2.143   2.888   0.000  0.00  0.00    +0.125 C 
BRANCH  11  12
ATOM     12  C   UNL     1       2.858   2.475   0.000  0.00  0.00    +0.088 C 
BRANCH  12  13
ATOM     13  C   UNL     1       3.572   2.888   0.000  0.00  0.00    +0.126 A 
ATOM     14  N   UNL     1       4.326   2.552   0.000  0.00  0.00    -0.259 N 
ATOM     15  C   UNL     1       4.878   3.165   0.000  0.00  0.00    +0.102 A 
ATOM     16  C   UNL     1       4.466   3.880   0.000  0.00  0.00    +0.119 A 
ATOM     17  N   UNL     1       3.659   3.708   0.000  0.00  0.00    -0.229 NA
BRANCH  14  18
ATOM     18  C   UNL     1       4.498   1.745   0.000  0.00  0.00    +0.415 C 
ATOM     19  F   UNL     1       3.885   1.193   0.000  0.00  0.00    -0.172 F 
ATOM     20  F   UNL     1       5.282   1.490   0.000  0.00  0.00    -0.172 F 
ENDBRANCH  14  18
ENDBRANCH  12  13
ENDBRANCH  11  12
ENDBRANCH   7  11
TORSDOF 4
