REMARK  Name = 
REMARK  6 active torsions:
REMARK  status: ('A' for Active; 'I' for Inactive)
REMARK    1  A    between atoms: C_3  and  C_5
REMARK    2  A    between atoms: C_5  and  C_6
REMARK    3  A    between atoms: C_8  and  C_9
REMARK    4  A    between atoms: C_9  and  S_10
REMARK    5  A    between atoms: S_10  and  C_11
REMARK    6  A    between atoms: C_11  and  C_12
REMARK                            x       y       z     vdW  Elec       q    Type
REMARK                         _______ _______ _______ _____ _____    ______ ____
ROOT
ATOM      1  C   UNL     1       2.751  -2.537   0.000  0.00  0.00    +0.097 A 
ATOM      2  S   UNL     1       2.084  -3.022   0.000  0.00  0.00    -0.070 S 
ATOM      3  C   UNL     1       2.339  -3.806   0.000  0.00  0.00    +0.052 A 
ATOM      4  C   UNL     1       3.164  -3.806   0.000  0.00  0.00    +0.077 A 
ATOM      5  N   UNL     1       3.419  -3.022   0.000  0.00  0.00    -0.246 NA
ENDROOT
BRANCH   1   6
ATOM      6  C   UNL     1       2.751  -1.712   0.000  0.00  0.00    +0.139 C 
BRANCH   6   9
ATOM      7  C   UNL     1       1.322  -0.062   0.000  0.00  0.00    +0.139 C 
ATOM      8  N   UNL     1       2.037  -0.474   0.000  0.00  0.00    -0.203 NA
ATOM      9  C   UNL     1       2.037  -1.299   0.000  0.00  0.00    +0.248 C 
ATOM     10  O   UNL     1       1.322  -1.712   0.000  0.00  0.00    -0.273 OA
ENDBRANCH   6   9
ENDBRANCH   1   6
BRANCH   4  11
ATOM     11  C   UNL     1       3.649  -4.474   0.000  0.00  0.00    +0.104 C 
BRANCH  11  12
ATOM     12  S   UNL     1       3.313  -5.227   0.000  0.00  0.00    -0.134 S 
BRANCH  12  13
ATOM     13  C   UNL     1       3.798  -5.895   0.000  0.00  0.00    +0.058 C 
BRANCH  13  14
ATOM     14  C   UNL     1       3.462  -6.648   0.000  0.00  0.00    +0.011 C 
ATOM     15  C   UNL     1       2.642  -6.735   0.000  0.00  0.00    +0.001 C 
ATOM     16  C   UNL     1       2.306  -7.488   0.000  0.00  0.00    +0.000 C 
ATOM     17  C   UNL     1       2.791  -8.156   0.000  0.00  0.00    +0.000 C 
ATOM     18  C   UNL     1       3.612  -8.069   0.000  0.00  0.00    +0.000 C 
ATOM     19  C   UNL     1       3.947  -7.316   0.000  0.00  0.00    +0.001 C 
ENDBRANCH  13  14
ENDBRANCH  12  13
ENDBRANCH  11  12
ENDBRANCH   4  11
TORSDOF 6
