REMARK  Name = 
REMARK  3 active torsions:
REMARK  status: ('A' for Active; 'I' for Inactive)
REMARK    1  A    between atoms: C_2  and  C_5
REMARK    2  A    between atoms: C_5  and  N_6
REMARK    3  A    between atoms: C_9  and  N_12
REMARK                            x       y       z     vdW  Elec       q    Type
REMARK                         _______ _______ _______ _____ _____    ______ ____
ROOT
ATOM      1  N   UNL     1       0.715  -1.238   0.000  0.00  0.00    -0.270 N 
ATOM      2  C   UNL     1       0.047  -1.722   0.000  0.00  0.00    +0.247 C 
ATOM      3  O   UNL     1      -0.738  -1.468   0.000  0.00  0.00    -0.273 OA
ATOM      4  C   UNL     1       0.302  -2.507   0.000  0.00  0.00    +0.168 C 
ATOM      5  C   UNL     1       1.127  -2.507   0.000  0.00  0.00    +0.054 C 
ATOM      6  C   UNL     1       1.382  -1.722   0.000  0.00  0.00    +0.096 C 
ENDROOT
BRANCH   4   7
ATOM      7  N   UNL     1      -0.183  -3.175   0.000  0.00  0.00    -0.271 N 
ATOM      8  C   UNL     1      -1.003  -3.088   0.000  0.00  0.00    +0.353 A 
ATOM      9  O   UNL     1      -1.339  -2.335   0.000  0.00  0.00    -0.244 OA
ATOM     10  N   UNL     1      -1.488  -3.756   0.000  0.00  0.00    -0.152 NA
ATOM     11  C   UNL     1      -1.153  -4.509   0.000  0.00  0.00    +0.295 A 
ATOM     12  O   UNL     1      -1.638  -5.177   0.000  0.00  0.00    -0.264 OA
ATOM     13  C   UNL     1      -0.332  -4.596   0.000  0.00  0.00    +0.133 A 
ATOM     14 CL   UNL     1       0.003  -5.349   0.000  0.00  0.00    -0.076 Cl
ATOM     15  C   UNL     1       0.153  -3.928   0.000  0.00  0.00    +0.096 A 
ENDBRANCH   4   7
BRANCH   1  16
ATOM     16  C   UNL     1       0.715  -0.412   0.000  0.00  0.00    +0.197 C 
BRANCH  16  18
ATOM     17  F   UNL     1       2.143   0.412   0.000  0.00  0.00    -0.168 F 
ATOM     18  C   UNL     1       1.429   0.000   0.000  0.00  0.00    +0.416 C 
ATOM     19  F   UNL     1       1.841  -0.715   0.000  0.00  0.00    -0.168 F 
ATOM     20  F   UNL     1       1.016   0.715   0.000  0.00  0.00    -0.168 F 
ENDBRANCH  16  18
ENDBRANCH   1  16
TORSDOF 3
