REMARK  Name = 
REMARK  4 active torsions:
REMARK  status: ('A' for Active; 'I' for Inactive)
REMARK    1  A    between atoms: C_2  and  N_3
REMARK    2  A    between atoms: N_6  and  C_7
REMARK    3  A    between atoms: C_7  and  C_8
REMARK    4  A    between atoms: C_8  and  C_9
REMARK                            x       y       z     vdW  Elec       q    Type
REMARK                         _______ _______ _______ _____ _____    ______ ____
ROOT
ATOM      1  C   UNL     1       7.226  -4.803   0.000  0.00  0.00    +0.069 A 
ATOM      2  N   UNL     1       7.980  -5.138   0.000  0.00  0.00    -0.228 NA
ATOM      3  C   UNL     1       8.532  -4.525   0.000  0.00  0.00    +0.163 A 
ATOM      4  N   UNL     1       9.353  -4.611   0.000  0.00  0.00    -0.288 N 
ATOM      5  C   UNL     1       9.765  -5.326   0.000  0.00  0.00    +0.093 C 
ATOM      6  C   UNL     1      10.572  -5.154   0.000  0.00  0.00    +0.023 C 
ATOM      7  C   UNL     1      10.658  -4.334   0.000  0.00  0.00    +0.023 C 
ATOM      8  C   UNL     1       9.905  -3.998   0.000  0.00  0.00    +0.093 C 
ATOM      9  S   UNL     1       8.120  -3.811   0.000  0.00  0.00    -0.051 S 
ATOM     10  C   UNL     1       7.313  -3.982   0.000  0.00  0.00    +0.053 A 
ENDROOT
BRANCH   1  11
ATOM     11  C   UNL     1       6.512  -5.215   0.000  0.00  0.00    +0.070 C 
BRANCH  11  12
ATOM     12  C   UNL     1       5.797  -4.803   0.000  0.00  0.00    +0.123 C 
BRANCH  12  15
ATOM     13  N   UNL     1       3.654  -5.215   0.000  0.00  0.00    -0.187 NA
ATOM     14  C   UNL     1       4.369  -4.803   0.000  0.00  0.00    +0.339 C 
ATOM     15  N   UNL     1       5.083  -5.215   0.000  0.00  0.00    -0.187 NA
ATOM     16  O   UNL     1       4.369  -3.978   0.000  0.00  0.00    -0.249 OA
BRANCH  13  18
ATOM     17  C   UNL     1       2.225  -5.215   0.000  0.00  0.00    +0.025 C 
ATOM     18  C   UNL     1       2.940  -4.803   0.000  0.00  0.00    +0.117 C 
ENDBRANCH  13  18
ENDBRANCH  12  15
ENDBRANCH  11  12
ENDBRANCH   1  11
TORSDOF 4
