REMARK  Name = 
REMARK  5 active torsions:
REMARK  status: ('A' for Active; 'I' for Inactive)
REMARK    1  A    between atoms: C_2  and  N_3
REMARK    2  A    between atoms: C_7  and  N_9
REMARK    3  A    between atoms: N_12  and  C_13
REMARK    4  A    between atoms: C_13  and  C_14
REMARK    5  A    between atoms: C_14  and  C_15
REMARK                            x       y       z     vdW  Elec       q    Type
REMARK                         _______ _______ _______ _____ _____    ______ ____
ROOT
ATOM      1  N   UNL     1       2.143   1.238   0.000  0.00  0.00    -0.188 NA
ATOM      2  C   UNL     1       2.858   0.825   0.000  0.00  0.00    +0.339 C 
ATOM      3  N   UNL     1       3.572   1.238   0.000  0.00  0.00    -0.187 NA
ATOM      4  O   UNL     1       2.858   0.000   0.000  0.00  0.00    -0.249 OA
ENDROOT
BRANCH   1   7
ATOM      5  N   UNL     1       0.715  -0.412   0.000  0.00  0.00    -0.271 NA
ATOM      6  C   UNL     1       1.429   0.000   0.000  0.00  0.00    +0.094 C 
ATOM      7  C   UNL     1       1.429   0.825   0.000  0.00  0.00    +0.113 C 
ATOM      8  C   UNL     1       0.715   1.238   0.000  0.00  0.00    +0.025 C 
ATOM      9  C   UNL     1       0.000   0.825   0.000  0.00  0.00    +0.019 C 
ATOM     10  C   UNL     1       0.000   0.000   0.000  0.00  0.00    +0.072 C 
BRANCH   5  12
ATOM     11  C   UNL     1       0.000  -1.650   0.000  0.00  0.00    +0.019 C 
ATOM     12  C   UNL     1       0.715  -1.238   0.000  0.00  0.00    +0.072 C 
ENDBRANCH   5  12
ENDBRANCH   1   7
BRANCH   3  13
ATOM     13  C   UNL     1       4.287   0.825   0.000  0.00  0.00    +0.124 C 
BRANCH  13  14
ATOM     14  C   UNL     1       5.001   1.238   0.000  0.00  0.00    +0.076 C 
BRANCH  14  15
ATOM     15  C   UNL     1       5.716   0.825   0.000  0.00  0.00    +0.090 A 
ATOM     16  S   UNL     1       5.802   0.004   0.000  0.00  0.00    -0.070 S 
ATOM     17  C   UNL     1       6.609  -0.167   0.000  0.00  0.00    +0.057 A 
ATOM     18  C   UNL     1       7.021   0.547   0.000  0.00  0.00    +0.106 A 
ATOM     19  N   UNL     1       6.469   1.161   0.000  0.00  0.00    -0.241 NA
ENDBRANCH  14  15
ENDBRANCH  13  14
ENDBRANCH   3  13
TORSDOF 5
