REMARK  Name = 
REMARK  1 active torsions:
REMARK  status: ('A' for Active; 'I' for Inactive)
REMARK    1  A    between atoms: N_9  and  C_10
REMARK                            x       y       z     vdW  Elec       q    Type
REMARK                         _______ _______ _______ _____ _____    ______ ____
ROOT
ATOM      1  C   UNL     1       2.002  -2.196   0.000  0.00  0.00    +0.061 C 
ATOM      2  C   UNL     1       2.002  -3.021   0.000  0.00  0.00    +0.113 A 
ATOM      3  S   UNL     1       1.334  -3.506   0.000  0.00  0.00    -0.033 S 
ATOM      4  C   UNL     1       1.589  -4.290   0.000  0.00  0.00    +0.209 A 
ATOM      5  N   UNL     1       1.104  -4.958   0.000  0.00  0.00    -0.134 NA
ATOM      6  C   UNL     1       0.284  -4.872   0.000  0.00  0.00    +0.345 C 
ATOM      7  N   UNL     1      -0.201  -5.539   0.000  0.00  0.00    -0.189 NA
ATOM      8  O   UNL     1      -0.052  -4.118   0.000  0.00  0.00    -0.249 OA
ATOM      9  N   UNL     1       2.414  -4.290   0.000  0.00  0.00    -0.124 NA
ATOM     10  N   UNL     1       2.669  -3.506   0.000  0.00  0.00    -0.144 NA
ENDROOT
BRANCH   7  11
ATOM     11  C   UNL     1      -1.022  -5.453   0.000  0.00  0.00    +0.097 C 
ATOM     12  C   UNL     1      -1.300  -4.676   0.000  0.00  0.00    +0.022 C 
ATOM     13  C   UNL     1      -2.080  -4.410   0.000  0.00  0.00    +0.002 C 
ATOM     14  C   UNL     1      -2.776  -4.854   0.000  0.00  0.00    +0.000 C 
ATOM     15  C   UNL     1      -2.862  -5.674   0.000  0.00  0.00    +0.000 C 
ATOM     16  C   UNL     1      -2.274  -6.253   0.000  0.00  0.00    +0.002 C 
ATOM     17  C   UNL     1      -1.455  -6.155   0.000  0.00  0.00    +0.022 C 
ENDBRANCH   7  11
TORSDOF 1
