REMARK  Name = 
REMARK  4 active torsions:
REMARK  status: ('A' for Active; 'I' for Inactive)
REMARK    1  A    between atoms: C_2  and  C_3
REMARK    2  A    between atoms: C_3  and  N_5
REMARK    3  A    between atoms: C_6  and  C_8
REMARK    4  A    between atoms: C_8  and  N_9
REMARK                            x       y       z     vdW  Elec       q    Type
REMARK                         _______ _______ _______ _____ _____    ______ ____
ROOT
ATOM      1  C   UNL     1       5.001  -3.712   0.000  0.00  0.00    +0.217 C 
ENDROOT
BRANCH   1   2
ATOM      2  N   UNL     1       5.716  -4.125   0.000  0.00  0.00    -0.204 N 
ATOM      3  C   UNL     1       5.716  -4.950   0.000  0.00  0.00    +0.277 A 
ATOM      4  O   UNL     1       5.001  -5.362   0.000  0.00  0.00    -0.265 OA
ATOM      5  C   UNL     1       6.430  -5.362   0.000  0.00  0.00    +0.067 A 
ATOM      6  C   UNL     1       7.145  -4.950   0.000  0.00  0.00    +0.069 A 
ATOM      7  C   UNL     1       7.145  -4.125   0.000  0.00  0.00    +0.295 A 
ATOM      8  O   UNL     1       7.859  -3.712   0.000  0.00  0.00    -0.264 OA
ATOM      9  N   UNL     1       6.430  -3.712   0.000  0.00  0.00    -0.124 NA
ENDBRANCH   1   2
BRANCH   1  11
ATOM     10  N   UNL     1       3.572  -3.712   0.000  0.00  0.00    -0.206 NA
ATOM     11  C   UNL     1       4.287  -4.125   0.000  0.00  0.00    +0.266 C 
ATOM     12  O   UNL     1       4.287  -4.950   0.000  0.00  0.00    -0.271 OA
BRANCH  10  13
ATOM     13  C   UNL     1       2.858  -4.125   0.000  0.00  0.00    +0.095 C 
ATOM     14  C   UNL     1       2.858  -4.950   0.000  0.00  0.00    +0.023 C 
BRANCH  13  16
ATOM     15  C   UNL     1       1.429  -4.125   0.000  0.00  0.00    +0.002 C 
ATOM     16  C   UNL     1       2.143  -3.712   0.000  0.00  0.00    +0.022 C 
ENDBRANCH  13  16
ENDBRANCH  10  13
ENDBRANCH   1  11
TORSDOF 4
