REMARK  Name = 
REMARK  1 active torsions:
REMARK  status: ('A' for Active; 'I' for Inactive)
REMARK    1  A    between atoms: N_10  and  C_11
REMARK                            x       y       z     vdW  Elec       q    Type
REMARK                         _______ _______ _______ _____ _____    ______ ____
ROOT
ATOM      1  C   UNL     1       7.170   5.989   0.000  0.00  0.00    +0.134 C 
ATOM      2  N   UNL     1       6.586   5.405   0.000  0.00  0.00    -0.288 N 
ATOM      3  C   UNL     1       5.789   5.619   0.000  0.00  0.00    +0.295 A 
ATOM      4  O   UNL     1       5.576   6.416   0.000  0.00  0.00    -0.264 OA
ATOM      5  C   UNL     1       5.206   5.035   0.000  0.00  0.00    +0.213 A 
ATOM      6  N   UNL     1       4.409   5.249   0.000  0.00  0.00    -0.137 NA
ATOM      7  C   UNL     1       3.826   4.666   0.000  0.00  0.00    +0.345 C 
ATOM      8  N   UNL     1       3.029   4.879   0.000  0.00  0.00    -0.190 NA
ATOM      9  O   UNL     1       4.039   3.869   0.000  0.00  0.00    -0.249 OA
ATOM     10  N   UNL     1       5.419   4.239   0.000  0.00  0.00    -0.221 NA
ATOM     11  C   UNL     1       6.216   4.025   0.000  0.00  0.00    +0.119 A 
ATOM     12  C   UNL     1       6.800   4.609   0.000  0.00  0.00    +0.099 A 
ENDROOT
BRANCH   8  13
ATOM     13  C   UNL     1       2.445   4.296   0.000  0.00  0.00    +0.080 C 
ATOM     14  C   UNL     1       1.862   3.712   0.000  0.00  0.00    +0.020 C 
ATOM     15  C   UNL     1       2.445   3.129   0.000  0.00  0.00    +0.003 C 
ATOM     16  C   UNL     1       3.029   3.712   0.000  0.00  0.00    +0.020 C 
ATOM     17  C   UNL     1       1.862   4.879   0.000  0.00  0.00    +0.022 C 
ENDBRANCH   8  13
TORSDOF 1
