REMARK  Name = 
REMARK  7 active torsions:
REMARK  status: ('A' for Active; 'I' for Inactive)
REMARK    1  A    between atoms: C_2  and  C_3
REMARK    2  A    between atoms: C_3  and  C_4
REMARK    3  A    between atoms: C_3  and  C_6
REMARK    4  A    between atoms: C_6  and  C_8
REMARK    5  A    between atoms: C_8  and  N_9
REMARK    6  A    between atoms: C_10  and  C_12
REMARK    7  A    between atoms: C_12  and  N_13
REMARK                            x       y       z     vdW  Elec       q    Type
REMARK                         _______ _______ _______ _____ _____    ______ ____
ROOT
ATOM      1  N   UNL     1       6.953  -2.043   0.000  0.00  0.00    -0.201 NA
ATOM      2  C   UNL     1       7.493  -2.666   0.000  0.00  0.00    +0.266 C 
ATOM      3  O   UNL     1       7.223  -3.446   0.000  0.00  0.00    -0.271 OA
ENDROOT
BRANCH   1   4
ATOM      4  C   UNL     1       6.143  -2.199   0.000  0.00  0.00    +0.148 C 
BRANCH   4   5
ATOM      5  C   UNL     1       5.603  -1.575   0.000  0.00  0.00    +0.173 C 
ATOM      6  O   UNL     1       5.873  -0.795   0.000  0.00  0.00    -0.221 OA
BRANCH   5   7
ATOM      7  C   UNL     1       4.792  -1.731   0.000  0.00  0.00    +0.032 C 
BRANCH   7   9
ATOM      8  C   UNL     1       3.442  -1.263   0.000  0.00  0.00    +0.000 C 
ATOM      9  C   UNL     1       4.252  -1.107   0.000  0.00  0.00    +0.003 C 
ENDBRANCH   7   9
BRANCH   7  10
ATOM     10  C   UNL     1       4.522  -2.510   0.000  0.00  0.00    +0.003 C 
ATOM     11  C   UNL     1       3.712  -2.666   0.000  0.00  0.00    +0.000 C 
ENDBRANCH   7  10
ENDBRANCH   5   7
ENDBRANCH   4   5
ENDBRANCH   1   4
BRANCH   2  12
ATOM     12  C   UNL     1       8.303  -2.510   0.000  0.00  0.00    +0.217 C 
BRANCH  12  13
ATOM     13  N   UNL     1       8.843  -3.134   0.000  0.00  0.00    -0.201 N 
ATOM     14  N   UNL     1       8.656  -3.937   0.000  0.00  0.00    -0.042 NA
ATOM     15  N   UNL     1       9.362  -4.364   0.000  0.00  0.00    -0.023 NA
ATOM     16  N   UNL     1       9.986  -3.824   0.000  0.00  0.00    -0.105 NA
ATOM     17  C   UNL     1       9.665  -3.064   0.000  0.00  0.00    +0.222 A 
ENDBRANCH  12  13
ENDBRANCH   2  12
TORSDOF 7
