REMARK  Name = 
REMARK  2 active torsions:
REMARK  status: ('A' for Active; 'I' for Inactive)
REMARK    1  A    between atoms: C_8  and  N_18
REMARK    2  A    between atoms: N_11  and  C_12
REMARK                            x       y       z     vdW  Elec       q    Type
REMARK                         _______ _______ _______ _____ _____    ______ ____
ROOT
ATOM      1  O   UNL     1       0.412   0.715   0.000  0.00  0.00    -0.197 OA
ATOM      2  C   UNL     1       0.000   0.000   0.000  0.00  0.00    +0.592 C 
ATOM      3  O   UNL     1      -0.825   0.000   0.000  0.00  0.00    -0.197 OA
ATOM      4  O   UNL     1       0.412  -0.715   0.000  0.00  0.00    -0.197 OA
ENDROOT
TORSDOF 0
REMARK  Name = 
REMARK  2 active torsions:
REMARK  status: ('A' for Active; 'I' for Inactive)
REMARK    1  A    between atoms: C_8  and  N_18
REMARK    2  A    between atoms: N_11  and  C_12
REMARK                            x       y       z     vdW  Elec       q    Type
REMARK                         _______ _______ _______ _____ _____    ______ ____
ROOT
ATOM      1  O   UNL     1       5.628   1.563   0.000  0.00  0.00    -0.265 OA
ATOM      2  C   UNL     1       5.628   0.738   0.000  0.00  0.00    +0.278 A 
ATOM      3  N   UNL     1       4.913   0.326   0.000  0.00  0.00    -0.217 N 
ATOM      4  N   UNL     1       4.913  -0.499   0.000  0.00  0.00    -0.164 NA
ATOM      5  C   UNL     1       5.628  -0.912   0.000  0.00  0.00    +0.135 A 
ATOM      6  C   UNL     1       6.342  -0.499   0.000  0.00  0.00    +0.074 A 
ATOM      7  C   UNL     1       6.342   0.326   0.000  0.00  0.00    +0.078 A 
ENDROOT
BRANCH   3   8
ATOM      8  C   UNL     1       4.199   0.738   0.000  0.00  0.00    +0.126 C 
ATOM      9  C   UNL     1       4.199   1.563   0.000  0.00  0.00    +0.113 C 
ATOM     10  N   UNL     1       3.484   1.976   0.000  0.00  0.00    -0.216 NA
ATOM     11  C   UNL     1       2.770   1.563   0.000  0.00  0.00    +0.089 C 
ATOM     12  C   UNL     1       2.770   0.738   0.000  0.00  0.00    +0.021 C 
ATOM     13  C   UNL     1       3.484   0.326   0.000  0.00  0.00    +0.027 C 
ENDBRANCH   3   8
BRANCH   6  14
ATOM     14  N   UNL     1       7.056  -0.912   0.000  0.00  0.00    -0.301 N 
ATOM     15  C   UNL     1       7.056  -1.737   0.000  0.00  0.00    +0.123 C 
ATOM     16  C   UNL     1       7.771  -2.149   0.000  0.00  0.00    +0.164 C 
ATOM     17  O   UNL     1       8.485  -1.737   0.000  0.00  0.00    -0.350 OA
ATOM     18  C   UNL     1       8.485  -0.912   0.000  0.00  0.00    +0.164 C 
ATOM     19  C   UNL     1       7.771  -0.499   0.000  0.00  0.00    +0.123 C 
ENDBRANCH   6  14
TORSDOF 2
