REMARK  Name = 
REMARK  5 active torsions:
REMARK  status: ('A' for Active; 'I' for Inactive)
REMARK    1  A    between atoms: C_2  and  C_4
REMARK    2  A    between atoms: C_2  and  C_17
REMARK    3  A    between atoms: N_6  and  C_7
REMARK    4  A    between atoms: C_7  and  C_8
REMARK    5  A    between atoms: C_8  and  C_9
REMARK                            x       y       z     vdW  Elec       q    Type
REMARK                         _______ _______ _______ _____ _____    ______ ____
ROOT
ATOM      1  C   UNL     1       5.001  -1.238   0.000  0.00  0.00    +0.308 C 
ATOM      2  N   UNL     1       5.001  -2.062   0.000  0.00  0.00    -0.200 NA
ATOM      3  O   UNL     1       4.287  -0.825   0.000  0.00  0.00    -0.267 OA
ENDROOT
BRANCH   1   5
ATOM      4  F   UNL     1       6.128  -1.540   0.000  0.00  0.00    -0.188 F 
ATOM      5  C   UNL     1       5.716  -0.825   0.000  0.00  0.00    +0.366 C 
ATOM      6  F   UNL     1       5.303  -0.111   0.000  0.00  0.00    -0.188 F 
BRANCH   5   7
ATOM      7  C   UNL     1       6.430  -0.412   0.000  0.00  0.00    +0.128 A 
ATOM      8  N   UNL     1       7.145  -0.825   0.000  0.00  0.00    -0.242 NA
ATOM      9  C   UNL     1       7.859  -0.412   0.000  0.00  0.00    +0.099 A 
ATOM     10  C   UNL     1       7.859   0.412   0.000  0.00  0.00    +0.021 A 
ATOM     11  C   UNL     1       7.145   0.825   0.000  0.00  0.00    +0.003 A 
ATOM     12  C   UNL     1       6.430   0.412   0.000  0.00  0.00    +0.021 A 
ENDBRANCH   5   7
ENDBRANCH   1   5
BRANCH   2  13
ATOM     13  C   UNL     1       4.287  -2.475   0.000  0.00  0.00    +0.125 C 
BRANCH  13  14
ATOM     14  C   UNL     1       4.287  -3.300   0.000  0.00  0.00    +0.109 C 
BRANCH  14  15
ATOM     15  C   UNL     1       3.572  -3.712   0.000  0.00  0.00    +0.227 C 
ATOM     16  N   UNL     1       3.572  -4.537   0.000  0.00  0.00    -0.279 N 
ATOM     17  C   UNL     1       2.858  -4.950   0.000  0.00  0.00    +0.093 C 
ATOM     18  C   UNL     1       2.858  -5.775   0.000  0.00  0.00    +0.022 C 
ATOM     19  C   UNL     1       3.572  -6.188   0.000  0.00  0.00    +0.004 C 
ATOM     20  C   UNL     1       4.287  -5.775   0.000  0.00  0.00    +0.022 C 
ATOM     21  C   UNL     1       4.287  -4.950   0.000  0.00  0.00    +0.093 C 
ATOM     22  O   UNL     1       2.858  -3.300   0.000  0.00  0.00    -0.275 OA
ENDBRANCH  14  15
ENDBRANCH  13  14
ENDBRANCH   2  13
TORSDOF 5
