REMARK  Name = 
REMARK  3 active torsions:
REMARK  status: ('A' for Active; 'I' for Inactive)
REMARK    1  A    between atoms: C_7  and  S_8
REMARK    2  A    between atoms: S_8  and  C_9
REMARK    3  A    between atoms: C_9  and  C_10
REMARK                            x       y       z     vdW  Elec       q    Type
REMARK                         _______ _______ _______ _____ _____    ______ ____
ROOT
ATOM      1  N   UNL     1       1.322   7.240   0.000  0.00  0.00    -0.086 NA
ATOM      2  C   UNL     1       2.037   6.828   0.000  0.00  0.00    +0.261 A 
ATOM      3  N   UNL     1       2.037   6.003   0.000  0.00  0.00    -0.186 NA
ATOM      4  C   UNL     1       2.751   5.590   0.000  0.00  0.00    +0.195 A 
ATOM      5  N   UNL     1       3.466   6.003   0.000  0.00  0.00    -0.186 NA
ATOM      6  C   UNL     1       3.466   6.828   0.000  0.00  0.00    +0.261 A 
ATOM      7  N   UNL     1       4.180   7.240   0.000  0.00  0.00    -0.086 NA
ATOM      8  N   UNL     1       2.751   7.240   0.000  0.00  0.00    -0.176 NA
ENDROOT
BRANCH   4   9
ATOM      9  S   UNL     1       2.751   4.765   0.000  0.00  0.00    -0.073 S 
BRANCH   9  10
ATOM     10  C   UNL     1       3.466   4.353   0.000  0.00  0.00    +0.095 C 
BRANCH  10  11
ATOM     11  C   UNL     1       3.466   3.528   0.000  0.00  0.00    +0.126 C 
ATOM     12  O   UNL     1       2.798   3.043   0.000  0.00  0.00    -0.355 OA
ATOM     13  C   UNL     1       3.053   2.258   0.000  0.00  0.00    +0.142 C 
ATOM     14  C   UNL     1       3.878   2.258   0.000  0.00  0.00    +0.035 C 
ATOM     15  C   UNL     1       4.133   3.043   0.000  0.00  0.00    +0.033 C 
ENDBRANCH  10  11
ENDBRANCH   9  10
ENDBRANCH   4   9
TORSDOF 3
