REMARK  Name = 
REMARK  2 active torsions:
REMARK  status: ('A' for Active; 'I' for Inactive)
REMARK    1  A    between atoms: C_2  and  C_4
REMARK    2  A    between atoms: C_15  and  C_16
REMARK                            x       y       z     vdW  Elec       q    Type
REMARK                         _______ _______ _______ _____ _____    ______ ____
ROOT
ATOM      1  C   UNL     1       0.715  -1.238   0.000  0.00  0.00    +0.214 C 
ATOM      2  O   UNL     1       0.000  -1.650   0.000  0.00  0.00    -0.343 OA
ATOM      3  C   UNL     1       0.000  -2.475   0.000  0.00  0.00    +0.164 C 
ATOM      4  C   UNL     1       0.715  -2.888   0.000  0.00  0.00    +0.124 C 
ATOM      5  N   UNL     1       1.429  -2.475   0.000  0.00  0.00    -0.288 N 
ATOM      6  C   UNL     1       2.143  -2.888   0.000  0.00  0.00    +0.133 A 
ATOM      7  N   UNL     1       2.143  -3.712   0.000  0.00  0.00    -0.220 NA
ATOM      8  C   UNL     1       2.858  -4.125   0.000  0.00  0.00    +0.161 A 
ATOM      9  C   UNL     1       3.572  -3.712   0.000  0.00  0.00    +0.085 A 
ATOM     10 CL   UNL     1       4.287  -4.125   0.000  0.00  0.00    -0.080 Cl
ATOM     11  C   UNL     1       3.572  -2.888   0.000  0.00  0.00    +0.016 A 
ATOM     12  C   UNL     1       2.858  -2.475   0.000  0.00  0.00    +0.035 A 
ATOM     13  C   UNL     1       1.429  -1.650   0.000  0.00  0.00    +0.131 C 
ENDROOT
BRANCH   1  15
ATOM     14  N   UNL     1       0.000   0.000   0.000  0.00  0.00    -0.086 NA
ATOM     15  C   UNL     1       0.715  -0.412   0.000  0.00  0.00    +0.290 C 
ATOM     16  O   UNL     1       1.429   0.000   0.000  0.00  0.00    -0.269 OA
ENDBRANCH   1  15
BRANCH   8  17
ATOM     17  C   UNL     1       2.858  -4.950   0.000  0.00  0.00    +0.121 C 
ATOM     18  N   UNL     1       2.858  -5.775   0.000  0.00  0.00    -0.189 NA
ENDBRANCH   8  17
TORSDOF 2
