REMARK  Name = 
REMARK  3 active torsions:
REMARK  status: ('A' for Active; 'I' for Inactive)
REMARK    1  A    between atoms: N_4  and  C_5
REMARK    2  A    between atoms: C_5  and  C_6
REMARK    3  A    between atoms: C_15  and  C_16
REMARK                            x       y       z     vdW  Elec       q    Type
REMARK                         _______ _______ _______ _____ _____    ______ ____
ROOT
ATOM      1  C   UNL     1      -1.441   0.892   0.000  0.00  0.00    +0.054 C 
ATOM      2  C   UNL     1      -1.441   0.067   0.000  0.00  0.00    +0.076 A 
ATOM      3  C   UNL     1      -2.155  -0.345   0.000  0.00  0.00    +0.008 A 
ATOM      4  C   UNL     1      -2.870   0.067   0.000  0.00  0.00    +0.033 C 
ATOM      5  C   UNL     1      -2.155  -1.171   0.000  0.00  0.00    +0.123 A 
ATOM      6  C   UNL     1      -1.441  -1.583   0.000  0.00  0.00    +0.286 A 
ATOM      7  O   UNL     1      -1.441  -2.408   0.000  0.00  0.00    -0.265 OA
ATOM      8  N   UNL     1      -0.726  -1.171   0.000  0.00  0.00    -0.214 N 
ATOM      9  N   UNL     1      -0.726  -0.345   0.000  0.00  0.00    -0.171 NA
ENDROOT
BRANCH   5  10
ATOM     10  C   UNL     1      -2.870  -1.583   0.000  0.00  0.00    +0.105 C 
ATOM     11  N   UNL     1      -3.584  -1.996   0.000  0.00  0.00    -0.191 NA
ENDBRANCH   5  10
BRANCH   8  12
ATOM     12  C   UNL     1      -0.012  -1.583   0.000  0.00  0.00    +0.161 C 
BRANCH  12  13
ATOM     13  C   UNL     1       0.703  -1.171   0.000  0.00  0.00    +0.149 C 
ATOM     14  C   UNL     1       1.515  -1.027   0.000  0.00  0.00    +0.032 C 
ATOM     15  C   UNL     1       1.797  -0.252   0.000  0.00  0.00    +0.003 C 
ATOM     16  C   UNL     1       1.267   0.380   0.000  0.00  0.00    +0.000 C 
ATOM     17  C   UNL     1       0.455   0.237   0.000  0.00  0.00    +0.003 C 
ATOM     18  C   UNL     1       0.172  -0.538   0.000  0.00  0.00    +0.032 C 
ATOM     19  O   UNL     1       0.985  -1.946   0.000  0.00  0.00    -0.224 OA
ENDBRANCH  12  13
ENDBRANCH   8  12
TORSDOF 3
