REMARK  Name = 
REMARK  4 active torsions:
REMARK  status: ('A' for Active; 'I' for Inactive)
REMARK    1  A    between atoms: C_3  and  C_5
REMARK    2  A    between atoms: N_10  and  C_11
REMARK    3  A    between atoms: C_11  and  C_12
REMARK    4  A    between atoms: N_17  and  C_18
REMARK                            x       y       z     vdW  Elec       q    Type
REMARK                         _______ _______ _______ _____ _____    ______ ____
ROOT
ATOM      1  C   UNL     1       2.143  -3.712   0.000  0.00  0.00    +0.196 C 
ENDROOT
BRANCH   1   4
ATOM      2  C   UNL     1       0.715  -5.362   0.000  0.00  0.00    +0.072 A 
ATOM      3  C   UNL     1       1.429  -4.950   0.000  0.00  0.00    +0.083 A 
ATOM      4  N   UNL     1       1.429  -4.125   0.000  0.00  0.00    -0.285 N 
ATOM      5  C   UNL     1       0.715  -3.712   0.000  0.00  0.00    +0.261 A 
ATOM      6  O   UNL     1       0.715  -2.888   0.000  0.00  0.00    -0.267 OA
ATOM      7  C   UNL     1       0.000  -4.125   0.000  0.00  0.00    +0.061 A 
ATOM      8  C   UNL     1       0.000  -4.950   0.000  0.00  0.00    +0.011 A 
BRANCH   2  11
ATOM      9  C   UNL     1       0.000  -7.425   0.000  0.00  0.00    +0.139 C 
ATOM     10  N   UNL     1       0.000  -6.600   0.000  0.00  0.00    -0.200 NA
ATOM     11  C   UNL     1       0.715  -6.188   0.000  0.00  0.00    +0.266 C 
ATOM     12  O   UNL     1       1.429  -6.600   0.000  0.00  0.00    -0.268 OA
ENDBRANCH   2  11
ENDBRANCH   1   4
BRANCH   1  13
ATOM     13  C   UNL     1       2.858  -4.125   0.000  0.00  0.00    +0.272 C 
ATOM     14  N   UNL     1       3.572  -3.712   0.000  0.00  0.00    -0.125 NA
ATOM     15  C   UNL     1       4.287  -4.125   0.000  0.00  0.00    +0.346 C 
ATOM     16  N   UNL     1       5.001  -3.712   0.000  0.00  0.00    -0.189 NA
ATOM     17  O   UNL     1       4.287  -4.950   0.000  0.00  0.00    -0.249 OA
ATOM     18  O   UNL     1       2.858  -4.950   0.000  0.00  0.00    -0.271 OA
BRANCH  16  19
ATOM     19  C   UNL     1       5.716  -4.125   0.000  0.00  0.00    +0.097 C 
ATOM     20  C   UNL     1       5.716  -4.950   0.000  0.00  0.00    +0.022 C 
ATOM     21  C   UNL     1       6.430  -5.362   0.000  0.00  0.00    +0.002 C 
ATOM     22  C   UNL     1       7.145  -4.950   0.000  0.00  0.00    +0.000 C 
ATOM     23  C   UNL     1       7.145  -4.125   0.000  0.00  0.00    +0.002 C 
ATOM     24  C   UNL     1       6.430  -3.712   0.000  0.00  0.00    +0.022 C 
ENDBRANCH  16  19
ENDBRANCH   1  13
TORSDOF 4
