REMARK  Name = 
REMARK  4 active torsions:
REMARK  status: ('A' for Active; 'I' for Inactive)
REMARK    1  A    between atoms: C_2  and  C_5
REMARK    2  A    between atoms: C_10  and  N_11
REMARK    3  A    between atoms: N_11  and  C_12
REMARK    4  A    between atoms: C_12  and  C_13
REMARK                            x       y       z     vdW  Elec       q    Type
REMARK                         _______ _______ _______ _____ _____    ______ ____
ROOT
ATOM      1  C   UNL     1       2.751   2.413   0.000  0.00  0.00    +0.104 A 
ATOM      2  C   UNL     1       3.466   2.001   0.000  0.00  0.00    +0.151 A 
ATOM      3  N   UNL     1       4.180   2.413   0.000  0.00  0.00    -0.228 NA
ATOM      4  C   UNL     1       4.180   3.238   0.000  0.00  0.00    +0.100 A 
ATOM      5  C   UNL     1       3.466   3.651   0.000  0.00  0.00    +0.021 A 
ATOM      6  C   UNL     1       2.751   3.238   0.000  0.00  0.00    +0.008 A 
ENDROOT
BRANCH   1   8
ATOM      7  F   UNL     1       1.322   1.588   0.000  0.00  0.00    -0.166 F 
ATOM      8  C   UNL     1       2.037   2.001   0.000  0.00  0.00    +0.421 C 
ATOM      9  F   UNL     1       1.624   2.715   0.000  0.00  0.00    -0.166 F 
ATOM     10  F   UNL     1       2.449   1.286   0.000  0.00  0.00    -0.166 F 
ENDBRANCH   1   8
BRANCH   2  11
ATOM     11  N   UNL     1       3.466   1.176   0.000  0.00  0.00    -0.218 NA
BRANCH  11  12
ATOM     12  C   UNL     1       4.180   0.763   0.000  0.00  0.00    +0.143 C 
BRANCH  12  13
ATOM     13  C   UNL     1       4.180  -0.062   0.000  0.00  0.00    +0.137 C 
ATOM     14  O   UNL     1       3.513  -0.546   0.000  0.00  0.00    -0.354 OA
ATOM     15  C   UNL     1       3.768  -1.331   0.000  0.00  0.00    +0.142 C 
ATOM     16  C   UNL     1       4.593  -1.331   0.000  0.00  0.00    +0.035 C 
ATOM     17  C   UNL     1       4.848  -0.546   0.000  0.00  0.00    +0.034 C 
ENDBRANCH  12  13
ENDBRANCH  11  12
ENDBRANCH   2  11
TORSDOF 4
