REMARK  Name = 
REMARK  1 active torsions:
REMARK  status: ('A' for Active; 'I' for Inactive)
REMARK    1  A    between atoms: C_5  and  C_7
REMARK                            x       y       z     vdW  Elec       q    Type
REMARK                         _______ _______ _______ _____ _____    ______ ____
ROOT
ATOM      1  C   UNL     1       0.531  -4.412   0.000  0.00  0.00    +0.274 C 
ATOM      2  N   UNL     1       0.867  -5.166   0.000  0.00  0.00    -0.157 NA
ATOM      3  C   UNL     1       0.382  -5.833   0.000  0.00  0.00    +0.174 A 
ATOM      4  N   UNL     1      -0.438  -5.747   0.000  0.00  0.00    -0.224 NA
ATOM      5  C   UNL     1      -0.923  -6.414   0.000  0.00  0.00    +0.121 A 
ATOM      6  C   UNL     1      -0.588  -7.168   0.000  0.00  0.00    +0.120 A 
ATOM      7  N   UNL     1       0.233  -7.254   0.000  0.00  0.00    -0.238 NA
ATOM      8  C   UNL     1       0.718  -6.587   0.000  0.00  0.00    +0.135 A 
ATOM      9  O   UNL     1      -0.289  -4.326   0.000  0.00  0.00    -0.270 OA
ENDROOT
BRANCH   1  13
ATOM     10  C   UNL     1       1.429  -1.650   0.000  0.00  0.00    +0.032 C 
ATOM     11  C   UNL     1       1.429  -2.475   0.000  0.00  0.00    +0.116 C 
ATOM     12  O   UNL     1       0.761  -2.960   0.000  0.00  0.00    -0.349 OA
ATOM     13  C   UNL     1       1.016  -3.744   0.000  0.00  0.00    +0.193 C 
ATOM     14  C   UNL     1       1.841  -3.744   0.000  0.00  0.00    +0.042 C 
ATOM     15  C   UNL     1       2.096  -2.960   0.000  0.00  0.00    +0.033 C 
ENDBRANCH   1  13
TORSDOF 1
