REMARK  Name = 
REMARK  6 active torsions:
REMARK  status: ('A' for Active; 'I' for Inactive)
REMARK    1  A    between atoms: C_6  and  C_7
REMARK    2  A    between atoms: C_7  and  N_8
REMARK    3  A    between atoms: N_8  and  C_9
REMARK    4  A    between atoms: C_9  and  C_10
REMARK    5  A    between atoms: C_10  and  C_12
REMARK    6  A    between atoms: C_12  and  N_13
REMARK                            x       y       z     vdW  Elec       q    Type
REMARK                         _______ _______ _______ _____ _____    ______ ____
ROOT
ATOM      1  C   UNL     1       7.710  -0.851   0.000  0.00  0.00    +0.192 C 
ATOM      2  O   UNL     1       7.710  -0.026   0.000  0.00  0.00    -0.220 OA
ENDROOT
BRANCH   1   3
ATOM      3  C   UNL     1       8.425  -1.264   0.000  0.00  0.00    +0.142 C 
BRANCH   3   4
ATOM      4  N   UNL     1       9.139  -0.851   0.000  0.00  0.00    -0.306 N 
ATOM      5  C   UNL     1       9.893  -1.187   0.000  0.00  0.00    +0.079 A 
ATOM      6  C   UNL     1      10.445  -0.574   0.000  0.00  0.00    +0.098 A 
ATOM      7  C   UNL     1      11.252  -0.745   0.000  0.00  0.00    +0.016 A 
ATOM      8  C   UNL     1      11.507  -1.530   0.000  0.00  0.00    -0.024 A 
ATOM      9  C   UNL     1      10.955  -2.143   0.000  0.00  0.00    -0.024 A 
ATOM     10  C   UNL     1      11.210  -2.928   0.000  0.00  0.00    +0.031 C 
ATOM     11  C   UNL     1      12.314  -1.701   0.000  0.00  0.00    +0.031 C 
ATOM     12  N   UNL     1      10.033   0.141   0.000  0.00  0.00    -0.224 NA
ATOM     13  C   UNL     1      10.148  -1.971   0.000  0.00  0.00    +0.014 A 
ATOM     14  C   UNL     1       9.226  -0.031   0.000  0.00  0.00    +0.179 A 
ENDBRANCH   3   4
ENDBRANCH   1   3
BRANCH   1  15
ATOM     15  C   UNL     1       6.996  -1.264   0.000  0.00  0.00    +0.124 C 
BRANCH  15  16
ATOM     16  N   UNL     1       6.282  -0.851   0.000  0.00  0.00    -0.213 NA
BRANCH  16  17
ATOM     17  C   UNL     1       5.567  -1.264   0.000  0.00  0.00    +0.120 C 
BRANCH  17  21
ATOM     18  C   UNL     1       2.709  -1.264   0.000  0.00  0.00    +0.090 C 
ATOM     19  N   UNL     1       3.424  -0.851   0.000  0.00  0.00    -0.267 NA
ATOM     20  C   UNL     1       4.138  -1.264   0.000  0.00  0.00    +0.104 C 
ATOM     21  C   UNL     1       4.853  -0.851   0.000  0.00  0.00    +0.148 C 
ATOM     22  O   UNL     1       4.853  -0.026   0.000  0.00  0.00    -0.352 OA
ATOM     23  C   UNL     1       4.138   0.386   0.000  0.00  0.00    +0.159 C 
ATOM     24  C   UNL     1       3.424  -0.026   0.000  0.00  0.00    +0.105 C 
ENDBRANCH  17  21
ENDBRANCH  16  17
ENDBRANCH  15  16
ENDBRANCH   1  15
TORSDOF 6
