REMARK  Name = 
REMARK  6 active torsions:
REMARK  status: ('A' for Active; 'I' for Inactive)
REMARK    1  A    between atoms: S_2  and  C_3
REMARK    2  A    between atoms: C_3  and  C_4
REMARK    3  A    between atoms: C_3  and  C_6
REMARK    4  A    between atoms: C_6  and  N_8
REMARK    5  A    between atoms: C_9  and  C_11
REMARK    6  A    between atoms: C_11  and  C_14
REMARK                            x       y       z     vdW  Elec       q    Type
REMARK                         _______ _______ _______ _____ _____    ______ ____
ROOT
ATOM      1  N   UNL     1       0.000   3.300   0.000  0.00  0.00    -0.201 NA
ATOM      2  C   UNL     1       0.715   2.888   0.000  0.00  0.00    +0.308 C 
ATOM      3  O   UNL     1       1.429   3.300   0.000  0.00  0.00    -0.267 OA
ENDROOT
BRANCH   2   4
ATOM      4  C   UNL     1       0.715   2.062   0.000  0.00  0.00    +0.366 C 
ATOM      5  F   UNL     1       1.540   2.062   0.000  0.00  0.00    -0.188 F 
ATOM      6  F   UNL     1      -0.111   2.062   0.000  0.00  0.00    -0.188 F 
BRANCH   4   7
ATOM      7  C   UNL     1       0.715   1.238   0.000  0.00  0.00    +0.128 A 
ATOM      8  N   UNL     1       0.000   0.825   0.000  0.00  0.00    -0.242 NA
ATOM      9  C   UNL     1       0.000   0.000   0.000  0.00  0.00    +0.099 A 
ATOM     10  C   UNL     1       0.715  -0.412   0.000  0.00  0.00    +0.021 A 
ATOM     11  C   UNL     1       1.429   0.000   0.000  0.00  0.00    +0.003 A 
ATOM     12  C   UNL     1       1.429   0.825   0.000  0.00  0.00    +0.021 A 
ENDBRANCH   4   7
ENDBRANCH   2   4
BRANCH   1  13
ATOM     13  C   UNL     1       0.000   4.125   0.000  0.00  0.00    +0.108 C 
ATOM     14  C   UNL     1       0.715   4.537   0.000  0.00  0.00    +0.024 C 
BRANCH  13  15
ATOM     15  C   UNL     1      -0.715   4.537   0.000  0.00  0.00    +0.100 C 
BRANCH  15  17
ATOM     16  C   UNL     1      -1.429   5.775   0.000  0.00  0.00    +0.069 C 
ATOM     17  S   UNL     1      -0.715   5.362   0.000  0.00  0.00    -0.136 S 
ENDBRANCH  15  17
BRANCH  15  18
ATOM     18  C   UNL     1      -1.429   4.125   0.000  0.00  0.00    +0.194 C 
ATOM     19  O   UNL     1      -1.429   3.300   0.000  0.00  0.00    -0.219 OA
ENDBRANCH  15  18
ENDBRANCH  13  15
ENDBRANCH   1  13
TORSDOF 6
