REMARK  Name = 
REMARK  3 active torsions:
REMARK  status: ('A' for Active; 'I' for Inactive)
REMARK    1  A    between atoms: O_2  and  C_3
REMARK    2  A    between atoms: C_4  and  N_5
REMARK    3  A    between atoms: N_8  and  C_9
REMARK                            x       y       z     vdW  Elec       q    Type
REMARK                         _______ _______ _______ _____ _____    ______ ____
ROOT
ATOM      1  N   UNL     1       5.047  -1.841   0.000  0.00  0.00    -0.155 NA
ATOM      2  C   UNL     1       5.660  -2.393   0.000  0.00  0.00    +0.344 C 
ATOM      3  N   UNL     1       6.445  -2.138   0.000  0.00  0.00    -0.189 NA
ATOM      4  O   UNL     1       5.489  -3.200   0.000  0.00  0.00    -0.249 OA
ENDROOT
BRANCH   1  11
ATOM      5  C   UNL     1       3.595  -1.611   0.000  0.00  0.00    +0.239 A 
ATOM      6  N   UNL     1       2.928  -2.096   0.000  0.00  0.00    -0.217 N 
ATOM      7  C   UNL     1       2.143  -1.841   0.000  0.00  0.00    +0.157 C 
ATOM      8  N   UNL     1       3.182  -2.881   0.000  0.00  0.00    -0.170 NA
ATOM      9  C   UNL     1       4.007  -2.881   0.000  0.00  0.00    +0.099 A 
ATOM     10  C   UNL     1       4.492  -3.548   0.000  0.00  0.00    +0.056 C 
ATOM     11  C   UNL     1       4.262  -2.096   0.000  0.00  0.00    +0.143 A 
BRANCH   5  13
ATOM     12  C   UNL     1       2.880  -0.374   0.000  0.00  0.00    +0.254 C 
ATOM     13  O   UNL     1       3.595  -0.786   0.000  0.00  0.00    -0.455 OA
ENDBRANCH   5  13
ENDBRANCH   1  11
BRANCH   3  14
ATOM     14  C   UNL     1       7.058  -2.691   0.000  0.00  0.00    +0.097 C 
ATOM     15  C   UNL     1       6.971  -3.511   0.000  0.00  0.00    +0.019 C 
ATOM     16  C   UNL     1       6.147  -3.520   0.000  0.00  0.00    +0.002 C 
ATOM     17  C   UNL     1       6.552  -4.221   0.000  0.00  0.00    +0.002 C 
ATOM     18  C   UNL     1       7.725  -3.846   0.000  0.00  0.00    +0.002 C 
ATOM     19  C   UNL     1       8.277  -3.233   0.000  0.00  0.00    +0.002 C 
ATOM     20  C   UNL     1       7.865  -2.519   0.000  0.00  0.00    +0.022 C 
ENDBRANCH   3  14
TORSDOF 3
