REMARK  Name = 
REMARK  6 active torsions:
REMARK  status: ('A' for Active; 'I' for Inactive)
REMARK    1  A    between atoms: C_2  and  C_4
REMARK    2  A    between atoms: C_4  and  C_5
REMARK    3  A    between atoms: C_4  and  N_19
REMARK    4  A    between atoms: C_5  and  N_6
REMARK    5  A    between atoms: C_7  and  C_9
REMARK    6  A    between atoms: C_9  and  N_10
REMARK                            x       y       z     vdW  Elec       q    Type
REMARK                         _______ _______ _______ _____ _____    ______ ____
ROOT
ATOM      1  N   UNL     1       2.143  -1.238   0.000  0.00  0.00    -0.202 NA
ATOM      2  C   UNL     1       2.858  -0.825   0.000  0.00  0.00    +0.265 C 
ATOM      3  O   UNL     1       2.858   0.000   0.000  0.00  0.00    -0.271 OA
ENDROOT
BRANCH   2   4
ATOM      4  C   UNL     1       3.572  -1.238   0.000  0.00  0.00    +0.197 C 
BRANCH   4   5
ATOM      5  N   UNL     1       4.287  -0.825   0.000  0.00  0.00    -0.271 N 
ATOM      6  C   UNL     1       5.001  -1.238   0.000  0.00  0.00    +0.334 A 
ATOM      7  O   UNL     1       5.001  -2.062   0.000  0.00  0.00    -0.246 OA
ATOM      8  N   UNL     1       5.716  -0.825   0.000  0.00  0.00    -0.247 N 
ATOM      9  C   UNL     1       6.430  -1.238   0.000  0.00  0.00    +0.138 C 
ATOM     10  C   UNL     1       5.716   0.000   0.000  0.00  0.00    +0.266 A 
ATOM     11  O   UNL     1       6.430   0.412   0.000  0.00  0.00    -0.267 OA
ATOM     12  C   UNL     1       5.001   0.412   0.000  0.00  0.00    +0.080 A 
ATOM     13  C   UNL     1       4.287   0.000   0.000  0.00  0.00    +0.085 A 
ENDBRANCH   4   5
ENDBRANCH   2   4
BRANCH   1  14
ATOM     14  C   UNL     1       1.429  -0.825   0.000  0.00  0.00    +0.131 C 
BRANCH  14  15
ATOM     15  C   UNL     1       0.715  -1.238   0.000  0.00  0.00    +0.079 C 
BRANCH  15  16
ATOM     16  N   UNL     1       0.000  -0.825   0.000  0.00  0.00    -0.268 NA
ATOM     17  C   UNL     1       0.000   0.000   0.000  0.00  0.00    +0.105 C 
ATOM     18  C   UNL     1      -0.715   0.412   0.000  0.00  0.00    +0.159 C 
ATOM     19  O   UNL     1      -1.429   0.000   0.000  0.00  0.00    -0.351 OA
ATOM     20  C   UNL     1      -1.429  -0.825   0.000  0.00  0.00    +0.159 C 
ATOM     21  C   UNL     1      -0.715  -1.238   0.000  0.00  0.00    +0.105 C 
ENDBRANCH  15  16
BRANCH  15  23
ATOM     22  C   UNL     1       1.429  -2.475   0.000  0.00  0.00    +0.001 C 
ATOM     23  C   UNL     1       0.715  -2.062   0.000  0.00  0.00    +0.016 C 
ATOM     24  C   UNL     1       0.000  -2.475   0.000  0.00  0.00    +0.001 C 
ENDBRANCH  15  23
ENDBRANCH  14  15
ENDBRANCH   1  14
TORSDOF 6
