REMARK  Name = 
REMARK  5 active torsions:
REMARK  status: ('A' for Active; 'I' for Inactive)
REMARK    1  A    between atoms: N_5  and  C_6
REMARK    2  A    between atoms: C_6  and  C_7
REMARK    3  A    between atoms: C_7  and  N_8
REMARK    4  A    between atoms: C_9  and  C_11
REMARK    5  A    between atoms: C_11  and  C_12
REMARK                            x       y       z     vdW  Elec       q    Type
REMARK                         _______ _______ _______ _____ _____    ______ ____
ROOT
ATOM      1  N   UNL     1       2.143   2.062   0.000  0.00  0.00    -0.204 NA
ATOM      2  C   UNL     1       2.858   1.650   0.000  0.00  0.00    +0.246 C 
ATOM      3  O   UNL     1       2.858   0.825   0.000  0.00  0.00    -0.273 OA
ENDROOT
BRANCH   1   4
ATOM      4  C   UNL     1       1.429   1.650   0.000  0.00  0.00    +0.132 C 
BRANCH   4   5
ATOM      5  C   UNL     1       0.715   2.062   0.000  0.00  0.00    +0.096 C 
BRANCH   5  10
ATOM      6  C   UNL     1      -2.143   0.412   0.000  0.00  0.00    +0.090 C 
ATOM      7  N   UNL     1      -1.429   0.825   0.000  0.00  0.00    -0.269 NA
ATOM      8  C   UNL     1      -0.715   0.412   0.000  0.00  0.00    +0.090 C 
ATOM      9  C   UNL     1       0.000   0.825   0.000  0.00  0.00    +0.090 C 
ATOM     10  N   UNL     1       0.000   1.650   0.000  0.00  0.00    -0.269 NA
ATOM     11  C   UNL     1      -0.715   2.062   0.000  0.00  0.00    +0.090 C 
ATOM     12  C   UNL     1      -1.429   1.650   0.000  0.00  0.00    +0.090 C 
ENDBRANCH   5  10
ENDBRANCH   4   5
ENDBRANCH   1   4
BRANCH   2  13
ATOM     13  C   UNL     1       3.572   2.062   0.000  0.00  0.00    +0.117 C 
BRANCH  13  14
ATOM     14  C   UNL     1       4.287   1.650   0.000  0.00  0.00    +0.037 A 
ATOM     15  C   UNL     1       4.373   0.830   0.000  0.00  0.00    +0.151 A 
ATOM     16  C   UNL     1       3.760   0.278   0.000  0.00  0.00    +0.075 C 
ATOM     17  O   UNL     1       5.180   0.658   0.000  0.00  0.00    -0.358 OA
ATOM     18  N   UNL     1       5.593   1.373   0.000  0.00  0.00    -0.082 NA
ATOM     19  C   UNL     1       5.040   1.986   0.000  0.00  0.00    +0.097 A 
ATOM     20  C   UNL     1       5.212   2.792   0.000  0.00  0.00    +0.055 C 
ENDBRANCH  13  14
ENDBRANCH   2  13
TORSDOF 5
