REMARK  Name = 
REMARK  6 active torsions:
REMARK  status: ('A' for Active; 'I' for Inactive)
REMARK    1  A    between atoms: N_1  and  C_3
REMARK    2  A    between atoms: N_4  and  C_12
REMARK    3  A    between atoms: C_7  and  C_11
REMARK    4  A    between atoms: C_12  and  C_15
REMARK    5  A    between atoms: C_15  and  C_19
REMARK    6  A    between atoms: C_17  and  O_23
REMARK                            x       y       z     vdW  Elec       q    Type
REMARK                         _______ _______ _______ _____ _____    ______ ____
ROOT
ATOM      1  C   UNL     1       3.275   1.238   0.000  0.00  0.00    +0.155 A 
ATOM      2  N   UNL     1       3.992   0.825   0.000  0.00  0.00    -0.207 NA
ATOM      3  C   UNL     1       3.992   0.000   0.000  0.00  0.00    +0.201 A 
ATOM      4  N   UNL     1       3.275  -0.412   0.000  0.00  0.00    -0.205 NA
ATOM      5  C   UNL     1       2.562   0.000   0.000  0.00  0.00    +0.167 A 
ATOM      6  N   UNL     1       1.779  -0.254   0.000  0.00  0.00    -0.292 N 
ATOM      7  C   UNL     1       1.292   0.412   0.000  0.00  0.00    +0.180 A 
ATOM      8  N   UNL     1       1.779   1.083   0.000  0.00  0.00    -0.219 NA
ATOM      9  C   UNL     1       2.562   0.825   0.000  0.00  0.00    +0.149 A 
ENDROOT
BRANCH   1  10
ATOM     10  N   UNL     1       3.275   2.062   0.000  0.00  0.00    -0.283 N 
ATOM     11  C   UNL     1       2.608   2.550   0.000  0.00  0.00    +0.122 C 
ATOM     12  C   UNL     1       2.862   3.333   0.000  0.00  0.00    +0.137 C 
ATOM     13  C   UNL     1       3.688   3.333   0.000  0.00  0.00    +0.061 C 
ATOM     14  C   UNL     1       3.946   2.550   0.000  0.00  0.00    +0.157 C 
BRANCH  14  15
ATOM     15  C   UNL     1       4.729   2.296   0.000  0.00  0.00    +0.279 C 
ATOM     16  N   UNL     1       5.342   2.846   0.000  0.00  0.00    -0.086 NA
ATOM     17  O   UNL     1       4.900   1.488   0.000  0.00  0.00    -0.270 OA
ENDBRANCH  14  15
BRANCH  12  18
ATOM     18  O   UNL     1       2.379   4.000   0.000  0.00  0.00    -0.352 OA
ATOM     19  C   UNL     1       2.717   4.750   0.000  0.00  0.00    +0.174 C 
ENDBRANCH  12  18
ENDBRANCH   1  10
BRANCH   6  20
ATOM     20  C   UNL     1       1.521  -1.038   0.000  0.00  0.00    +0.144 C 
BRANCH  20  21
ATOM     21  C   UNL     1       2.075  -1.650   0.000  0.00  0.00    +0.201 C 
ATOM     22  O   UNL     1       2.883  -1.479   0.000  0.00  0.00    -0.218 OA
BRANCH  21  23
ATOM     23  C   UNL     1       1.821  -2.433   0.000  0.00  0.00    +0.147 C 
ATOM     24  C   UNL     1       2.304  -3.104   0.000  0.00  0.00    +0.035 C 
ATOM     25  C   UNL     1       1.821  -3.771   0.000  0.00  0.00    +0.035 C 
ATOM     26  C   UNL     1       1.033  -3.517   0.000  0.00  0.00    +0.142 C 
ATOM     27  O   UNL     1       1.033  -2.692   0.000  0.00  0.00    -0.354 OA
ENDBRANCH  21  23
ENDBRANCH  20  21
ENDBRANCH   6  20
TORSDOF 6
