REMARK  Name = 
REMARK  6 active torsions:
REMARK  status: ('A' for Active; 'I' for Inactive)
REMARK    1  A    between atoms: C_4  and  C_5
REMARK    2  A    between atoms: C_7  and  C_8
REMARK    3  A    between atoms: N_10  and  C_11
REMARK    4  A    between atoms: C_11  and  C_12
REMARK    5  A    between atoms: C_12  and  N_13
REMARK    6  A    between atoms: C_14  and  C_16
REMARK                            x       y       z     vdW  Elec       q    Type
REMARK                         _______ _______ _______ _____ _____    ______ ____
ROOT
ATOM      1  N   UNL     1      -0.253  -3.138   0.000  0.00  0.00    -0.088 NA
ATOM      2  C   UNL     1      -0.081  -2.331   0.000  0.00  0.00    +0.239 A 
ATOM      3  N   UNL     1       0.672  -1.996   0.000  0.00  0.00    -0.287 N 
ATOM      4  C   UNL     1       0.586  -1.175   0.000  0.00  0.00    +0.159 A 
ATOM      5  C   UNL     1      -0.221  -1.004   0.000  0.00  0.00    +0.178 A 
ATOM      6  N   UNL     1      -0.633  -1.718   0.000  0.00  0.00    -0.200 NA
ENDROOT
BRANCH   4   7
ATOM      7  C   UNL     1       1.199  -0.623   0.000  0.00  0.00    +0.120 C 
ATOM      8  N   UNL     1       1.812  -0.071   0.000  0.00  0.00    -0.189 NA
ENDBRANCH   4   7
BRANCH   5   9
ATOM      9  C   UNL     1      -0.556  -0.250   0.000  0.00  0.00    +0.122 C 
ATOM     10  N   UNL     1      -0.892   0.504   0.000  0.00  0.00    -0.189 NA
ENDBRANCH   5   9
BRANCH   3  11
ATOM     11  C   UNL     1       1.387  -2.408   0.000  0.00  0.00    +0.133 C 
BRANCH  11  12
ATOM     12  C   UNL     1       2.102  -1.996   0.000  0.00  0.00    +0.140 C 
BRANCH  12  13
ATOM     13  N   UNL     1       2.816  -2.408   0.000  0.00  0.00    -0.203 NA
ATOM     14  C   UNL     1       3.530  -1.996   0.000  0.00  0.00    +0.241 C 
ATOM     15  O   UNL     1       3.530  -1.171   0.000  0.00  0.00    -0.273 OA
BRANCH  14  16
ATOM     16  C   UNL     1       4.245  -2.408   0.000  0.00  0.00    +0.078 C 
ATOM     17  C   UNL     1       4.331  -3.229   0.000  0.00  0.00    +0.009 C 
ATOM     18  C   UNL     1       5.138  -3.400   0.000  0.00  0.00    +0.001 C 
ATOM     19  C   UNL     1       5.551  -2.686   0.000  0.00  0.00    +0.001 C 
ATOM     20  C   UNL     1       4.999  -2.073   0.000  0.00  0.00    +0.009 C 
ENDBRANCH  14  16
ENDBRANCH  12  13
ENDBRANCH  11  12
ENDBRANCH   3  11
TORSDOF 6
