REMARK  Name = 
REMARK  5 active torsions:
REMARK  status: ('A' for Active; 'I' for Inactive)
REMARK    1  A    between atoms: C_2  and  C_3
REMARK    2  A    between atoms: C_2  and  N_9
REMARK    3  A    between atoms: C_3  and  N_4
REMARK    4  A    between atoms: C_10  and  C_12
REMARK    5  A    between atoms: C_12  and  N_13
REMARK                            x       y       z     vdW  Elec       q    Type
REMARK                         _______ _______ _______ _____ _____    ______ ____
ROOT
ATOM      1  N   UNL     1       2.733  -4.050   0.000  0.00  0.00    -0.204 NA
ATOM      2  C   UNL     1       3.447  -4.462   0.000  0.00  0.00    +0.262 C 
ATOM      3  O   UNL     1       3.447  -5.287   0.000  0.00  0.00    -0.271 OA
ENDROOT
BRANCH   1   5
ATOM      4  C   UNL     1       2.018  -5.287   0.000  0.00  0.00    +0.025 C 
ATOM      5  C   UNL     1       2.018  -4.462   0.000  0.00  0.00    +0.118 C 
BRANCH   5   6
ATOM      6  C   UNL     1       1.304  -4.050   0.000  0.00  0.00    +0.129 C 
BRANCH   6   7
ATOM      7  N   UNL     1       0.589  -4.462   0.000  0.00  0.00    -0.306 N 
ATOM      8  C   UNL     1      -0.164  -4.127   0.000  0.00  0.00    +0.179 A 
ATOM      9  N   UNL     1      -0.716  -4.740   0.000  0.00  0.00    -0.222 NA
ATOM     10  C   UNL     1      -0.304  -5.454   0.000  0.00  0.00    +0.119 A 
ATOM     11  C   UNL     1       0.503  -5.283   0.000  0.00  0.00    +0.098 A 
ENDBRANCH   6   7
ENDBRANCH   5   6
ENDBRANCH   1   5
BRANCH   2  12
ATOM     12  C   UNL     1       4.162  -4.050   0.000  0.00  0.00    +0.181 C 
BRANCH  12  13
ATOM     13  N   UNL     1       4.876  -4.462   0.000  0.00  0.00    -0.271 N 
ATOM     14  C   UNL     1       4.814  -5.285   0.000  0.00  0.00    +0.226 C 
ATOM     15  O   UNL     1       4.046  -5.586   0.000  0.00  0.00    -0.275 OA
ATOM     16  C   UNL     1       5.419  -5.846   0.000  0.00  0.00    +0.085 C 
ATOM     17  C   UNL     1       6.235  -5.723   0.000  0.00  0.00    +0.010 C 
ATOM     18  C   UNL     1       6.648  -5.008   0.000  0.00  0.00    +0.002 C 
ATOM     19  C   UNL     1       6.346  -4.240   0.000  0.00  0.00    +0.022 C 
ATOM     20  C   UNL     1       5.558  -3.997   0.000  0.00  0.00    +0.094 C 
ENDBRANCH  12  13
ENDBRANCH   2  12
TORSDOF 5
