REMARK  Name = 
REMARK  5 active torsions:
REMARK  status: ('A' for Active; 'I' for Inactive)
REMARK    1  A    between atoms: C_2  and  C_3
REMARK    2  A    between atoms: C_3  and  N_4
REMARK    3  A    between atoms: N_4  and  C_5
REMARK    4  A    between atoms: C_5  and  C_6
REMARK    5  A    between atoms: C_6  and  N_7
REMARK                            x       y       z     vdW  Elec       q    Type
REMARK                         _______ _______ _______ _____ _____    ______ ____
ROOT
ATOM      1  C   UNL     1       0.248  -1.407   0.000  0.00  0.00    +0.119 C 
ENDROOT
BRANCH   1   3
ATOM      2  O   UNL     1       0.064  -2.452   0.000  0.00  0.00    -0.224 OA
ATOM      3  C   UNL     1      -0.466  -1.820   0.000  0.00  0.00    +0.143 C 
ATOM      4  C   UNL     1      -0.749  -1.044   0.000  0.00  0.00    +0.032 C 
ATOM      5  C   UNL     1      -1.561  -0.901   0.000  0.00  0.00    +0.003 C 
ATOM      6  C   UNL     1      -2.091  -1.533   0.000  0.00  0.00    +0.000 C 
ATOM      7  C   UNL     1      -1.809  -2.308   0.000  0.00  0.00    +0.003 C 
ATOM      8  C   UNL     1      -0.997  -2.452   0.000  0.00  0.00    +0.032 C 
ENDBRANCH   1   3
BRANCH   1   9
ATOM      9  N   UNL     1       0.963  -1.820   0.000  0.00  0.00    -0.213 NA
BRANCH   9  10
ATOM     10  C   UNL     1       1.677  -1.407   0.000  0.00  0.00    +0.115 C 
BRANCH  10  11
ATOM     11  C   UNL     1       2.392  -1.820   0.000  0.00  0.00    +0.146 C 
BRANCH  11  12
ATOM     12  N   UNL     1       3.106  -1.407   0.000  0.00  0.00    -0.248 N 
ATOM     13  N   UNL     1       3.860  -1.743   0.000  0.00  0.00    -0.168 NA
ATOM     14  C   UNL     1       4.412  -1.130   0.000  0.00  0.00    +0.122 A 
ATOM     15  C   UNL     1       3.999  -0.415   0.000  0.00  0.00    +0.043 A 
ATOM     16  C   UNL     1       3.192  -0.587   0.000  0.00  0.00    +0.097 A 
ENDBRANCH  11  12
ENDBRANCH  10  11
ENDBRANCH   9  10
ENDBRANCH   1   9
TORSDOF 5
