REMARK  Name = 
REMARK  3 active torsions:
REMARK  status: ('A' for Active; 'I' for Inactive)
REMARK    1  A    between atoms: C_2  and  C_3
REMARK    2  A    between atoms: C_4  and  N_5
REMARK    3  A    between atoms: N_8  and  C_9
REMARK                            x       y       z     vdW  Elec       q    Type
REMARK                         _______ _______ _______ _____ _____    ______ ____
ROOT
ATOM      1  N   UNL     1      -0.551  -0.696   0.000  0.00  0.00    -0.189 NA
ATOM      2  C   UNL     1      -1.265  -0.283   0.000  0.00  0.00    +0.343 C 
ATOM      3  N   UNL     1      -1.980  -0.696   0.000  0.00  0.00    -0.159 NA
ATOM      4  O   UNL     1      -1.265   0.542   0.000  0.00  0.00    -0.249 OA
ENDROOT
BRANCH   1  11
ATOM      5  C   UNL     1       0.164   0.542   0.000  0.00  0.00    +0.053 C 
ATOM      6  C   UNL     1       0.878   0.954   0.000  0.00  0.00    +0.004 C 
ATOM      7  C   UNL     1       0.672   0.129   0.000  0.00  0.00    +0.002 C 
ATOM      8  C   UNL     1       0.878  -0.696   0.000  0.00  0.00    +0.020 C 
ATOM      9  C   UNL     1       1.593  -0.283   0.000  0.00  0.00    +0.002 C 
ATOM     10  C   UNL     1       1.593   0.542   0.000  0.00  0.00    +0.000 C 
ATOM     11  C   UNL     1       0.164  -0.283   0.000  0.00  0.00    +0.099 C 
BRANCH   5  13
ATOM     12  O   UNL     1      -0.551   1.779   0.000  0.00  0.00    -0.220 OA
ATOM     13  C   UNL     1      -0.551   0.954   0.000  0.00  0.00    +0.184 C 
ENDBRANCH   5  13
ENDBRANCH   1  11
BRANCH   3  14
ATOM     14  C   UNL     1      -2.694  -0.283   0.000  0.00  0.00    +0.094 A 
ATOM     15  C   UNL     1      -2.694   0.542   0.000  0.00  0.00    +0.115 A 
ATOM     16  N   UNL     1      -3.409   0.954   0.000  0.00  0.00    -0.241 NA
ATOM     17  C   UNL     1      -4.123   0.542   0.000  0.00  0.00    +0.099 A 
ATOM     18  C   UNL     1      -4.123  -0.283   0.000  0.00  0.00    +0.022 A 
ATOM     19  C   UNL     1      -3.409  -0.696   0.000  0.00  0.00    +0.020 A 
ENDBRANCH   3  14
TORSDOF 3
