REMARK  Name = 
REMARK  4 active torsions:
REMARK  status: ('A' for Active; 'I' for Inactive)
REMARK    1  A    between atoms: C_5  and  C_9
REMARK    2  A    between atoms: N_11  and  C_12
REMARK    3  A    between atoms: C_12  and  C_13
REMARK    4  A    between atoms: C_13  and  N_14
REMARK                            x       y       z     vdW  Elec       q    Type
REMARK                         _______ _______ _______ _____ _____    ______ ____
ROOT
ATOM      1  C   UNL     1      -0.715   2.062   0.000  0.00  0.00    +0.241 C 
ATOM      2  N   UNL     1       0.000   2.475   0.000  0.00  0.00    -0.203 NA
ATOM      3  O   UNL     1      -0.715   1.238   0.000  0.00  0.00    -0.273 OA
ENDROOT
BRANCH   1   9
ATOM      4  C   UNL     1      -3.572   3.712   0.000  0.00  0.00    +0.115 C 
ATOM      5  N   UNL     1      -2.858   3.300   0.000  0.00  0.00    -0.278 N 
ATOM      6  C   UNL     1      -2.858   2.475   0.000  0.00  0.00    +0.226 C 
ATOM      7  O   UNL     1      -3.572   2.062   0.000  0.00  0.00    -0.275 OA
ATOM      8  C   UNL     1      -2.143   2.062   0.000  0.00  0.00    +0.094 C 
ATOM      9  C   UNL     1      -1.429   2.475   0.000  0.00  0.00    +0.089 C 
ATOM     10  C   UNL     1      -1.429   3.300   0.000  0.00  0.00    +0.031 C 
ATOM     11  C   UNL     1      -2.143   3.712   0.000  0.00  0.00    +0.094 C 
ENDBRANCH   1   9
BRANCH   2  12
ATOM     12  C   UNL     1       0.715   2.062   0.000  0.00  0.00    +0.140 C 
BRANCH  12  13
ATOM     13  C   UNL     1       1.429   2.475   0.000  0.00  0.00    +0.131 C 
BRANCH  13  14
ATOM     14  N   UNL     1       2.143   2.062   0.000  0.00  0.00    -0.306 N 
ATOM     15  C   UNL     1       2.230   1.242   0.000  0.00  0.00    +0.179 A 
ATOM     16  N   UNL     1       3.037   1.071   0.000  0.00  0.00    -0.222 NA
ATOM     17  C   UNL     1       3.449   1.785   0.000  0.00  0.00    +0.119 A 
ATOM     18  C   UNL     1       2.897   2.398   0.000  0.00  0.00    +0.098 A 
ENDBRANCH  13  14
ENDBRANCH  12  13
ENDBRANCH   2  12
TORSDOF 4
