REMARK  Name = 
REMARK  6 active torsions:
REMARK  status: ('A' for Active; 'I' for Inactive)
REMARK    1  A    between atoms: N_2  and  C_11
REMARK    2  A    between atoms: N_4  and  C_6
REMARK    3  A    between atoms: C_10  and  N_15
REMARK    4  A    between atoms: C_11  and  C_14
REMARK    5  A    between atoms: C_17  and  C_23
REMARK    6  A    between atoms: C_23  and  O_25
REMARK                            x       y       z     vdW  Elec       q    Type
REMARK                         _______ _______ _______ _____ _____    ______ ____
ROOT
ATOM      1  C   UNL     1       2.563   0.825   0.000  0.00  0.00    +0.149 A 
ATOM      2  C   UNL     1       3.275   1.238   0.000  0.00  0.00    +0.154 A 
ATOM      3  N   UNL     1       3.992   0.825   0.000  0.00  0.00    -0.207 NA
ATOM      4  C   UNL     1       3.992   0.000   0.000  0.00  0.00    +0.201 A 
ATOM      5  N   UNL     1       3.275  -0.412   0.000  0.00  0.00    -0.205 NA
ATOM      6  N   UNL     1       1.779   1.083   0.000  0.00  0.00    -0.219 NA
ATOM      7  C   UNL     1       1.292   0.412   0.000  0.00  0.00    +0.180 A 
ATOM      8  N   UNL     1       1.779  -0.254   0.000  0.00  0.00    -0.292 N 
ATOM      9  C   UNL     1       2.563   0.000   0.000  0.00  0.00    +0.167 A 
ENDROOT
BRANCH   2  10
ATOM     10  N   UNL     1       3.275   2.063   0.000  0.00  0.00    -0.288 N 
ATOM     11  C   UNL     1       3.859   2.650   0.000  0.00  0.00    +0.116 C 
ATOM     12  C   UNL     1       3.275   3.234   0.000  0.00  0.00    +0.135 C 
ATOM     13  C   UNL     1       2.692   2.650   0.000  0.00  0.00    +0.116 C 
BRANCH  12  14
ATOM     14  N   UNL     1       3.275   4.055   0.000  0.00  0.00    -0.202 NA
ATOM     15  C   UNL     1       2.563   4.467   0.000  0.00  0.00    +0.272 C 
ATOM     16  O   UNL     1       1.850   4.055   0.000  0.00  0.00    -0.271 OA
BRANCH  15  17
ATOM     17  C   UNL     1       2.563   5.292   0.000  0.00  0.00    +0.229 C 
BRANCH  17  18
ATOM     18  O   UNL     1       1.850   5.705   0.000  0.00  0.00    -0.342 OA
ATOM     19  C   UNL     1       1.850   6.530   0.000  0.00  0.00    +0.175 C 
ENDBRANCH  17  18
ENDBRANCH  15  17
ENDBRANCH  12  14
ENDBRANCH   2  10
BRANCH   8  20
ATOM     20  C   UNL     1       1.521  -1.038   0.000  0.00  0.00    +0.142 C 
BRANCH  20  21
ATOM     21  C   UNL     1       0.717  -1.208   0.000  0.00  0.00    +0.177 C 
ATOM     22  C   UNL     1      -0.108  -1.208   0.000  0.00  0.00    +0.174 C 
ATOM     23  O   UNL     1      -0.362  -1.992   0.000  0.00  0.00    -0.351 OA
ATOM     24  C   UNL     1       0.304  -2.479   0.000  0.00  0.00    +0.145 C 
ATOM     25  O   UNL     1       0.629  -0.388   0.000  0.00  0.00    -0.221 OA
ATOM     26  C   UNL     1       0.971  -1.992   0.000  0.00  0.00    +0.067 C 
ENDBRANCH  20  21
ENDBRANCH   8  20
TORSDOF 6
