REMARK  Name = 
REMARK  6 active torsions:
REMARK  status: ('A' for Active; 'I' for Inactive)
REMARK    1  A    between atoms: C_5  and  C_6
REMARK    2  A    between atoms: C_6  and  C_7
REMARK    3  A    between atoms: C_7  and  N_8
REMARK    4  A    between atoms: C_9  and  C_11
REMARK    5  A    between atoms: C_11  and  N_12
REMARK    6  A    between atoms: C_13  and  C_15
REMARK                            x       y       z     vdW  Elec       q    Type
REMARK                         _______ _______ _______ _____ _____    ______ ____
ROOT
ATOM      1  N   UNL     1       2.469   1.865   0.000  0.00  0.00    -0.203 NA
ATOM      2  C   UNL     1       3.183   2.277   0.000  0.00  0.00    +0.263 C 
ATOM      3  O   UNL     1       3.183   3.102   0.000  0.00  0.00    -0.271 OA
ENDROOT
BRANCH   1   4
ATOM      4  C   UNL     1       1.754   2.277   0.000  0.00  0.00    +0.122 C 
BRANCH   4   5
ATOM      5  C   UNL     1       1.040   1.865   0.000  0.00  0.00    +0.076 C 
BRANCH   5   9
ATOM      6  C   UNL     1      -1.801   2.468   0.000  0.00  0.00    +0.053 C 
ATOM      7  C   UNL     1      -0.981   2.555   0.000  0.00  0.00    +0.066 A 
ATOM      8  N   UNL     1      -0.429   1.942   0.000  0.00  0.00    -0.247 NA
ATOM      9  C   UNL     1       0.325   2.277   0.000  0.00  0.00    +0.090 A 
ATOM     10  S   UNL     1       0.239   3.098   0.000  0.00  0.00    -0.071 S 
ATOM     11  C   UNL     1      -0.568   3.269   0.000  0.00  0.00    +0.051 A 
ENDBRANCH   5   9
ENDBRANCH   4   5
ENDBRANCH   1   4
BRANCH   2  12
ATOM     12  C   UNL     1       3.897   1.865   0.000  0.00  0.00    +0.201 C 
BRANCH  12  13
ATOM     13  N   UNL     1       4.612   2.277   0.000  0.00  0.00    -0.195 NA
ATOM     14  C   UNL     1       5.326   1.865   0.000  0.00  0.00    +0.241 C 
ATOM     15  O   UNL     1       5.326   1.040   0.000  0.00  0.00    -0.273 OA
BRANCH  14  16
ATOM     16  C   UNL     1       6.041   2.277   0.000  0.00  0.00    +0.071 C 
ATOM     17  C   UNL     1       5.628   2.991   0.000  0.00  0.00    +0.009 C 
ATOM     18  C   UNL     1       6.453   1.563   0.000  0.00  0.00    +0.009 C 
ATOM     19  C   UNL     1       6.755   2.690   0.000  0.00  0.00    +0.009 C 
ENDBRANCH  14  16
ENDBRANCH  12  13
ENDBRANCH   2  12
TORSDOF 6
