REMARK  Name = 
REMARK  6 active torsions:
REMARK  status: ('A' for Active; 'I' for Inactive)
REMARK    1  A    between atoms: C_7  and  O_8
REMARK    2  A    between atoms: O_8  and  C_9
REMARK    3  A    between atoms: C_9  and  C_10
REMARK    4  A    between atoms: C_10  and  C_12
REMARK    5  A    between atoms: C_12  and  N_13
REMARK    6  A    between atoms: C_15  and  C_20
REMARK                            x       y       z     vdW  Elec       q    Type
REMARK                         _______ _______ _______ _____ _____    ______ ____
ROOT
ATOM      1  C   UNL     1       2.858  -2.475   0.000  0.00  0.00    +0.167 C 
ENDROOT
BRANCH   1   2
ATOM      2  N   UNL     1       3.572  -2.888   0.000  0.00  0.00    -0.214 N 
ATOM      3  C   UNL     1       3.572  -3.712   0.000  0.00  0.00    +0.277 A 
ATOM      4  O   UNL     1       2.858  -4.125   0.000  0.00  0.00    -0.266 OA
ATOM      5  C   UNL     1       4.287  -4.125   0.000  0.00  0.00    +0.064 A 
ATOM      6  C   UNL     1       5.001  -3.712   0.000  0.00  0.00    +0.030 A 
ATOM      7  C   UNL     1       5.001  -2.888   0.000  0.00  0.00    +0.172 A 
ATOM      8  N   UNL     1       4.287  -2.475   0.000  0.00  0.00    -0.163 NA
BRANCH   7   9
ATOM      9  C   UNL     1       5.716  -2.475   0.000  0.00  0.00    +0.436 C 
ATOM     10  F   UNL     1       5.303  -1.760   0.000  0.00  0.00    -0.164 F 
ATOM     11  F   UNL     1       6.128  -3.189   0.000  0.00  0.00    -0.164 F 
ATOM     12  F   UNL     1       6.430  -2.062   0.000  0.00  0.00    -0.164 F 
ENDBRANCH   7   9
ENDBRANCH   1   2
BRANCH   1  13
ATOM     13  C   UNL     1       2.143  -2.888   0.000  0.00  0.00    +0.220 C 
ATOM     14  O   UNL     1       2.143  -3.712   0.000  0.00  0.00    -0.217 OA
BRANCH  13  15
ATOM     15  C   UNL     1       1.429  -2.475   0.000  0.00  0.00    +0.240 C 
BRANCH  15  16
ATOM     16  O   UNL     1       0.715  -2.888   0.000  0.00  0.00    -0.473 OA
BRANCH  16  19
ATOM     17  C   UNL     1      -0.715  -3.712   0.000  0.00  0.00    +0.034 C 
ATOM     18  C   UNL     1      -0.715  -2.888   0.000  0.00  0.00    +0.012 A 
ATOM     19  C   UNL     1       0.000  -2.475   0.000  0.00  0.00    +0.135 A 
ATOM     20  C   UNL     1       0.000  -1.650   0.000  0.00  0.00    +0.037 A 
ATOM     21  C   UNL     1      -0.715  -1.238   0.000  0.00  0.00    +0.003 A 
ATOM     22  C   UNL     1      -1.429  -1.650   0.000  0.00  0.00    -0.000 A 
ATOM     23  C   UNL     1      -1.429  -2.475   0.000  0.00  0.00    -0.001 A 
ENDBRANCH  16  19
ENDBRANCH  15  16
ENDBRANCH  13  15
ENDBRANCH   1  13
TORSDOF 6
