REMARK  Name = 
REMARK  5 active torsions:
REMARK  status: ('A' for Active; 'I' for Inactive)
REMARK    1  A    between atoms: O_2  and  C_3
REMARK    2  A    between atoms: C_3  and  C_4
REMARK    3  A    between atoms: C_9  and  N_10
REMARK    4  A    between atoms: N_10  and  C_11
REMARK    5  A    between atoms: C_17  and  O_18
REMARK                            x       y       z     vdW  Elec       q    Type
REMARK                         _______ _______ _______ _____ _____    ______ ____
ROOT
ATOM      1  C   UNL     1      -1.115  -0.980   0.000  0.00  0.00    +0.170 A 
ATOM      2  N   UNL     1      -0.401  -1.393   0.000  0.00  0.00    -0.212 NA
ATOM      3  C   UNL     1      -0.401  -2.217   0.000  0.00  0.00    +0.150 A 
ATOM      4  C   UNL     1      -1.115  -2.630   0.000  0.00  0.00    +0.051 A 
ATOM      5  C   UNL     1      -1.830  -2.217   0.000  0.00  0.00    +0.064 A 
ATOM      6  C   UNL     1      -2.544  -2.630   0.000  0.00  0.00    +0.052 C 
ATOM      7  N   UNL     1      -1.830  -1.393   0.000  0.00  0.00    -0.232 NA
ENDROOT
BRANCH   1   8
ATOM      8  C   UNL     1      -1.115  -0.155   0.000  0.00  0.00    +0.207 C 
BRANCH   8  10
ATOM      9  C   UNL     1      -0.401   1.083   0.000  0.00  0.00    +0.175 C 
ATOM     10  O   UNL     1      -0.401   0.258   0.000  0.00  0.00    -0.343 OA
ENDBRANCH   8  10
ENDBRANCH   1   8
BRANCH   3  11
ATOM     11  N   UNL     1       0.314  -2.630   0.000  0.00  0.00    -0.220 NA
BRANCH  11  12
ATOM     12  C   UNL     1       1.028  -2.217   0.000  0.00  0.00    +0.121 C 
ATOM     13  C   UNL     1       1.710  -2.682   0.000  0.00  0.00    +0.135 C 
ATOM     14  C   UNL     1       2.498  -2.439   0.000  0.00  0.00    +0.031 C 
ATOM     15  C   UNL     1       2.800  -1.671   0.000  0.00  0.00    +0.003 C 
ATOM     16  C   UNL     1       2.387  -0.957   0.000  0.00  0.00    +0.000 C 
ATOM     17  C   UNL     1       1.571  -0.834   0.000  0.00  0.00    +0.002 C 
ATOM     18  C   UNL     1       0.967  -1.395   0.000  0.00  0.00    +0.024 C 
BRANCH  13  19
ATOM     19  O   UNL     1       1.587  -3.498   0.000  0.00  0.00    -0.352 OA
ATOM     20  C   UNL     1       0.819  -3.800   0.000  0.00  0.00    +0.174 C 
ENDBRANCH  13  19
ENDBRANCH  11  12
ENDBRANCH   3  11
TORSDOF 5
