REMARK  Name = 
REMARK  4 active torsions:
REMARK  status: ('A' for Active; 'I' for Inactive)
REMARK    1  A    between atoms: O_2  and  C_3
REMARK    2  A    between atoms: C_3  and  C_4
REMARK    3  A    between atoms: C_4  and  N_5
REMARK    4  A    between atoms: C_4  and  C_16
REMARK                            x       y       z     vdW  Elec       q    Type
REMARK                         _______ _______ _______ _____ _____    ______ ____
ROOT
ATOM      1  N   UNL     1       3.572  -3.712   0.000  0.00  0.00    -0.186 NA
ATOM      2  C   UNL     1       4.287  -4.125   0.000  0.00  0.00    +0.345 C 
ATOM      3  N   UNL     1       5.001  -3.712   0.000  0.00  0.00    -0.142 NA
ATOM      4  C   UNL     1       5.716  -4.125   0.000  0.00  0.00    +0.156 A 
ATOM      5  N   UNL     1       5.716  -4.950   0.000  0.00  0.00    -0.233 NA
ATOM      6  C   UNL     1       6.430  -5.362   0.000  0.00  0.00    +0.061 A 
ATOM      7  C   UNL     1       6.430  -6.188   0.000  0.00  0.00    +0.052 C 
ATOM      8  C   UNL     1       7.145  -4.950   0.000  0.00  0.00    +0.015 A 
ATOM      9  C   UNL     1       7.145  -4.125   0.000  0.00  0.00    +0.004 A 
ATOM     10  C   UNL     1       6.430  -3.712   0.000  0.00  0.00    +0.036 A 
ATOM     11  O   UNL     1       4.287  -4.950   0.000  0.00  0.00    -0.249 OA
ENDROOT
BRANCH   1  12
ATOM     12  C   UNL     1       2.858  -4.125   0.000  0.00  0.00    +0.126 C 
BRANCH  12  13
ATOM     13  C   UNL     1       2.858  -4.950   0.000  0.00  0.00    +0.023 C 
ATOM     14  C   UNL     1       2.445  -5.665   0.000  0.00  0.00    +0.002 C 
ATOM     15  C   UNL     1       3.270  -5.665   0.000  0.00  0.00    +0.002 C 
ENDBRANCH  12  13
BRANCH  12  16
ATOM     16  C   UNL     1       2.143  -3.712   0.000  0.00  0.00    +0.164 C 
BRANCH  16  18
ATOM     17  C   UNL     1       0.715  -3.712   0.000  0.00  0.00    +0.174 C 
ATOM     18  O   UNL     1       1.429  -4.125   0.000  0.00  0.00    -0.349 OA
ENDBRANCH  16  18
ENDBRANCH  12  16
ENDBRANCH   1  12
TORSDOF 4
