REMARK  Name = 
REMARK  7 active torsions:
REMARK  status: ('A' for Active; 'I' for Inactive)
REMARK    1  A    between atoms: C_2  and  N_3
REMARK    2  A    between atoms: C_2  and  C_19
REMARK    3  A    between atoms: N_3  and  C_4
REMARK    4  A    between atoms: C_4  and  C_5
REMARK    5  A    between atoms: C_5  and  C_7
REMARK    6  A    between atoms: C_7  and  N_8
REMARK    7  A    between atoms: C_19  and  N_21
REMARK                            x       y       z     vdW  Elec       q    Type
REMARK                         _______ _______ _______ _____ _____    ______ ____
ROOT
ATOM      1  C   UNL     1       3.104   0.404   0.000  0.00  0.00    +0.192 C 
ATOM      2  O   UNL     1       3.104   1.229   0.000  0.00  0.00    -0.220 OA
ENDROOT
BRANCH   1   3
ATOM      3  C   UNL     1       2.389  -0.008   0.000  0.00  0.00    +0.142 C 
BRANCH   3   4
ATOM      4  N   UNL     1       1.675   0.404   0.000  0.00  0.00    -0.306 N 
ATOM      5  C   UNL     1       1.589   1.225   0.000  0.00  0.00    +0.079 A 
ATOM      6  C   UNL     1       0.782   1.396   0.000  0.00  0.00    +0.098 A 
ATOM      7  C   UNL     1       0.527   2.181   0.000  0.00  0.00    +0.016 A 
ATOM      8  C   UNL     1       1.079   2.794   0.000  0.00  0.00    -0.024 A 
ATOM      9  C   UNL     1       1.886   2.622   0.000  0.00  0.00    -0.024 A 
ATOM     10  C   UNL     1       2.438   3.235   0.000  0.00  0.00    +0.031 C 
ATOM     11  C   UNL     1       0.824   3.579   0.000  0.00  0.00    +0.031 C 
ATOM     12  N   UNL     1       0.369   0.682   0.000  0.00  0.00    -0.224 NA
ATOM     13  C   UNL     1       2.141   1.838   0.000  0.00  0.00    +0.014 A 
ATOM     14  C   UNL     1       0.921   0.069   0.000  0.00  0.00    +0.179 A 
ENDBRANCH   3   4
ENDBRANCH   1   3
BRANCH   1  15
ATOM     15  C   UNL     1       3.818  -0.008   0.000  0.00  0.00    +0.124 C 
BRANCH  15  16
ATOM     16  N   UNL     1       4.533   0.404   0.000  0.00  0.00    -0.215 NA
BRANCH  16  18
ATOM     17  C   UNL     1       5.247  -0.833   0.000  0.00  0.00    +0.021 C 
ATOM     18  C   UNL     1       5.247  -0.008   0.000  0.00  0.00    +0.095 C 
BRANCH  18  19
ATOM     19  C   UNL     1       5.962   0.404   0.000  0.00  0.00    +0.121 C 
ATOM     20  C   UNL     1       5.962   1.229   0.000  0.00  0.00    +0.028 C 
BRANCH  19  21
ATOM     21  N   UNL     1       6.676  -0.008   0.000  0.00  0.00    -0.250 N 
ATOM     22  N   UNL     1       6.763  -0.829   0.000  0.00  0.00    -0.168 NA
ATOM     23  C   UNL     1       7.569  -1.000   0.000  0.00  0.00    +0.122 A 
ATOM     24  C   UNL     1       7.982  -0.286   0.000  0.00  0.00    +0.043 A 
ATOM     25  C   UNL     1       7.430   0.327   0.000  0.00  0.00    +0.097 A 
ENDBRANCH  19  21
ENDBRANCH  18  19
ENDBRANCH  16  18
ENDBRANCH  15  16
ENDBRANCH   1  15
TORSDOF 7
