REMARK  Name = 
REMARK  5 active torsions:
REMARK  status: ('A' for Active; 'I' for Inactive)
REMARK    1  A    between atoms: C_2  and  C_5
REMARK    2  A    between atoms: C_5  and  N_6
REMARK    3  A    between atoms: N_9  and  C_10
REMARK    4  A    between atoms: C_10  and  C_11
REMARK    5  A    between atoms: C_16  and  N_17
REMARK                            x       y       z     vdW  Elec       q    Type
REMARK                         _______ _______ _______ _____ _____    ______ ____
ROOT
ATOM      1  C   UNL     1       0.715  -1.238   0.000  0.00  0.00    +0.031 A 
ATOM      2  C   UNL     1       0.000  -1.650   0.000  0.00  0.00    +0.129 A 
ATOM      3  N   UNL     1       0.000  -2.475   0.000  0.00  0.00    -0.229 NA
ATOM      4  C   UNL     1       0.715  -2.888   0.000  0.00  0.00    +0.100 A 
ATOM      5  C   UNL     1       1.429  -2.475   0.000  0.00  0.00    +0.021 A 
ATOM      6  C   UNL     1       1.429  -1.650   0.000  0.00  0.00    +0.002 A 
ENDROOT
BRANCH   2   7
ATOM      7  N   UNL     1      -0.715  -1.238   0.000  0.00  0.00    -0.288 N 
ATOM      8  C   UNL     1      -0.715  -0.412   0.000  0.00  0.00    +0.124 C 
ATOM      9  C   UNL     1      -1.429   0.000   0.000  0.00  0.00    +0.164 C 
ATOM     10  O   UNL     1      -2.143  -0.412   0.000  0.00  0.00    -0.350 OA
ATOM     11  C   UNL     1      -2.143  -1.238   0.000  0.00  0.00    +0.164 C 
ATOM     12  C   UNL     1      -1.429  -1.650   0.000  0.00  0.00    +0.124 C 
ENDBRANCH   2   7
BRANCH   1  13
ATOM     13  C   UNL     1       0.715  -0.412   0.000  0.00  0.00    +0.146 C 
BRANCH  13  16
ATOM     14  N   UNL     1       2.143   1.238   0.000  0.00  0.00    -0.178 NA
ATOM     15  C   UNL     1       1.429   0.825   0.000  0.00  0.00    +0.340 C 
ATOM     16  N   UNL     1       1.429   0.000   0.000  0.00  0.00    -0.182 NA
ATOM     17  O   UNL     1       0.715   1.238   0.000  0.00  0.00    -0.249 OA
BRANCH  14  18
ATOM     18  C   UNL     1       2.143   2.062   0.000  0.00  0.00    +0.220 C 
BRANCH  18  20
ATOM     19  F   UNL     1       3.572   2.888   0.000  0.00  0.00    -0.168 F 
ATOM     20  C   UNL     1       2.858   2.475   0.000  0.00  0.00    +0.417 C 
ATOM     21  F   UNL     1       3.270   1.760   0.000  0.00  0.00    -0.168 F 
ATOM     22  F   UNL     1       2.445   3.189   0.000  0.00  0.00    -0.168 F 
ENDBRANCH  18  20
ENDBRANCH  14  18
ENDBRANCH  13  16
ENDBRANCH   1  13
TORSDOF 5
