REMARK  Name = 
REMARK  2 active torsions:
REMARK  status: ('A' for Active; 'I' for Inactive)
REMARK    1  A    between atoms: S_2  and  C_5
REMARK    2  A    between atoms: C_10  and  N_11
REMARK                            x       y       z     vdW  Elec       q    Type
REMARK                         _______ _______ _______ _____ _____    ______ ____
ROOT
ATOM      1  C   UNL     1       0.715  -1.238   0.000  0.00  0.00    +0.156 A 
ATOM      2  C   UNL     1       0.000  -1.650   0.000  0.00  0.00    +0.151 A 
ATOM      3  N   UNL     1       0.000  -2.475   0.000  0.00  0.00    -0.228 NA
ATOM      4  C   UNL     1       0.715  -2.888   0.000  0.00  0.00    +0.100 A 
ATOM      5  C   UNL     1       1.429  -2.475   0.000  0.00  0.00    +0.022 A 
ATOM      6  C   UNL     1       1.429  -1.650   0.000  0.00  0.00    +0.024 A 
ENDROOT
BRANCH   2   7
ATOM      7  N   UNL     1      -0.715  -1.238   0.000  0.00  0.00    -0.287 N 
ATOM      8  C   UNL     1      -0.715  -0.412   0.000  0.00  0.00    +0.124 C 
ATOM      9  C   UNL     1      -1.429   0.000   0.000  0.00  0.00    +0.164 C 
ATOM     10  O   UNL     1      -2.143  -0.412   0.000  0.00  0.00    -0.350 OA
ATOM     11  C   UNL     1      -2.143  -1.238   0.000  0.00  0.00    +0.164 C 
ATOM     12  C   UNL     1      -1.429  -1.650   0.000  0.00  0.00    +0.124 C 
ENDBRANCH   2   7
BRANCH   1  14
ATOM     13  N   UNL     1       0.715   0.412   0.000  0.00  0.00    +0.039 NA
ATOM     14  S   UNL     1       0.715  -0.412   0.000  0.00  0.00    +0.096 S 
ATOM     15  O   UNL     1       1.540  -0.412   0.000  0.00  0.00    -0.150 OA
ATOM     16  O   UNL     1      -0.111  -0.412   0.000  0.00  0.00    -0.150 OA
ENDBRANCH   1  14
TORSDOF 2
