REMARK  Name = 
REMARK  4 active torsions:
REMARK  status: ('A' for Active; 'I' for Inactive)
REMARK    1  A    between atoms: C_8  and  C_9
REMARK    2  A    between atoms: C_9  and  C_10
REMARK    3  A    between atoms: N_12  and  C_13
REMARK    4  A    between atoms: C_13  and  C_14
REMARK                            x       y       z     vdW  Elec       q    Type
REMARK                         _______ _______ _______ _____ _____    ______ ____
ROOT
ATOM      1  C   UNL     1       1.387  -2.408   0.000  0.00  0.00    +0.115 C 
ENDROOT
BRANCH   1   4
ATOM      2  C   UNL     1      -0.253  -3.138   0.000  0.00  0.00    +0.054 C 
ATOM      3  C   UNL     1      -0.081  -2.331   0.000  0.00  0.00    +0.077 A 
ATOM      4  C   UNL     1       0.672  -1.996   0.000  0.00  0.00    +0.015 A 
ATOM      5  C   UNL     1       0.586  -1.175   0.000  0.00  0.00    +0.054 A 
ATOM      6  C   UNL     1       1.199  -0.623   0.000  0.00  0.00    +0.051 C 
ATOM      7  N   UNL     1      -0.221  -1.004   0.000  0.00  0.00    -0.253 N 
ATOM      8  C   UNL     1      -0.556  -0.250   0.000  0.00  0.00    +0.153 C 
ATOM      9  N   UNL     1      -0.633  -1.718   0.000  0.00  0.00    -0.174 NA
ENDBRANCH   1   4
BRANCH   1  10
ATOM     10  C   UNL     1       2.102  -1.996   0.000  0.00  0.00    +0.246 C 
ATOM     11  N   UNL     1       2.816  -2.408   0.000  0.00  0.00    -0.203 NA
ATOM     12  O   UNL     1       2.102  -1.171   0.000  0.00  0.00    -0.273 OA
BRANCH  11  13
ATOM     13  C   UNL     1       3.530  -1.996   0.000  0.00  0.00    +0.145 C 
BRANCH  13  14
ATOM     14  C   UNL     1       4.245  -2.408   0.000  0.00  0.00    +0.137 C 
ATOM     15  O   UNL     1       4.331  -3.229   0.000  0.00  0.00    -0.354 OA
ATOM     16  C   UNL     1       5.138  -3.400   0.000  0.00  0.00    +0.142 C 
ATOM     17  C   UNL     1       5.551  -2.686   0.000  0.00  0.00    +0.035 C 
ATOM     18  C   UNL     1       4.999  -2.073   0.000  0.00  0.00    +0.034 C 
ENDBRANCH  13  14
ENDBRANCH  11  13
ENDBRANCH   1  10
TORSDOF 4
