REMARK  Name = 
REMARK  6 active torsions:
REMARK  status: ('A' for Active; 'I' for Inactive)
REMARK    1  A    between atoms: N_2  and  C_11
REMARK    2  A    between atoms: C_5  and  N_12
REMARK    3  A    between atoms: N_7  and  C_15
REMARK    4  A    between atoms: C_11  and  C_14
REMARK    5  A    between atoms: N_12  and  C_17
REMARK    6  A    between atoms: C_15  and  C_17
REMARK                            x       y       z     vdW  Elec       q    Type
REMARK                         _______ _______ _______ _____ _____    ______ ____
ROOT
ATOM      1  C   UNL     1       2.562   0.825   0.000  0.00  0.00    +0.149 A 
ATOM      2  C   UNL     1       3.275   1.238   0.000  0.00  0.00    +0.154 A 
ATOM      3  N   UNL     1       3.992   0.825   0.000  0.00  0.00    -0.207 NA
ATOM      4  C   UNL     1       3.992   0.000   0.000  0.00  0.00    +0.201 A 
ATOM      5  N   UNL     1       3.275  -0.412   0.000  0.00  0.00    -0.205 NA
ATOM      6  N   UNL     1       1.779   1.083   0.000  0.00  0.00    -0.219 NA
ATOM      7  C   UNL     1       1.292   0.412   0.000  0.00  0.00    +0.180 A 
ATOM      8  N   UNL     1       1.779  -0.254   0.000  0.00  0.00    -0.292 N 
ATOM      9  C   UNL     1       2.562   0.000   0.000  0.00  0.00    +0.167 A 
ENDROOT
BRANCH   2  10
ATOM     10  N   UNL     1       3.275   2.062   0.000  0.00  0.00    -0.288 N 
ATOM     11  C   UNL     1       2.562   2.475   0.000  0.00  0.00    +0.114 C 
BRANCH  10  12
ATOM     12  C   UNL     1       3.992   2.475   0.000  0.00  0.00    +0.114 C 
BRANCH  12  13
ATOM     13  C   UNL     1       3.992   3.300   0.000  0.00  0.00    +0.115 C 
BRANCH  13  14
ATOM     14  N   UNL     1       4.704   3.712   0.000  0.00  0.00    -0.278 N 
ATOM     15  C   UNL     1       4.792   4.529   0.000  0.00  0.00    +0.094 C 
ATOM     16  C   UNL     1       5.600   4.704   0.000  0.00  0.00    +0.031 C 
ATOM     17  C   UNL     1       6.013   3.992   0.000  0.00  0.00    +0.087 C 
ATOM     18  C   UNL     1       5.458   3.379   0.000  0.00  0.00    +0.226 C 
ATOM     19  O   UNL     1       5.629   2.571   0.000  0.00  0.00    -0.275 OA
ENDBRANCH  13  14
ENDBRANCH  12  13
ENDBRANCH  10  12
ENDBRANCH   2  10
BRANCH   8  20
ATOM     20  C   UNL     1       1.521  -1.038   0.000  0.00  0.00    +0.139 C 
BRANCH  20  21
ATOM     21  C   UNL     1       2.075  -1.650   0.000  0.00  0.00    +0.152 C 
ATOM     22  O   UNL     1       1.375  -2.087   0.000  0.00  0.00    -0.223 OA
ATOM     23  C   UNL     1       2.583  -1.000   0.000  0.00  0.00    +0.064 C 
ATOM     24  C   UNL     1       3.400  -1.117   0.000  0.00  0.00    +0.145 C 
ATOM     25  O   UNL     1       3.708  -1.879   0.000  0.00  0.00    -0.354 OA
ATOM     26  C   UNL     1       3.200  -2.529   0.000  0.00  0.00    +0.145 C 
ATOM     27  C   UNL     1       2.383  -2.417   0.000  0.00  0.00    +0.064 C 
ENDBRANCH  20  21
ENDBRANCH   8  20
TORSDOF 6
