REMARK  Name = 
REMARK  4 active torsions:
REMARK  status: ('A' for Active; 'I' for Inactive)
REMARK    1  A    between atoms: C_8  and  C_9
REMARK    2  A    between atoms: C_8  and  N_12
REMARK    3  A    between atoms: C_13  and  C_15
REMARK    4  A    between atoms: C_15  and  C_16
REMARK                            x       y       z     vdW  Elec       q    Type
REMARK                         _______ _______ _______ _____ _____    ______ ____
ROOT
ATOM      1  C   UNL     1       4.385  -3.569   0.000  0.00  0.00    +0.000 C 
ATOM      2  C   UNL     1       3.670  -3.157   0.000  0.00  0.00    +0.002 C 
ATOM      3  C   UNL     1       3.670  -2.332   0.000  0.00  0.00    +0.023 C 
ATOM      4  C   UNL     1       2.956  -1.919   0.000  0.00  0.00    +0.109 C 
ATOM      5  C   UNL     1       2.241  -2.332   0.000  0.00  0.00    +0.023 C 
ATOM      6  C   UNL     1       2.241  -3.157   0.000  0.00  0.00    +0.002 C 
ATOM      7  C   UNL     1       1.429  -3.014   0.000  0.00  0.00    +0.000 C 
ATOM      8  C   UNL     1       1.959  -3.932   0.000  0.00  0.00    +0.000 C 
ATOM      9  C   UNL     1       2.956  -3.569   0.000  0.00  0.00    +0.000 C 
ENDROOT
BRANCH   4  10
ATOM     10  N   UNL     1       3.486  -1.287   0.000  0.00  0.00    -0.206 NA
ATOM     11  C   UNL     1       4.299  -1.431   0.000  0.00  0.00    +0.246 C 
ATOM     12  O   UNL     1       4.581  -2.206   0.000  0.00  0.00    -0.273 OA
BRANCH  11  13
ATOM     13  C   UNL     1       4.829  -0.798   0.000  0.00  0.00    +0.115 C 
BRANCH  13  14
ATOM     14  C   UNL     1       5.641  -0.942   0.000  0.00  0.00    +0.006 A 
ATOM     15  C   UNL     1       5.924  -1.717   0.000  0.00  0.00    +0.095 A 
ATOM     16  N   UNL     1       6.736  -1.860   0.000  0.00  0.00    -0.243 NA
ATOM     17  C   UNL     1       7.266  -1.228   0.000  0.00  0.00    +0.099 A 
ATOM     18  C   UNL     1       6.984  -0.453   0.000  0.00  0.00    +0.020 A 
ATOM     19  C   UNL     1       6.172  -0.310   0.000  0.00  0.00    -0.001 A 
ENDBRANCH  13  14
ENDBRANCH  11  13
ENDBRANCH   4  10
BRANCH   4  20
ATOM     20  C   UNL     1       2.426  -1.287   0.000  0.00  0.00    +0.202 C 
ATOM     21  O   UNL     1       2.708  -0.512   0.000  0.00  0.00    -0.219 OA
ENDBRANCH   4  20
TORSDOF 4
