REMARK  Name = 
REMARK  6 active torsions:
REMARK  status: ('A' for Active; 'I' for Inactive)
REMARK    1  A    between atoms: C_2  and  C_3
REMARK    2  A    between atoms: C_3  and  S_4
REMARK    3  A    between atoms: S_4  and  C_5
REMARK    4  A    between atoms: C_8  and  C_9
REMARK    5  A    between atoms: N_12  and  C_13
REMARK    6  A    between atoms: C_13  and  C_14
REMARK                            x       y       z     vdW  Elec       q    Type
REMARK                         _______ _______ _______ _____ _____    ______ ____
ROOT
ATOM      1  C   UNL     1       0.774   4.888   0.000  0.00  0.00    +0.193 A 
ATOM      2  N   UNL     1       0.519   4.104   0.000  0.00  0.00    -0.285 N 
ATOM      3  C   UNL     1       1.187   3.619   0.000  0.00  0.00    +0.144 A 
ATOM      4  N   UNL     1       1.854   4.104   0.000  0.00  0.00    -0.133 NA
ATOM      5  N   UNL     1       1.599   4.888   0.000  0.00  0.00    -0.122 NA
ENDROOT
BRANCH   3   6
ATOM      6  C   UNL     1       1.187   2.794   0.000  0.00  0.00    +0.059 C 
ATOM      7  C   UNL     1       0.774   2.079   0.000  0.00  0.00    +0.008 C 
ATOM      8  C   UNL     1       1.599   2.079   0.000  0.00  0.00    +0.008 C 
ENDBRANCH   3   6
BRANCH   1   9
ATOM      9  S   UNL     1       0.289   5.556   0.000  0.00  0.00    -0.076 S 
BRANCH   9  10
ATOM     10  C   UNL     1       0.625   6.309   0.000  0.00  0.00    +0.065 C 
BRANCH  10  12
ATOM     11  C   UNL     1       0.475   7.731   0.000  0.00  0.00    +0.001 C 
ATOM     12  C   UNL     1       0.140   6.977   0.000  0.00  0.00    +0.012 C 
ENDBRANCH  10  12
ENDBRANCH   9  10
ENDBRANCH   1   9
BRANCH   2  13
ATOM     13  C   UNL     1      -0.265   3.849   0.000  0.00  0.00    +0.198 C 
BRANCH  13  14
ATOM     14  C   UNL     1      -0.437   3.042   0.000  0.00  0.00    +0.284 C 
ATOM     15  N   UNL     1      -1.222   2.787   0.000  0.00  0.00    -0.086 NA
ATOM     16  O   UNL     1       0.176   2.490   0.000  0.00  0.00    -0.270 OA
ENDBRANCH  13  14
ENDBRANCH   2  13
TORSDOF 6
