REMARK  Name = 
REMARK  6 active torsions:
REMARK  status: ('A' for Active; 'I' for Inactive)
REMARK    1  A    between atoms: C_2  and  O_3
REMARK    2  A    between atoms: C_2  and  C_7
REMARK    3  A    between atoms: O_3  and  C_4
REMARK    4  A    between atoms: C_4  and  C_5
REMARK    5  A    between atoms: N_9  and  C_10
REMARK    6  A    between atoms: C_12  and  C_17
REMARK                            x       y       z     vdW  Elec       q    Type
REMARK                         _______ _______ _______ _____ _____    ______ ____
ROOT
ATOM      1  C   UNL     1       5.716  -4.125   0.000  0.00  0.00    +0.131 A 
ATOM      2  C   UNL     1       5.716  -4.950   0.000  0.00  0.00    +0.295 A 
ATOM      3  O   UNL     1       5.001  -5.362   0.000  0.00  0.00    -0.264 OA
ATOM      4  N   UNL     1       6.430  -5.362   0.000  0.00  0.00    -0.205 NA
ATOM      5  C   UNL     1       7.145  -4.950   0.000  0.00  0.00    +0.106 A 
ATOM      6  C   UNL     1       7.145  -4.125   0.000  0.00  0.00    +0.092 A 
ATOM      7  C   UNL     1       6.430  -3.712   0.000  0.00  0.00    +0.027 A 
ENDROOT
BRANCH   6   8
ATOM      8  C   UNL     1       7.859  -3.712   0.000  0.00  0.00    +0.420 C 
ATOM      9  F   UNL     1       7.447  -2.998   0.000  0.00  0.00    -0.166 F 
ATOM     10  F   UNL     1       8.272  -4.427   0.000  0.00  0.00    -0.166 F 
ATOM     11  F   UNL     1       8.574  -3.300   0.000  0.00  0.00    -0.166 F 
ENDBRANCH   6   8
BRANCH   1  13
ATOM     12  C   UNL     1       4.287  -4.125   0.000  0.00  0.00    +0.273 C 
ATOM     13  N   UNL     1       5.001  -3.712   0.000  0.00  0.00    -0.172 NA
ATOM     14  O   UNL     1       4.287  -4.950   0.000  0.00  0.00    -0.270 OA
BRANCH  12  16
ATOM     15  C   UNL     1       3.572  -2.888   0.000  0.00  0.00    +0.042 C 
ATOM     16  C   UNL     1       3.572  -3.712   0.000  0.00  0.00    +0.193 C 
BRANCH  16  17
ATOM     17  O   UNL     1       2.858  -4.125   0.000  0.00  0.00    -0.342 OA
BRANCH  17  18
ATOM     18  C   UNL     1       2.143  -3.712   0.000  0.00  0.00    +0.169 C 
BRANCH  18  19
ATOM     19  C   UNL     1       1.429  -4.125   0.000  0.00  0.00    +0.006 C 
ATOM     20  C   UNL     1       0.715  -3.712   0.000  0.00  0.00    -0.002 C 
ENDBRANCH  18  19
ENDBRANCH  17  18
ENDBRANCH  16  17
ENDBRANCH  12  16
ENDBRANCH   1  13
TORSDOF 6
