REMARK  Name = 
REMARK  5 active torsions:
REMARK  status: ('A' for Active; 'I' for Inactive)
REMARK    1  A    between atoms: N_4  and  C_5
REMARK    2  A    between atoms: C_5  and  C_6
REMARK    3  A    between atoms: C_6  and  N_7
REMARK    4  A    between atoms: C_8  and  C_10
REMARK    5  A    between atoms: C_10  and  N_11
REMARK                            x       y       z     vdW  Elec       q    Type
REMARK                         _______ _______ _______ _____ _____    ______ ____
ROOT
ATOM      1  C   UNL     1       0.000   0.825   0.000  0.00  0.00    +0.132 C 
ENDROOT
BRANCH   1   2
ATOM      2  N   UNL     1       0.715   1.238   0.000  0.00  0.00    -0.202 NA
ATOM      3  C   UNL     1       1.429   0.825   0.000  0.00  0.00    +0.266 C 
ATOM      4  O   UNL     1       1.429   0.000   0.000  0.00  0.00    -0.271 OA
BRANCH   3   5
ATOM      5  C   UNL     1       2.143   1.238   0.000  0.00  0.00    +0.214 C 
BRANCH   5   6
ATOM      6  N   UNL     1       2.858   0.825   0.000  0.00  0.00    -0.240 N 
ATOM      7  N   UNL     1       2.944   0.004   0.000  0.00  0.00    -0.167 NA
ATOM      8  C   UNL     1       3.751  -0.167   0.000  0.00  0.00    +0.122 A 
ATOM      9  C   UNL     1       4.164   0.547   0.000  0.00  0.00    +0.043 A 
ATOM     10  C   UNL     1       3.612   1.161   0.000  0.00  0.00    +0.097 A 
ENDBRANCH   5   6
ENDBRANCH   3   5
ENDBRANCH   1   2
BRANCH   1  11
ATOM     11  C   UNL     1      -0.715   1.238   0.000  0.00  0.00    +0.096 C 
BRANCH  11  18
ATOM     12  C   UNL     1      -3.572   1.238   0.000  0.00  0.00    +0.034 C 
ATOM     13  C   UNL     1      -2.858   0.825   0.000  0.00  0.00    +0.131 C 
ATOM     14  O   UNL     1      -2.858   0.000   0.000  0.00  0.00    -0.356 OA
ATOM     15  C   UNL     1      -2.143  -0.412   0.000  0.00  0.00    +0.131 C 
ATOM     16  C   UNL     1      -2.143  -1.238   0.000  0.00  0.00    +0.034 C 
ATOM     17  C   UNL     1      -1.429   0.000   0.000  0.00  0.00    +0.102 C 
ATOM     18  N   UNL     1      -1.429   0.825   0.000  0.00  0.00    -0.267 NA
ATOM     19  C   UNL     1      -2.143   1.238   0.000  0.00  0.00    +0.102 C 
ENDBRANCH  11  18
ENDBRANCH   1  11
TORSDOF 5
