REMARK  Name = 
REMARK  7 active torsions:
REMARK  status: ('A' for Active; 'I' for Inactive)
REMARK    1  A    between atoms: O_2  and  C_3
REMARK    2  A    between atoms: C_3  and  C_4
REMARK    3  A    between atoms: N_12  and  C_13
REMARK    4  A    between atoms: C_13  and  C_14
REMARK    5  A    between atoms: C_14  and  C_16
REMARK    6  A    between atoms: C_16  and  O_17
REMARK    7  A    between atoms: O_17  and  C_18
REMARK                            x       y       z     vdW  Elec       q    Type
REMARK                         _______ _______ _______ _____ _____    ______ ____
ROOT
ATOM      1  C   UNL     1       0.921   0.069   0.000  0.00  0.00    +0.151 A 
ATOM      2  N   UNL     1       1.675   0.404   0.000  0.00  0.00    -0.310 N 
ATOM      3  C   UNL     1       1.589   1.225   0.000  0.00  0.00    +0.079 A 
ATOM      4  C   UNL     1       0.782   1.396   0.000  0.00  0.00    +0.098 A 
ATOM      5  C   UNL     1       0.527   2.181   0.000  0.00  0.00    +0.021 A 
ATOM      6  C   UNL     1       1.079   2.794   0.000  0.00  0.00    +0.002 A 
ATOM      7  C   UNL     1       1.886   2.622   0.000  0.00  0.00    +0.002 A 
ATOM      8  C   UNL     1       2.141   1.838   0.000  0.00  0.00    +0.019 A 
ATOM      9  N   UNL     1       0.369   0.682   0.000  0.00  0.00    -0.228 NA
ENDROOT
BRANCH   2  10
ATOM     10  C   UNL     1       2.389  -0.008   0.000  0.00  0.00    +0.144 C 
BRANCH  10  11
ATOM     11  C   UNL     1       3.104   0.404   0.000  0.00  0.00    +0.218 C 
ATOM     12  O   UNL     1       3.104   1.229   0.000  0.00  0.00    -0.217 OA
BRANCH  11  13
ATOM     13  C   UNL     1       3.818  -0.008   0.000  0.00  0.00    +0.240 C 
BRANCH  13  14
ATOM     14  O   UNL     1       4.533   0.404   0.000  0.00  0.00    -0.473 OA
BRANCH  14  15
ATOM     15  C   UNL     1       5.247  -0.008   0.000  0.00  0.00    +0.139 A 
ATOM     16  C   UNL     1       5.247  -0.833   0.000  0.00  0.00    +0.037 A 
ATOM     17  C   UNL     1       5.962  -1.246   0.000  0.00  0.00    -0.001 A 
ATOM     18  C   UNL     1       6.676  -0.833   0.000  0.00  0.00    -0.022 A 
ATOM     19  C   UNL     1       7.391  -1.246   0.000  0.00  0.00    +0.031 C 
ATOM     20  C   UNL     1       6.676  -0.008   0.000  0.00  0.00    -0.001 A 
ATOM     21  C   UNL     1       5.962   0.404   0.000  0.00  0.00    +0.037 A 
ENDBRANCH  14  15
ENDBRANCH  13  14
ENDBRANCH  11  13
ENDBRANCH  10  11
ENDBRANCH   2  10
BRANCH   1  22
ATOM     22  C   UNL     1       0.750  -0.738   0.000  0.00  0.00    +0.206 C 
BRANCH  22  24
ATOM     23  C   UNL     1      -0.206  -1.800   0.000  0.00  0.00    +0.175 C 
ATOM     24  O   UNL     1      -0.035  -0.993   0.000  0.00  0.00    -0.343 OA
ENDBRANCH  22  24
ENDBRANCH   1  22
TORSDOF 7
