REMARK  Name = 
REMARK  4 active torsions:
REMARK  status: ('A' for Active; 'I' for Inactive)
REMARK    1  A    between atoms: N_8  and  C_9
REMARK    2  A    between atoms: C_9  and  C_10
REMARK    3  A    between atoms: C_10  and  C_12
REMARK    4  A    between atoms: C_12  and  N_13
REMARK                            x       y       z     vdW  Elec       q    Type
REMARK                         _______ _______ _______ _____ _____    ______ ____
ROOT
ATOM      1  C   UNL     1       0.077  -2.321   0.000  0.00  0.00    +0.190 C 
ATOM      2  O   UNL     1      -0.475  -1.708   0.000  0.00  0.00    -0.220 OA
ENDROOT
BRANCH   1   3
ATOM      3  C   UNL     1      -0.178  -3.106   0.000  0.00  0.00    +0.107 C 
BRANCH   3   9
ATOM      4  C   UNL     1      -4.083  -4.249   0.000  0.00  0.00    +0.095 C 
ATOM      5  C   UNL     1      -3.320  -4.562   0.000  0.00  0.00    +0.226 C 
ATOM      6  N   UNL     1      -2.667  -4.057   0.000  0.00  0.00    -0.278 N 
ATOM      7  C   UNL     1      -1.929  -4.426   0.000  0.00  0.00    +0.111 C 
ATOM      8  C   UNL     1      -1.181  -4.079   0.000  0.00  0.00    +0.094 C 
ATOM      9  N   UNL     1      -0.985  -3.278   0.000  0.00  0.00    -0.269 NA
ATOM     10  C   UNL     1      -1.490  -2.625   0.000  0.00  0.00    +0.074 C 
ATOM     11  C   UNL     1      -2.315  -2.613   0.000  0.00  0.00    +0.039 C 
ATOM     12  C   UNL     1      -2.839  -3.250   0.000  0.00  0.00    +0.095 C 
ATOM     13  O   UNL     1      -3.209  -5.379   0.000  0.00  0.00    -0.275 OA
ENDBRANCH   3   9
ENDBRANCH   1   3
BRANCH   1  14
ATOM     14  C   UNL     1       0.884  -2.150   0.000  0.00  0.00    +0.142 C 
BRANCH  14  15
ATOM     15  N   UNL     1       1.139  -1.365   0.000  0.00  0.00    -0.306 N 
ATOM     16  C   UNL     1       1.923  -1.110   0.000  0.00  0.00    +0.079 A 
ATOM     17  C   UNL     1       1.923  -0.285   0.000  0.00  0.00    +0.098 A 
ATOM     18  C   UNL     1       2.638   0.127   0.000  0.00  0.00    +0.016 A 
ATOM     19  C   UNL     1       3.352  -0.285   0.000  0.00  0.00    -0.024 A 
ATOM     20  C   UNL     1       3.352  -1.110   0.000  0.00  0.00    -0.024 A 
ATOM     21  C   UNL     1       4.067  -1.523   0.000  0.00  0.00    +0.031 C 
ATOM     22  C   UNL     1       4.067   0.127   0.000  0.00  0.00    +0.031 C 
ATOM     23  N   UNL     1       1.139  -0.030   0.000  0.00  0.00    -0.224 NA
ATOM     24  C   UNL     1       2.638  -1.523   0.000  0.00  0.00    +0.014 A 
ATOM     25  C   UNL     1       0.654  -0.698   0.000  0.00  0.00    +0.179 A 
ENDBRANCH  14  15
ENDBRANCH   1  14
TORSDOF 4
