REMARK  Name = 
REMARK  3 active torsions:
REMARK  status: ('A' for Active; 'I' for Inactive)
REMARK    1  A    between atoms: C_4  and  N_5
REMARK    2  A    between atoms: N_8  and  C_9
REMARK    3  A    between atoms: C_9  and  C_10
REMARK                            x       y       z     vdW  Elec       q    Type
REMARK                         _______ _______ _______ _____ _____    ______ ____
ROOT
ATOM      1  N   UNL     1       0.715  -2.888   0.000  0.00  0.00    -0.124 NA
ATOM      2  C   UNL     1       1.429  -2.475   0.000  0.00  0.00    +0.346 C 
ATOM      3  N   UNL     1       2.143  -2.888   0.000  0.00  0.00    -0.186 NA
ATOM      4  O   UNL     1       1.429  -1.650   0.000  0.00  0.00    -0.249 OA
ENDROOT
BRANCH   1   9
ATOM      5  C   UNL     1      -1.229  -0.729   0.000  0.00  0.00    +0.056 C 
ATOM      6  C   UNL     1      -0.893  -1.483   0.000  0.00  0.00    +0.103 A 
ATOM      7  N   UNL     1      -1.306  -2.197   0.000  0.00  0.00    -0.080 NA
ATOM      8  O   UNL     1      -0.754  -2.811   0.000  0.00  0.00    -0.337 OA
ATOM      9  C   UNL     1       0.000  -2.475   0.000  0.00  0.00    +0.253 A 
ATOM     10  C   UNL     1      -0.086  -1.655   0.000  0.00  0.00    +0.076 A 
ENDBRANCH   1   9
BRANCH   3  11
ATOM     11  C   UNL     1       2.858  -2.475   0.000  0.00  0.00    +0.128 C 
BRANCH  11  12
ATOM     12  C   UNL     1       3.572  -2.888   0.000  0.00  0.00    +0.080 C 
ATOM     13  S   UNL     1       3.572  -3.712   0.000  0.00  0.00    -0.137 S 
ATOM     14  C   UNL     1       4.287  -4.125   0.000  0.00  0.00    +0.069 C 
ATOM     15  C   UNL     1       5.001  -3.712   0.000  0.00  0.00    +0.069 C 
ATOM     16  S   UNL     1       5.001  -2.888   0.000  0.00  0.00    -0.138 S 
ATOM     17  C   UNL     1       4.287  -2.475   0.000  0.00  0.00    +0.070 C 
ENDBRANCH  11  12
ENDBRANCH   3  11
TORSDOF 3
