REMARK  Name = 
REMARK  4 active torsions:
REMARK  status: ('A' for Active; 'I' for Inactive)
REMARK    1  A    between atoms: C_7  and  C_8
REMARK    2  A    between atoms: C_8  and  C_9
REMARK    3  A    between atoms: N_11  and  C_12
REMARK    4  A    between atoms: C_12  and  C_13
REMARK                            x       y       z     vdW  Elec       q    Type
REMARK                         _______ _______ _______ _____ _____    ______ ____
ROOT
ATOM      1  C   UNL     1       0.743  -2.437   0.000  0.00  0.00    +0.246 C 
ATOM      2  N   UNL     1       1.457  -2.025   0.000  0.00  0.00    -0.205 NA
ATOM      3  O   UNL     1       0.743  -3.262   0.000  0.00  0.00    -0.273 OA
ENDROOT
BRANCH   1   4
ATOM      4  C   UNL     1       0.028  -2.025   0.000  0.00  0.00    +0.117 C 
BRANCH   4   7
ATOM      5  C   UNL     1      -0.160  -3.810   0.000  0.00  0.00    +0.055 C 
ATOM      6  C   UNL     1      -0.773  -3.258   0.000  0.00  0.00    +0.097 A 
ATOM      7  C   UNL     1      -0.686  -2.437   0.000  0.00  0.00    +0.037 A 
ATOM      8  C   UNL     1      -1.440  -2.102   0.000  0.00  0.00    +0.151 A 
ATOM      9  C   UNL     1      -1.612  -1.295   0.000  0.00  0.00    +0.075 C 
ATOM     10  O   UNL     1      -1.992  -2.715   0.000  0.00  0.00    -0.358 OA
ATOM     11  N   UNL     1      -1.580  -3.429   0.000  0.00  0.00    -0.082 NA
ENDBRANCH   4   7
ENDBRANCH   1   4
BRANCH   2  12
ATOM     12  C   UNL     1       2.171  -2.437   0.000  0.00  0.00    +0.117 C 
BRANCH  12  13
ATOM     13  C   UNL     1       2.886  -2.025   0.000  0.00  0.00    +0.047 C 
ATOM     14  C   UNL     1       3.640  -2.360   0.000  0.00  0.00    +0.153 C 
ATOM     15  S   UNL     1       4.192  -1.747   0.000  0.00  0.00    -0.010 S 
ATOM     16  O   UNL     1       4.744  -2.360   0.000  0.00  0.00    -0.173 OA
ATOM     17  O   UNL     1       4.859  -1.262   0.000  0.00  0.00    -0.173 OA
ATOM     18  C   UNL     1       3.779  -1.033   0.000  0.00  0.00    +0.151 C 
ATOM     19  C   UNL     1       2.972  -1.204   0.000  0.00  0.00    +0.029 C 
ENDBRANCH  12  13
ENDBRANCH   2  12
TORSDOF 4
