REMARK  Name = 
REMARK  5 active torsions:
REMARK  status: ('A' for Active; 'I' for Inactive)
REMARK    1  A    between atoms: C_2  and  C_3
REMARK    2  A    between atoms: C_3  and  N_4
REMARK    3  A    between atoms: N_12  and  C_13
REMARK    4  A    between atoms: C_13  and  C_14
REMARK    5  A    between atoms: C_14  and  N_15
REMARK                            x       y       z     vdW  Elec       q    Type
REMARK                         _______ _______ _______ _____ _____    ______ ____
ROOT
ATOM      1  O   UNL     1       1.429  -2.475   0.000  0.00  0.00    -0.271 OA
ATOM      2  C   UNL     1       1.429  -1.650   0.000  0.00  0.00    +0.265 C 
ATOM      3  N   UNL     1       2.143  -1.238   0.000  0.00  0.00    -0.202 NA
ENDROOT
BRANCH   3   4
ATOM      4  C   UNL     1       2.858  -1.650   0.000  0.00  0.00    +0.137 C 
BRANCH   4   5
ATOM      5  C   UNL     1       3.572  -1.238   0.000  0.00  0.00    +0.125 C 
BRANCH   5   6
ATOM      6  N   UNL     1       4.287  -1.650   0.000  0.00  0.00    -0.219 N 
ATOM      7  C   UNL     1       4.373  -2.470   0.000  0.00  0.00    +0.283 C 
ATOM      8  O   UNL     1       3.760  -3.022   0.000  0.00  0.00    -0.262 OA
ATOM      9  S   UNL     1       5.180  -2.642   0.000  0.00  0.00    -0.047 S 
ATOM     10  C   UNL     1       5.593  -1.927   0.000  0.00  0.00    +0.152 C 
ATOM     11  C   UNL     1       5.040  -1.314   0.000  0.00  0.00    +0.243 C 
ATOM     12  O   UNL     1       5.212  -0.507   0.000  0.00  0.00    -0.273 OA
ENDBRANCH   5   6
ENDBRANCH   4   5
ENDBRANCH   3   4
BRANCH   2  13
ATOM     13  C   UNL     1       0.715  -1.238   0.000  0.00  0.00    +0.197 C 
BRANCH  13  14
ATOM     14  N   UNL     1       0.000  -1.650   0.000  0.00  0.00    -0.269 N 
ATOM     15  C   UNL     1      -0.715  -1.238   0.000  0.00  0.00    +0.353 A 
ATOM     16  O   UNL     1      -0.715  -0.412   0.000  0.00  0.00    -0.244 OA
ATOM     17  N   UNL     1      -1.429  -1.650   0.000  0.00  0.00    -0.153 NA
ATOM     18  C   UNL     1      -1.429  -2.475   0.000  0.00  0.00    +0.285 A 
ATOM     19  O   UNL     1      -2.143  -2.888   0.000  0.00  0.00    -0.265 OA
ATOM     20  C   UNL     1      -0.715  -2.888   0.000  0.00  0.00    +0.081 A 
ATOM     21  C   UNL     1       0.000  -2.475   0.000  0.00  0.00    +0.085 A 
ENDBRANCH  13  14
ENDBRANCH   2  13
TORSDOF 5
