REMARK  Name = 
REMARK  6 active torsions:
REMARK  status: ('A' for Active; 'I' for Inactive)
REMARK    1  A    between atoms: C_2  and  C_3
REMARK    2  A    between atoms: C_2  and  N_9
REMARK    3  A    between atoms: C_3  and  N_4
REMARK    4  A    between atoms: N_9  and  C_10
REMARK    5  A    between atoms: C_10  and  C_11
REMARK    6  A    between atoms: C_11  and  C_12
REMARK                            x       y       z     vdW  Elec       q    Type
REMARK                         _______ _______ _______ _____ _____    ______ ____
ROOT
ATOM      1  C   UNL     1       3.572  -3.712   0.000  0.00  0.00    +0.098 C 
ENDROOT
BRANCH   1   2
ATOM      2  N   UNL     1       2.858  -4.125   0.000  0.00  0.00    -0.217 NA
BRANCH   2   4
ATOM      3  C   UNL     1       2.143  -2.888   0.000  0.00  0.00    +0.021 C 
ATOM      4  C   UNL     1       2.143  -3.712   0.000  0.00  0.00    +0.097 C 
BRANCH   4   5
ATOM      5  C   UNL     1       1.429  -4.125   0.000  0.00  0.00    +0.145 C 
BRANCH   5   6
ATOM      6  N   UNL     1       0.715  -3.712   0.000  0.00  0.00    -0.248 N 
ATOM      7  N   UNL     1       0.628  -2.892   0.000  0.00  0.00    -0.168 NA
ATOM      8  C   UNL     1      -0.179  -2.720   0.000  0.00  0.00    +0.122 A 
ATOM      9  C   UNL     1      -0.591  -3.435   0.000  0.00  0.00    +0.043 A 
ATOM     10  C   UNL     1      -0.039  -4.048   0.000  0.00  0.00    +0.097 A 
ENDBRANCH   5   6
ENDBRANCH   4   5
ENDBRANCH   2   4
ENDBRANCH   1   2
BRANCH   1  11
ATOM     11  C   UNL     1       4.287  -4.125   0.000  0.00  0.00    +0.104 C 
BRANCH  11  12
ATOM     12  C   UNL     1       5.001  -3.712   0.000  0.00  0.00    +0.227 C 
ATOM     13  N   UNL     1       5.716  -4.125   0.000  0.00  0.00    -0.274 N 
ATOM     14  C   UNL     1       5.716  -4.950   0.000  0.00  0.00    +0.125 C 
ATOM     15  C   UNL     1       6.430  -5.362   0.000  0.00  0.00    +0.164 C 
ATOM     16  O   UNL     1       7.145  -4.950   0.000  0.00  0.00    -0.350 OA
ATOM     17  C   UNL     1       7.145  -4.125   0.000  0.00  0.00    +0.164 C 
ATOM     18  C   UNL     1       6.430  -3.712   0.000  0.00  0.00    +0.125 C 
ATOM     19  O   UNL     1       5.001  -2.888   0.000  0.00  0.00    -0.275 OA
ENDBRANCH  11  12
ENDBRANCH   1  11
TORSDOF 6
