REMARK  Name = 
REMARK  6 active torsions:
REMARK  status: ('A' for Active; 'I' for Inactive)
REMARK    1  A    between atoms: N_1  and  C_11
REMARK    2  A    between atoms: N_2  and  C_10
REMARK    3  A    between atoms: C_7  and  N_12
REMARK    4  A    between atoms: C_8  and  C_15
REMARK    5  A    between atoms: C_9  and  N_13
REMARK    6  A    between atoms: C_11  and  C_14
REMARK                            x       y       z     vdW  Elec       q    Type
REMARK                         _______ _______ _______ _____ _____    ______ ____
ROOT
ATOM      1  C   UNL     1       2.854  -1.650   0.000  0.00  0.00    +0.269 C 
ATOM      2  O   UNL     1       2.854  -2.475   0.000  0.00  0.00    -0.271 OA
ATOM      3  N   UNL     1       2.142  -1.238   0.000  0.00  0.00    -0.176 NA
ENDROOT
BRANCH   3   4
ATOM      4  C   UNL     1       1.425  -1.650   0.000  0.00  0.00    +0.087 A 
ATOM      5  C   UNL     1       1.425  -2.475   0.000  0.00  0.00    +0.022 A 
ATOM      6  C   UNL     1       0.713  -2.888   0.000  0.00  0.00    +0.073 A 
ATOM      7  C   UNL     1       0.000  -2.475   0.000  0.00  0.00    +0.005 A 
ATOM      8  C   UNL     1       0.000  -1.650   0.000  0.00  0.00    +0.016 A 
ATOM      9  C   UNL     1       0.713  -1.238   0.000  0.00  0.00    +0.063 A 
BRANCH   9  10
ATOM     10  N   UNL     1       0.713  -0.412   0.000  0.00  0.00    -0.302 N 
ATOM     11  C   UNL     1       1.425   0.000   0.000  0.00  0.00    +0.123 C 
ATOM     12  C   UNL     1       1.425   0.825   0.000  0.00  0.00    +0.164 C 
ATOM     13  O   UNL     1       0.713   1.238   0.000  0.00  0.00    -0.350 OA
ATOM     14  C   UNL     1       0.000   0.825   0.000  0.00  0.00    +0.164 C 
ATOM     15  C   UNL     1       0.000   0.000   0.000  0.00  0.00    +0.123 C 
ENDBRANCH   9  10
BRANCH   6  16
ATOM     16  C   UNL     1       0.713  -3.712   0.000  0.00  0.00    +0.419 C 
ATOM     17  F   UNL     1      -0.113  -3.712   0.000  0.00  0.00    -0.166 F 
ATOM     18  F   UNL     1       0.713  -4.537   0.000  0.00  0.00    -0.166 F 
ATOM     19  F   UNL     1       1.538  -3.712   0.000  0.00  0.00    -0.166 F 
ENDBRANCH   6  16
ENDBRANCH   3   4
BRANCH   1  20
ATOM     20  C   UNL     1       3.571  -1.238   0.000  0.00  0.00    +0.201 C 
BRANCH  20  21
ATOM     21  N   UNL     1       4.283  -1.650   0.000  0.00  0.00    -0.238 N 
ATOM     22  C   UNL     1       5.000  -1.238   0.000  0.00  0.00    +0.294 A 
ATOM     23  O   UNL     1       5.000  -0.412   0.000  0.00  0.00    -0.264 OA
ATOM     24  C   UNL     1       5.713  -1.650   0.000  0.00  0.00    +0.213 A 
ATOM     25  F   UNL     1       6.429  -1.238   0.000  0.00  0.00    -0.198 F 
ATOM     26  C   UNL     1       5.713  -2.475   0.000  0.00  0.00    +0.116 A 
ATOM     27  N   UNL     1       5.000  -2.888   0.000  0.00  0.00    -0.255 N 
ATOM     28  C   UNL     1       4.283  -2.475   0.000  0.00  0.00    +0.336 A 
ATOM     29  O   UNL     1       3.571  -2.888   0.000  0.00  0.00    -0.246 OA
BRANCH  27  30
ATOM     30  C   UNL     1       5.000  -3.712   0.000  0.00  0.00    +0.208 C 
ATOM     31  C   UNL     1       5.667  -4.196   0.000  0.00  0.00    +0.057 C 
ATOM     32  C   UNL     1       5.412  -4.979   0.000  0.00  0.00    +0.037 C 
ATOM     33  C   UNL     1       4.588  -4.979   0.000  0.00  0.00    +0.144 C 
ATOM     34  O   UNL     1       4.333  -4.196   0.000  0.00  0.00    -0.335 OA
ENDBRANCH  27  30
ENDBRANCH  20  21
ENDBRANCH   1  20
TORSDOF 6
