REMARK  Name = 
REMARK  1 active torsions:
REMARK  status: ('A' for Active; 'I' for Inactive)
REMARK    1  A    between atoms: C_4  and  C_7
REMARK                            x       y       z     vdW  Elec       q    Type
REMARK                         _______ _______ _______ _____ _____    ______ ____
ROOT
ATOM      1  C   UNL     1       0.715  -2.888   0.000  0.00  0.00    +0.108 C 
ATOM      2  N   UNL     1       1.429  -2.475   0.000  0.00  0.00    -0.215 NA
ATOM      3  C   UNL     1       1.429  -1.650   0.000  0.00  0.00    +0.111 C 
ATOM      4  C   UNL     1       0.715  -1.238   0.000  0.00  0.00    +0.114 C 
ATOM      5  N   UNL     1       0.000  -1.650   0.000  0.00  0.00    -0.212 NA
ATOM      6  C   UNL     1       0.000  -2.475   0.000  0.00  0.00    +0.108 C 
ENDROOT
BRANCH   4   7
ATOM      7  C   UNL     1       0.715  -0.412   0.000  0.00  0.00    +0.014 A 
ATOM      8  C   UNL     1       1.429   0.000   0.000  0.00  0.00    +0.096 A 
ATOM      9  N   UNL     1       1.429   0.825   0.000  0.00  0.00    -0.243 NA
ATOM     10  C   UNL     1       0.715   1.238   0.000  0.00  0.00    +0.099 A 
ATOM     11  C   UNL     1       0.000   0.825   0.000  0.00  0.00    +0.020 A 
ATOM     12  C   UNL     1       0.000   0.000   0.000  0.00  0.00    +0.000 A 
ENDBRANCH   4   7
TORSDOF 1
