REMARK  Name = 
REMARK  4 active torsions:
REMARK  status: ('A' for Active; 'I' for Inactive)
REMARK    1  A    between atoms: C_2  and  S_3
REMARK    2  A    between atoms: S_3  and  C_4
REMARK    3  A    between atoms: C_8  and  N_10
REMARK    4  A    between atoms: N_13  and  C_14
REMARK                            x       y       z     vdW  Elec       q    Type
REMARK                         _______ _______ _______ _____ _____    ______ ____
ROOT
ATOM      1  N   UNL     1      -3.572  -2.888   0.000  0.00  0.00    -0.189 NA
ATOM      2  C   UNL     1      -4.287  -2.475   0.000  0.00  0.00    +0.344 C 
ATOM      3  N   UNL     1      -5.001  -2.888   0.000  0.00  0.00    -0.156 NA
ATOM      4  O   UNL     1      -4.287  -1.650   0.000  0.00  0.00    -0.249 OA
ENDROOT
BRANCH   3   5
ATOM      5  C   UNL     1      -5.001  -3.712   0.000  0.00  0.00    +0.131 A 
ATOM      6  C   UNL     1      -5.716  -4.125   0.000  0.00  0.00    +0.276 A 
ATOM      7  O   UNL     1      -6.430  -3.712   0.000  0.00  0.00    -0.266 OA
ATOM      8  N   UNL     1      -5.716  -4.950   0.000  0.00  0.00    -0.291 N 
ATOM      9  C   UNL     1      -6.430  -5.362   0.000  0.00  0.00    +0.134 C 
ATOM     10  C   UNL     1      -5.001  -5.362   0.000  0.00  0.00    +0.078 A 
ATOM     11  C   UNL     1      -4.287  -4.950   0.000  0.00  0.00    +0.020 A 
ATOM     12  C   UNL     1      -4.287  -4.125   0.000  0.00  0.00    +0.023 A 
ENDBRANCH   3   5
BRANCH   1  15
ATOM     13  C   UNL     1      -2.143  -1.238   0.000  0.00  0.00    +0.049 C 
ATOM     14  C   UNL     1      -2.858  -1.650   0.000  0.00  0.00    +0.032 C 
ATOM     15  C   UNL     1      -2.858  -2.475   0.000  0.00  0.00    +0.098 C 
ATOM     16  C   UNL     1      -2.143  -2.888   0.000  0.00  0.00    +0.022 C 
ATOM     17  C   UNL     1      -1.429  -2.475   0.000  0.00  0.00    +0.003 C 
ATOM     18  C   UNL     1      -1.429  -1.650   0.000  0.00  0.00    +0.011 C 
BRANCH  13  19
ATOM     19  S   UNL     1      -2.143  -0.412   0.000  0.00  0.00    -0.141 S 
BRANCH  19  21
ATOM     20  C   UNL     1      -1.429   0.825   0.000  0.00  0.00    +0.013 C 
ATOM     21  C   UNL     1      -1.429   0.000   0.000  0.00  0.00    +0.058 C 
ENDBRANCH  19  21
ENDBRANCH  13  19
ENDBRANCH   1  15
TORSDOF 4
