REMARK  Name = 
REMARK  3 active torsions:
REMARK  status: ('A' for Active; 'I' for Inactive)
REMARK    1  A    between atoms: C_2  and  O_4
REMARK    2  A    between atoms: O_4  and  C_5
REMARK    3  A    between atoms: N_9  and  C_10
REMARK                            x       y       z     vdW  Elec       q    Type
REMARK                         _______ _______ _______ _____ _____    ______ ____
ROOT
ATOM      1  C   UNL     1      -0.551   3.429   0.000  0.00  0.00    +0.163 A 
ATOM      2  C   UNL     1      -1.265   3.017   0.000  0.00  0.00    +0.137 A 
ATOM      3  N   UNL     1      -1.265   2.192   0.000  0.00  0.00    -0.225 NA
ATOM      4  C   UNL     1      -0.551   1.779   0.000  0.00  0.00    +0.148 A 
ATOM      5  N   UNL     1      -0.551   0.954   0.000  0.00  0.00    -0.220 NA
ATOM      6  C   UNL     1       0.164   2.192   0.000  0.00  0.00    +0.039 A 
ATOM      7  C   UNL     1       0.164   3.017   0.000  0.00  0.00    +0.042 A 
ENDROOT
BRANCH   5   8
ATOM      8  C   UNL     1       0.164   0.542   0.000  0.00  0.00    +0.123 C 
ATOM      9  C   UNL     1       0.878   0.954   0.000  0.00  0.00    +0.135 C 
ATOM     10  O   UNL     1       0.672   0.129   0.000  0.00  0.00    -0.357 OA
ATOM     11  C   UNL     1       0.878  -0.696   0.000  0.00  0.00    +0.117 C 
ATOM     12  C   UNL     1       1.593  -0.283   0.000  0.00  0.00    +0.032 C 
ATOM     13  C   UNL     1       1.593   0.542   0.000  0.00  0.00    +0.034 C 
ATOM     14  C   UNL     1       0.164  -0.283   0.000  0.00  0.00    +0.054 C 
ENDBRANCH   5   8
BRANCH   1  15
ATOM     15  O   UNL     1      -0.551   4.254   0.000  0.00  0.00    -0.422 OA
BRANCH  15  17
ATOM     16  F   UNL     1      -1.265   5.492   0.000  0.00  0.00    -0.155 F 
ATOM     17  C   UNL     1      -1.265   4.667   0.000  0.00  0.00    +0.509 C 
ATOM     18  F   UNL     1      -1.980   4.254   0.000  0.00  0.00    -0.155 F 
ENDBRANCH  15  17
ENDBRANCH   1  15
TORSDOF 3
