REMARK  Name = 
REMARK  4 active torsions:
REMARK  status: ('A' for Active; 'I' for Inactive)
REMARK    1  A    between atoms: N_3  and  C_4
REMARK    2  A    between atoms: C_4  and  C_5
REMARK    3  A    between atoms: C_5  and  C_6
REMARK    4  A    between atoms: N_15  and  C_18
REMARK                            x       y       z     vdW  Elec       q    Type
REMARK                         _______ _______ _______ _____ _____    ______ ____
ROOT
ATOM      1  O   UNL     1      -2.694   3.017   0.000  0.00  0.00    -0.251 OA
ATOM      2  C   UNL     1      -2.694   2.192   0.000  0.00  0.00    +0.323 C 
ATOM      3  N   UNL     1      -1.980   1.779   0.000  0.00  0.00    -0.260 N 
ATOM      4  C   UNL     1      -1.980   0.954   0.000  0.00  0.00    +0.112 C 
ATOM      5  C   UNL     1      -1.265   0.542   0.000  0.00  0.00    +0.094 C 
ATOM      6  N   UNL     1      -0.551   0.954   0.000  0.00  0.00    -0.271 NA
ATOM      7  C   UNL     1      -0.551   1.779   0.000  0.00  0.00    +0.094 C 
ATOM      8  C   UNL     1      -1.265   2.192   0.000  0.00  0.00    +0.112 C 
ATOM      9  N   UNL     1      -3.409   1.779   0.000  0.00  0.00    -0.188 NA
ENDROOT
BRANCH   6  10
ATOM     10  C   UNL     1       0.164   0.542   0.000  0.00  0.00    +0.058 C 
ATOM     11  C   UNL     1       0.878   0.954   0.000  0.00  0.00    +0.015 C 
ATOM     12  C   UNL     1       0.672   0.129   0.000  0.00  0.00    +0.001 C 
ATOM     13  C   UNL     1       0.878  -0.696   0.000  0.00  0.00    +0.001 C 
ATOM     14  C   UNL     1       1.593  -0.283   0.000  0.00  0.00    +0.000 C 
ATOM     15  C   UNL     1       1.593   0.542   0.000  0.00  0.00    +0.001 C 
ATOM     16  C   UNL     1       0.164  -0.283   0.000  0.00  0.00    +0.016 C 
ENDBRANCH   6  10
BRANCH   9  17
ATOM     17  C   UNL     1      -4.123   2.192   0.000  0.00  0.00    +0.122 C 
BRANCH  17  18
ATOM     18  C   UNL     1      -4.838   1.779   0.000  0.00  0.00    +0.051 C 
BRANCH  18  19
ATOM     19  C   UNL     1      -5.552   2.192   0.000  0.00  0.00    -0.001 A 
ATOM     20  C   UNL     1      -5.552   3.017   0.000  0.00  0.00    +0.095 A 
ATOM     21  N   UNL     1      -6.267   3.429   0.000  0.00  0.00    -0.243 NA
ATOM     22  C   UNL     1      -6.981   3.017   0.000  0.00  0.00    +0.099 A 
ATOM     23  C   UNL     1      -6.981   2.192   0.000  0.00  0.00    +0.020 A 
ATOM     24  C   UNL     1      -6.267   1.779   0.000  0.00  0.00    -0.001 A 
ENDBRANCH  18  19
ENDBRANCH  17  18
ENDBRANCH   9  17
TORSDOF 4
