REMARK  Name = 
REMARK  1 active torsions:
REMARK  status: ('A' for Active; 'I' for Inactive)
REMARK    1  A    between atoms: N_9  and  C_10
REMARK                            x       y       z     vdW  Elec       q    Type
REMARK                         _______ _______ _______ _____ _____    ______ ____
ROOT
ATOM      1  C   UNL     1       3.595  -0.786   0.000  0.00  0.00    +0.061 C 
ATOM      2  C   UNL     1       3.595  -1.611   0.000  0.00  0.00    +0.113 A 
ATOM      3  S   UNL     1       2.928  -2.096   0.000  0.00  0.00    -0.033 S 
ATOM      4  C   UNL     1       3.182  -2.881   0.000  0.00  0.00    +0.209 A 
ATOM      5  N   UNL     1       2.697  -3.548   0.000  0.00  0.00    -0.134 NA
ATOM      6  C   UNL     1       1.877  -3.462   0.000  0.00  0.00    +0.345 C 
ATOM      7  N   UNL     1       1.392  -4.130   0.000  0.00  0.00    -0.189 NA
ATOM      8  O   UNL     1       1.541  -2.708   0.000  0.00  0.00    -0.249 OA
ATOM      9  N   UNL     1       4.007  -2.881   0.000  0.00  0.00    -0.124 NA
ATOM     10  N   UNL     1       4.262  -2.096   0.000  0.00  0.00    -0.144 NA
ENDROOT
BRANCH   7  11
ATOM     11  C   UNL     1       0.572  -4.043   0.000  0.00  0.00    +0.097 C 
ATOM     12  C   UNL     1       0.159  -3.329   0.000  0.00  0.00    +0.022 C 
ATOM     13  C   UNL     1      -0.648  -3.500   0.000  0.00  0.00    +0.002 C 
ATOM     14  C   UNL     1      -0.734  -4.321   0.000  0.00  0.00    +0.002 C 
ATOM     15  C   UNL     1       0.020  -4.656   0.000  0.00  0.00    +0.022 C 
ENDBRANCH   7  11
TORSDOF 1
