REMARK  Name = 
REMARK  7 active torsions:
REMARK  status: ('A' for Active; 'I' for Inactive)
REMARK    1  A    between atoms: C_2  and  C_3
REMARK    2  A    between atoms: C_3  and  C_4
REMARK    3  A    between atoms: N_10  and  C_11
REMARK    4  A    between atoms: C_11  and  C_12
REMARK    5  A    between atoms: C_12  and  C_13
REMARK    6  A    between atoms: C_13  and  C_14
REMARK    7  A    between atoms: C_14  and  C_15
REMARK                            x       y       z     vdW  Elec       q    Type
REMARK                         _______ _______ _______ _____ _____    ______ ____
ROOT
ATOM      1  O   UNL     1       1.429  -2.475   0.000  0.00  0.00    -0.273 OA
ATOM      2  C   UNL     1       1.429  -1.650   0.000  0.00  0.00    +0.246 C 
ATOM      3  N   UNL     1       2.143  -1.238   0.000  0.00  0.00    -0.205 NA
ENDROOT
BRANCH   3   4
ATOM      4  C   UNL     1       2.858  -1.650   0.000  0.00  0.00    +0.115 C 
BRANCH   4   5
ATOM      5  C   UNL     1       3.572  -1.238   0.000  0.00  0.00    +0.023 C 
BRANCH   5   6
ATOM      6  C   UNL     1       4.287  -1.650   0.000  0.00  0.00    +0.002 C 
BRANCH   6   7
ATOM      7  C   UNL     1       5.001  -1.238   0.000  0.00  0.00    +0.000 C 
BRANCH   7   8
ATOM      8  C   UNL     1       5.716  -1.650   0.000  0.00  0.00    +0.000 C 
ATOM      9  C   UNL     1       5.802  -2.470   0.000  0.00  0.00    +0.000 C 
ATOM     10  C   UNL     1       6.609  -2.642   0.000  0.00  0.00    +0.000 C 
ATOM     11  C   UNL     1       7.021  -1.927   0.000  0.00  0.00    +0.000 C 
ATOM     12  C   UNL     1       6.469  -1.314   0.000  0.00  0.00    +0.000 C 
ENDBRANCH   7   8
ENDBRANCH   6   7
ENDBRANCH   5   6
ENDBRANCH   4   5
ENDBRANCH   3   4
BRANCH   2  13
ATOM     13  C   UNL     1       0.715  -1.238   0.000  0.00  0.00    +0.115 C 
BRANCH  13  14
ATOM     14  C   UNL     1       0.000  -1.650   0.000  0.00  0.00    +0.006 A 
ATOM     15  C   UNL     1      -0.715  -1.238   0.000  0.00  0.00    +0.095 A 
ATOM     16  N   UNL     1      -1.429  -1.650   0.000  0.00  0.00    -0.243 NA
ATOM     17  C   UNL     1      -1.429  -2.475   0.000  0.00  0.00    +0.099 A 
ATOM     18  C   UNL     1      -0.715  -2.888   0.000  0.00  0.00    +0.020 A 
ATOM     19  C   UNL     1       0.000  -2.475   0.000  0.00  0.00    -0.001 A 
ENDBRANCH  13  14
ENDBRANCH   2  13
TORSDOF 7
