REMARK  Name = 
REMARK  2 active torsions:
REMARK  status: ('A' for Active; 'I' for Inactive)
REMARK    1  A    between atoms: N_6  and  C_7
REMARK    2  A    between atoms: C_7  and  C_8
REMARK                            x       y       z     vdW  Elec       q    Type
REMARK                         _______ _______ _______ _____ _____    ______ ____
ROOT
ATOM      1 CL   UNL     1       0.000   0.000   0.000  0.00  0.00    +0.000 Cl
ENDROOT
TORSDOF 0
REMARK  Name = 
REMARK  2 active torsions:
REMARK  status: ('A' for Active; 'I' for Inactive)
REMARK    1  A    between atoms: N_6  and  C_7
REMARK    2  A    between atoms: C_7  and  C_8
REMARK                            x       y       z     vdW  Elec       q    Type
REMARK                         _______ _______ _______ _____ _____    ______ ____
ROOT
ATOM      1  N   UNL     1       3.164  -1.740   0.000  0.00  0.00    +0.002 NA
ATOM      2  N   UNL     1       3.419  -0.955   0.000  0.00  0.00    -0.204 N 
ATOM      3  C   UNL     1       4.204  -0.701   0.000  0.00  0.00    +0.097 A 
ATOM      4  C   UNL     1       4.204   0.124   0.000  0.00  0.00    +0.080 A 
ATOM      5  C   UNL     1       4.918   0.537   0.000  0.00  0.00    +0.019 A 
ATOM      6  C   UNL     1       5.633   0.124   0.000  0.00  0.00    +0.002 A 
ATOM      7  C   UNL     1       5.633  -0.701   0.000  0.00  0.00    +0.002 A 
ATOM      8  N   UNL     1       3.419   0.380   0.000  0.00  0.00    -0.293 N 
ATOM      9  C   UNL     1       4.918  -1.113   0.000  0.00  0.00    +0.020 A 
ATOM     10  C   UNL     1       2.934  -0.288   0.000  0.00  0.00    +0.250 A 
ATOM     11  N   UNL     1       2.109  -0.288   0.000  0.00  0.00    -0.107 NA
ENDROOT
BRANCH   8  12
ATOM     12  C   UNL     1       3.164   1.164   0.000  0.00  0.00    +0.144 C 
BRANCH  12  13
ATOM     13  C   UNL     1       2.357   1.336   0.000  0.00  0.00    +0.207 C 
ATOM     14  O   UNL     1       2.102   2.120   0.000  0.00  0.00    -0.218 OA
ENDBRANCH  12  13
ENDBRANCH   8  12
TORSDOF 2
