MODEL 1
REMARK VINA RESULT:      -6.6      0.000      0.000
REMARK  4 active torsions:
REMARK  status: ('A' for Active; 'I' for Inactive)
REMARK    1  A    between atoms: N_11  and  C_12 
REMARK    2  A    between atoms: C_12  and  C_13 
REMARK    3  A    between atoms: C_13  and  O_14 
REMARK    4  A    between atoms: C_13  and  C_15 
ROOT
HETATM    1  C   UNL     1     -42.032 -56.235  16.888  1.00  0.00     0.164 C 
HETATM    2  N   UNL     1     -41.776 -55.313  15.799  1.00  0.00    -0.269 N 
HETATM    3  C   UNL     1     -40.468 -54.815  15.638  1.00  0.00     0.332 A 
HETATM    4  O   UNL     1     -39.556 -55.147  16.398  1.00  0.00    -0.246 OA
HETATM    5  N   UNL     1     -40.252 -53.924  14.582  1.00  0.00    -0.287 N 
HETATM    6  C   UNL     1     -38.932 -53.372  14.340  1.00  0.00     0.163 C 
HETATM    7  C   UNL     1     -41.300 -53.585  13.760  1.00  0.00     0.145 A 
HETATM    8  N   UNL     1     -41.248 -52.732  12.699  1.00  0.00    -0.336 N 
ATOM      9  HN  UNL     1     -40.441 -52.212  12.355  1.00  0.00     0.168 HD
HETATM   10  C   UNL     1     -42.476 -52.729  12.219  1.00  0.00     0.185 A 
HETATM   11  N   UNL     1     -43.300 -53.557  12.936  1.00  0.00    -0.333 N 
HETATM   12  C   UNL     1     -42.548 -54.098  13.941  1.00  0.00     0.149 A 
HETATM   13  C   UNL     1     -42.872 -55.010  14.982  1.00  0.00     0.282 A 
HETATM   14  O   UNL     1     -43.998 -55.475  15.141  1.00  0.00    -0.265 OA
ENDROOT
BRANCH  11  15
HETATM   15  C   UNL     1     -44.715 -53.768  12.696  1.00  0.00     0.167 C 
BRANCH  15  16
HETATM   16  C   UNL     1     -45.518 -52.458  12.639  1.00  0.00     0.169 C 
BRANCH  16  17
HETATM   17  O   UNL     1     -46.762 -52.609  11.954  1.00  0.00    -0.389 OA
HETATM   18  H   UNL     1     -47.111 -51.721  11.753  1.00  0.00     0.210 HD
ENDBRANCH  16  17
BRANCH  16  19
HETATM   19  C   UNL     1     -45.797 -51.917  14.027  1.00  0.00    -0.028 A 
HETATM   20  C   UNL     1     -46.998 -52.239  14.677  1.00  0.00     0.010 A 
HETATM   21  C   UNL     1     -47.276 -51.731  15.947  1.00  0.00     0.001 A 
HETATM   22  C   UNL     1     -46.356 -50.902  16.585  1.00  0.00     0.000 A 
HETATM   23  C   UNL     1     -45.153 -50.586  15.960  1.00  0.00     0.001 A 
HETATM   24  C   UNL     1     -44.872 -51.093  14.689  1.00  0.00     0.010 A 
ENDBRANCH  16  19
ENDBRANCH  15  16
ENDBRANCH  11  15
TORSDOF 4
ENDMDL
MODEL 2
REMARK VINA RESULT:      -6.5      1.769      2.455
REMARK  4 active torsions:
REMARK  status: ('A' for Active; 'I' for Inactive)
REMARK    1  A    between atoms: N_11  and  C_12 
REMARK    2  A    between atoms: C_12  and  C_13 
REMARK    3  A    between atoms: C_13  and  O_14 
REMARK    4  A    between atoms: C_13  and  C_15 
ROOT
HETATM    1  C   UNL     1     -39.191 -54.275  15.537  1.00  0.00     0.164 C 
HETATM    2  N   UNL     1     -40.170 -53.777  14.590  1.00  0.00    -0.269 N 
HETATM    3  C   UNL     1     -39.757 -52.816  13.646  1.00  0.00     0.332 A 
HETATM    4  O   UNL     1     -38.597 -52.400  13.616  1.00  0.00    -0.246 OA
HETATM    5  N   UNL     1     -40.724 -52.351  12.749  1.00  0.00    -0.287 N 
HETATM    6  C   UNL     1     -40.380 -51.368  11.737  1.00  0.00     0.163 C 
HETATM    7  C   UNL     1     -42.003 -52.845  12.819  1.00  0.00     0.145 A 
HETATM    8  N   UNL     1     -43.050 -52.489  12.023  1.00  0.00    -0.336 N 
ATOM      9  HN  UNL     1     -43.054 -51.807  11.264  1.00  0.00     0.168 HD
HETATM   10  C   UNL     1     -44.056 -53.225  12.452  1.00  0.00     0.185 A 
HETATM   11  N   UNL     1     -43.679 -54.038  13.489  1.00  0.00    -0.333 N 
HETATM   12  C   UNL     1     -42.360 -53.784  13.739  1.00  0.00     0.149 A 
HETATM   13  C   UNL     1     -41.454 -54.322  14.694  1.00  0.00     0.282 A 
HETATM   14  O   UNL     1     -41.777 -55.171  15.521  1.00  0.00    -0.265 OA
ENDROOT
BRANCH  11  15
HETATM   15  C   UNL     1     -44.542 -54.952  14.213  1.00  0.00     0.167 C 
BRANCH  15  16
HETATM   16  C   UNL     1     -46.014 -54.508  14.227  1.00  0.00     0.169 C 
BRANCH  16  17
HETATM   17  O   UNL     1     -46.913 -55.599  14.432  1.00  0.00    -0.389 OA
HETATM   18  H   UNL     1     -47.402 -55.753  13.603  1.00  0.00     0.210 HD
ENDBRANCH  16  17
BRANCH  16  19
HETATM   19  C   UNL     1     -46.269 -53.468  15.300  1.00  0.00    -0.028 A 
HETATM   20  C   UNL     1     -46.826 -52.227  14.956  1.00  0.00     0.010 A 
HETATM   21  C   UNL     1     -47.047 -51.253  15.931  1.00  0.00     0.001 A 
HETATM   22  C   UNL     1     -46.721 -51.509  17.261  1.00  0.00     0.000 A 
HETATM   23  C   UNL     1     -46.181 -52.742  17.621  1.00  0.00     0.001 A 
HETATM   24  C   UNL     1     -45.959 -53.717  16.647  1.00  0.00     0.010 A 
ENDBRANCH  16  19
ENDBRANCH  15  16
ENDBRANCH  11  15
TORSDOF 4
ENDMDL
MODEL 3
REMARK VINA RESULT:      -6.3      4.812      6.449
REMARK  4 active torsions:
REMARK  status: ('A' for Active; 'I' for Inactive)
REMARK    1  A    between atoms: N_11  and  C_12 
REMARK    2  A    between atoms: C_12  and  C_13 
REMARK    3  A    between atoms: C_13  and  O_14 
REMARK    4  A    between atoms: C_13  and  C_15 
ROOT
HETATM    1  C   UNL     1     -38.589 -47.095  15.625  1.00  0.00     0.164 C 
HETATM    2  N   UNL     1     -39.152 -47.428  14.331  1.00  0.00    -0.269 N 
HETATM    3  C   UNL     1     -39.252 -46.409  13.362  1.00  0.00     0.332 A 
HETATM    4  O   UNL     1     -38.875 -45.259  13.598  1.00  0.00    -0.246 OA
HETATM    5  N   UNL     1     -39.803 -46.759  12.126  1.00  0.00    -0.287 N 
HETATM    6  C   UNL     1     -39.933 -45.772  11.069  1.00  0.00     0.163 C 
HETATM    7  C   UNL     1     -40.208 -48.054  11.909  1.00  0.00     0.145 A 
HETATM    8  N   UNL     1     -40.764 -48.544  10.766  1.00  0.00    -0.336 N 
ATOM      9  HN  UNL     1     -40.972 -48.038   9.906  1.00  0.00     0.168 HD
HETATM   10  C   UNL     1     -40.973 -49.820  11.023  1.00  0.00     0.185 A 
HETATM   11  N   UNL     1     -40.562 -50.155  12.286  1.00  0.00    -0.333 N 
HETATM   12  C   UNL     1     -40.083 -49.014  12.867  1.00  0.00     0.149 A 
HETATM   13  C   UNL     1     -39.536 -48.763  14.155  1.00  0.00     0.282 A 
HETATM   14  O   UNL     1     -39.420 -49.631  15.017  1.00  0.00    -0.265 OA
ENDROOT
BRANCH  11  15
HETATM   15  C   UNL     1     -40.671 -51.465  12.900  1.00  0.00     0.167 C 
BRANCH  15  16
HETATM   16  C   UNL     1     -41.429 -52.478  12.027  1.00  0.00     0.169 C 
BRANCH  16  17
HETATM   17  O   UNL     1     -40.553 -53.373  11.341  1.00  0.00    -0.389 OA
HETATM   18  H   UNL     1     -39.694 -52.929  11.222  1.00  0.00     0.210 HD
ENDBRANCH  16  17
BRANCH  16  19
HETATM   19  C   UNL     1     -42.404 -53.297  12.850  1.00  0.00    -0.028 A 
HETATM   20  C   UNL     1     -41.949 -54.028  13.957  1.00  0.00     0.010 A 
HETATM   21  C   UNL     1     -42.833 -54.802  14.710  1.00  0.00     0.001 A 
HETATM   22  C   UNL     1     -44.183 -54.850  14.371  1.00  0.00     0.000 A 
HETATM   23  C   UNL     1     -44.654 -54.118  13.283  1.00  0.00     0.001 A 
HETATM   24  C   UNL     1     -43.771 -53.343  12.529  1.00  0.00     0.010 A 
ENDBRANCH  16  19
ENDBRANCH  15  16
ENDBRANCH  11  15
TORSDOF 4
ENDMDL
MODEL 4
REMARK VINA RESULT:      -6.1      2.483      3.438
REMARK  4 active torsions:
REMARK  status: ('A' for Active; 'I' for Inactive)
REMARK    1  A    between atoms: N_11  and  C_12 
REMARK    2  A    between atoms: C_12  and  C_13 
REMARK    3  A    between atoms: C_13  and  O_14 
REMARK    4  A    between atoms: C_13  and  C_15 
ROOT
HETATM    1  C   UNL     1     -38.240 -51.859  16.780  1.00  0.00     0.164 C 
HETATM    2  N   UNL     1     -38.715 -51.620  15.431  1.00  0.00    -0.269 N 
HETATM    3  C   UNL     1     -37.975 -50.748  14.607  1.00  0.00     0.332 A 
HETATM    4  O   UNL     1     -36.949 -50.196  15.012  1.00  0.00    -0.246 OA
HETATM    5  N   UNL     1     -38.459 -50.532  13.313  1.00  0.00    -0.287 N 
HETATM    6  C   UNL     1     -37.752 -49.657  12.396  1.00  0.00     0.163 C 
HETATM    7  C   UNL     1     -39.605 -51.171  12.906  1.00  0.00     0.145 A 
HETATM    8  N   UNL     1     -40.200 -51.060  11.686  1.00  0.00    -0.336 N 
ATOM      9  HN  UNL     1     -39.900 -50.490  10.894  1.00  0.00     0.168 HD
HETATM   10  C   UNL     1     -41.250 -51.853  11.757  1.00  0.00     0.185 A 
HETATM   11  N   UNL     1     -41.336 -52.467  12.979  1.00  0.00    -0.333 N 
HETATM   12  C   UNL     1     -40.286 -52.017  13.729  1.00  0.00     0.149 A 
HETATM   13  C   UNL     1     -39.878 -52.304  15.060  1.00  0.00     0.282 A 
HETATM   14  O   UNL     1     -40.490 -53.070  15.800  1.00  0.00    -0.265 OA
ENDROOT
BRANCH  11  15
HETATM   15  C   UNL     1     -42.381 -53.379  13.404  1.00  0.00     0.167 C 
BRANCH  15  16
HETATM   16  C   UNL     1     -43.719 -53.141  12.685  1.00  0.00     0.169 C 
BRANCH  16  17
HETATM   17  O   UNL     1     -44.289 -54.347  12.176  1.00  0.00    -0.389 OA
HETATM   18  H   UNL     1     -43.926 -55.096  12.684  1.00  0.00     0.210 HD
ENDBRANCH  16  17
BRANCH  16  19
HETATM   19  C   UNL     1     -44.730 -52.480  13.600  1.00  0.00    -0.028 A 
HETATM   20  C   UNL     1     -44.445 -52.323  14.965  1.00  0.00     0.010 A 
HETATM   21  C   UNL     1     -45.376 -51.734  15.822  1.00  0.00     0.001 A 
HETATM   22  C   UNL     1     -46.600 -51.290  15.326  1.00  0.00     0.000 A 
HETATM   23  C   UNL     1     -46.892 -51.424  13.971  1.00  0.00     0.001 A 
HETATM   24  C   UNL     1     -45.962 -52.013  13.111  1.00  0.00     0.010 A 
ENDBRANCH  16  19
ENDBRANCH  15  16
ENDBRANCH  11  15
TORSDOF 4
ENDMDL
MODEL 5
REMARK VINA RESULT:      -5.9      1.692      2.416
REMARK  4 active torsions:
REMARK  status: ('A' for Active; 'I' for Inactive)
REMARK    1  A    between atoms: N_11  and  C_12 
REMARK    2  A    between atoms: C_12  and  C_13 
REMARK    3  A    between atoms: C_13  and  O_14 
REMARK    4  A    between atoms: C_13  and  C_15 
ROOT
HETATM    1  C   UNL     1     -42.597 -56.096  18.367  1.00  0.00     0.164 C 
HETATM    2  N   UNL     1     -41.679 -55.697  17.317  1.00  0.00    -0.269 N 
HETATM    3  C   UNL     1     -40.300 -55.899  17.523  1.00  0.00     0.332 A 
HETATM    4  O   UNL     1     -39.872 -56.402  18.564  1.00  0.00    -0.246 OA
HETATM    5  N   UNL     1     -39.439 -55.500  16.496  1.00  0.00    -0.287 N 
HETATM    6  C   UNL     1     -38.004 -55.684  16.623  1.00  0.00     0.163 C 
HETATM    7  C   UNL     1     -39.962 -54.947  15.353  1.00  0.00     0.145 A 
HETATM    8  N   UNL     1     -39.257 -54.507  14.274  1.00  0.00    -0.336 N 
ATOM      9  HN  UNL     1     -38.245 -54.512  14.145  1.00  0.00     0.168 HD
HETATM   10  C   UNL     1     -40.175 -54.074  13.434  1.00  0.00     0.185 A 
HETATM   11  N   UNL     1     -41.438 -54.231  13.942  1.00  0.00    -0.333 N 
HETATM   12  C   UNL     1     -41.304 -54.778  15.187  1.00  0.00     0.149 A 
HETATM   13  C   UNL     1     -42.263 -55.151  16.168  1.00  0.00     0.282 A 
HETATM   14  O   UNL     1     -43.472 -55.002  16.015  1.00  0.00    -0.265 OA
ENDROOT
BRANCH  11  15
HETATM   15  C   UNL     1     -42.674 -53.836  13.294  1.00  0.00     0.167 C 
BRANCH  15  16
HETATM   16  C   UNL     1     -42.896 -52.314  13.297  1.00  0.00     0.169 C 
BRANCH  16  17
HETATM   17  O   UNL     1     -42.729 -51.734  12.003  1.00  0.00    -0.389 OA
HETATM   18  H   UNL     1     -41.880 -52.044  11.636  1.00  0.00     0.210 HD
ENDBRANCH  16  17
BRANCH  16  19
HETATM   19  C   UNL     1     -44.278 -51.957  13.808  1.00  0.00    -0.028 A 
HETATM   20  C   UNL     1     -44.468 -51.652  15.164  1.00  0.00     0.010 A 
HETATM   21  C   UNL     1     -45.738 -51.341  15.651  1.00  0.00     0.001 A 
HETATM   22  C   UNL     1     -46.832 -51.324  14.789  1.00  0.00     0.000 A 
HETATM   23  C   UNL     1     -46.658 -51.609  13.437  1.00  0.00     0.001 A 
HETATM   24  C   UNL     1     -45.388 -51.920  12.948  1.00  0.00     0.010 A 
ENDBRANCH  16  19
ENDBRANCH  15  16
ENDBRANCH  11  15
TORSDOF 4
ENDMDL
MODEL 6
REMARK VINA RESULT:      -5.9      3.737      5.379
REMARK  4 active torsions:
REMARK  status: ('A' for Active; 'I' for Inactive)
REMARK    1  A    between atoms: N_11  and  C_12 
REMARK    2  A    between atoms: C_12  and  C_13 
REMARK    3  A    between atoms: C_13  and  O_14 
REMARK    4  A    between atoms: C_13  and  C_15 
ROOT
HETATM    1  C   UNL     1     -44.701 -54.657  13.631  1.00  0.00     0.164 C 
HETATM    2  N   UNL     1     -43.335 -54.256  13.907  1.00  0.00    -0.269 N 
HETATM    3  C   UNL     1     -42.632 -54.932  14.924  1.00  0.00     0.332 A 
HETATM    4  O   UNL     1     -43.154 -55.843  15.571  1.00  0.00    -0.246 OA
HETATM    5  N   UNL     1     -41.319 -54.520  15.171  1.00  0.00    -0.287 N 
HETATM    6  C   UNL     1     -40.521 -55.170  16.194  1.00  0.00     0.163 C 
HETATM    7  C   UNL     1     -40.779 -53.501  14.424  1.00  0.00     0.145 A 
HETATM    8  N   UNL     1     -39.523 -52.988  14.548  1.00  0.00    -0.336 N 
ATOM      9  HN  UNL     1     -38.797 -53.267  15.207  1.00  0.00     0.168 HD
HETATM   10  C   UNL     1     -39.458 -52.050  13.624  1.00  0.00     0.185 A 
HETATM   11  N   UNL     1     -40.627 -51.957  12.916  1.00  0.00    -0.333 N 
HETATM   12  C   UNL     1     -41.488 -52.880  13.440  1.00  0.00     0.149 A 
HETATM   13  C   UNL     1     -42.827 -53.224  13.110  1.00  0.00     0.282 A 
HETATM   14  O   UNL     1     -43.464 -52.666  12.219  1.00  0.00    -0.265 OA
ENDROOT
BRANCH  11  15
HETATM   15  C   UNL     1     -40.906 -51.014  11.850  1.00  0.00     0.167 C 
BRANCH  15  16
HETATM   16  C   UNL     1     -39.869 -49.883  11.759  1.00  0.00     0.169 C 
BRANCH  16  17
HETATM   17  O   UNL     1     -38.822 -50.174  10.832  1.00  0.00    -0.389 OA
HETATM   18  H   UNL     1     -38.484 -51.068  11.022  1.00  0.00     0.210 HD
ENDBRANCH  16  17
BRANCH  16  19
HETATM   19  C   UNL     1     -40.513 -48.571  11.358  1.00  0.00    -0.028 A 
HETATM   20  C   UNL     1     -39.824 -47.363  11.548  1.00  0.00     0.010 A 
HETATM   21  C   UNL     1     -40.414 -46.147  11.202  1.00  0.00     0.001 A 
HETATM   22  C   UNL     1     -41.696 -46.121  10.657  1.00  0.00     0.000 A 
HETATM   23  C   UNL     1     -42.387 -47.312  10.448  1.00  0.00     0.001 A 
HETATM   24  C   UNL     1     -41.799 -48.531  10.793  1.00  0.00     0.010 A 
ENDBRANCH  16  19
ENDBRANCH  15  16
ENDBRANCH  11  15
TORSDOF 4
ENDMDL
MODEL 7
REMARK VINA RESULT:      -5.8      4.657      5.876
REMARK  4 active torsions:
REMARK  status: ('A' for Active; 'I' for Inactive)
REMARK    1  A    between atoms: N_11  and  C_12 
REMARK    2  A    between atoms: C_12  and  C_13 
REMARK    3  A    between atoms: C_13  and  O_14 
REMARK    4  A    between atoms: C_13  and  C_15 
ROOT
HETATM    1  C   UNL     1     -44.860 -52.930  14.489  1.00  0.00     0.164 C 
HETATM    2  N   UNL     1     -43.573 -52.636  13.889  1.00  0.00    -0.269 N 
HETATM    3  C   UNL     1     -42.559 -53.611  13.971  1.00  0.00     0.332 A 
HETATM    4  O   UNL     1     -42.748 -54.690  14.538  1.00  0.00    -0.246 OA
HETATM    5  N   UNL     1     -41.327 -53.298  13.388  1.00  0.00    -0.287 N 
HETATM    6  C   UNL     1     -40.232 -54.250  13.419  1.00  0.00     0.163 C 
HETATM    7  C   UNL     1     -41.165 -52.084  12.766  1.00  0.00     0.145 A 
HETATM    8  N   UNL     1     -40.030 -51.635  12.159  1.00  0.00    -0.336 N 
ATOM      9  HN  UNL     1     -39.134 -52.115  12.076  1.00  0.00     0.168 HD
HETATM   10  C   UNL     1     -40.351 -50.440  11.703  1.00  0.00     0.185 A 
HETATM   11  N   UNL     1     -41.651 -50.121  11.996  1.00  0.00    -0.333 N 
HETATM   12  C   UNL     1     -42.174 -51.173  12.696  1.00  0.00     0.149 A 
HETATM   13  C   UNL     1     -43.463 -51.393  13.255  1.00  0.00     0.282 A 
HETATM   14  O   UNL     1     -44.374 -50.572  13.188  1.00  0.00    -0.265 OA
ENDROOT
BRANCH  11  15
HETATM   15  C   UNL     1     -42.319 -48.876  11.668  1.00  0.00     0.167 C 
BRANCH  15  16
HETATM   16  C   UNL     1     -41.617 -48.093  10.546  1.00  0.00     0.169 C 
BRANCH  16  17
HETATM   17  O   UNL     1     -42.327 -48.153   9.309  1.00  0.00    -0.389 OA
HETATM   18  H   UNL     1     -43.145 -48.665   9.450  1.00  0.00     0.210 HD
ENDBRANCH  16  17
BRANCH  16  19
HETATM   19  C   UNL     1     -41.429 -46.637  10.921  1.00  0.00    -0.028 A 
HETATM   20  C   UNL     1     -40.250 -45.966  10.562  1.00  0.00     0.010 A 
HETATM   21  C   UNL     1     -40.056 -44.630  10.918  1.00  0.00     0.001 A 
HETATM   22  C   UNL     1     -41.039 -43.947  11.632  1.00  0.00     0.000 A 
HETATM   23  C   UNL     1     -42.221 -44.594  11.983  1.00  0.00     0.001 A 
HETATM   24  C   UNL     1     -42.417 -45.930  11.627  1.00  0.00     0.010 A 
ENDBRANCH  16  19
ENDBRANCH  15  16
ENDBRANCH  11  15
TORSDOF 4
ENDMDL
MODEL 8
REMARK VINA RESULT:      -5.7      3.531      5.637
REMARK  4 active torsions:
REMARK  status: ('A' for Active; 'I' for Inactive)
REMARK    1  A    between atoms: N_11  and  C_12 
REMARK    2  A    between atoms: C_12  and  C_13 
REMARK    3  A    between atoms: C_13  and  O_14 
REMARK    4  A    between atoms: C_13  and  C_15 
ROOT
HETATM    1  C   UNL     1     -46.322 -52.245  14.859  1.00  0.00     0.164 C 
HETATM    2  N   UNL     1     -44.956 -52.678  14.637  1.00  0.00    -0.269 N 
HETATM    3  C   UNL     1     -44.530 -53.879  15.238  1.00  0.00     0.332 A 
HETATM    4  O   UNL     1     -45.289 -54.554  15.938  1.00  0.00    -0.246 OA
HETATM    5  N   UNL     1     -43.207 -54.269  15.009  1.00  0.00    -0.287 N 
HETATM    6  C   UNL     1     -42.690 -55.499  15.583  1.00  0.00     0.163 C 
HETATM    7  C   UNL     1     -42.399 -53.487  14.221  1.00  0.00     0.145 A 
HETATM    8  N   UNL     1     -41.094 -53.730  13.911  1.00  0.00    -0.336 N 
ATOM      9  HN  UNL     1     -40.516 -54.513  14.215  1.00  0.00     0.168 HD
HETATM   10  C   UNL     1     -40.748 -52.725  13.132  1.00  0.00     0.185 A 
HETATM   11  N   UNL     1     -41.791 -51.858  12.933  1.00  0.00    -0.333 N 
HETATM   12  C   UNL     1     -42.852 -52.338  13.647  1.00  0.00     0.149 A 
HETATM   13  C   UNL     1     -44.179 -51.855  13.815  1.00  0.00     0.282 A 
HETATM   14  O   UNL     1     -44.588 -50.820  13.294  1.00  0.00    -0.265 OA
ENDROOT
BRANCH  11  15
HETATM   15  C   UNL     1     -41.747 -50.636  12.153  1.00  0.00     0.167 C 
BRANCH  15  16
HETATM   16  C   UNL     1     -40.345 -50.319  11.607  1.00  0.00     0.169 C 
BRANCH  16  17
HETATM   17  O   UNL     1     -40.369 -49.916  10.238  1.00  0.00    -0.389 OA
HETATM   18  H   UNL     1     -39.846 -49.098  10.150  1.00  0.00     0.210 HD
ENDBRANCH  16  17
BRANCH  16  19
HETATM   19  C   UNL     1     -39.668 -49.230  12.416  1.00  0.00    -0.028 A 
HETATM   20  C   UNL     1     -38.467 -49.499  13.090  1.00  0.00     0.010 A 
HETATM   21  C   UNL     1     -37.845 -48.511  13.854  1.00  0.00     0.001 A 
HETATM   22  C   UNL     1     -38.411 -47.241  13.950  1.00  0.00     0.000 A 
HETATM   23  C   UNL     1     -39.594 -46.954  13.275  1.00  0.00     0.001 A 
HETATM   24  C   UNL     1     -40.219 -47.941  12.509  1.00  0.00     0.010 A 
ENDBRANCH  16  19
ENDBRANCH  15  16
ENDBRANCH  11  15
TORSDOF 4
ENDMDL
MODEL 9
REMARK VINA RESULT:      -5.7      3.723      5.236
REMARK  4 active torsions:
REMARK  status: ('A' for Active; 'I' for Inactive)
REMARK    1  A    between atoms: N_11  and  C_12 
REMARK    2  A    between atoms: C_12  and  C_13 
REMARK    3  A    between atoms: C_13  and  O_14 
REMARK    4  A    between atoms: C_13  and  C_15 
ROOT
HETATM    1  C   UNL     1     -38.705 -50.518  18.122  1.00  0.00     0.164 C 
HETATM    2  N   UNL     1     -38.587 -50.202  16.711  1.00  0.00    -0.269 N 
HETATM    3  C   UNL     1     -37.914 -49.020  16.345  1.00  0.00     0.332 A 
HETATM    4  O   UNL     1     -37.432 -48.265  17.192  1.00  0.00    -0.246 OA
HETATM    5  N   UNL     1     -37.820 -48.740  14.978  1.00  0.00    -0.287 N 
HETATM    6  C   UNL     1     -37.133 -47.548  14.515  1.00  0.00     0.163 C 
HETATM    7  C   UNL     1     -38.370 -49.612  14.071  1.00  0.00     0.145 A 
HETATM    8  N   UNL     1     -38.364 -49.475  12.715  1.00  0.00    -0.336 N 
ATOM      9  HN  UNL     1     -37.964 -48.714  12.166  1.00  0.00     0.168 HD
HETATM   10  C   UNL     1     -38.991 -50.547  12.274  1.00  0.00     0.185 A 
HETATM   11  N   UNL     1     -39.388 -51.360  13.303  1.00  0.00    -0.333 N 
HETATM   12  C   UNL     1     -39.003 -50.752  14.465  1.00  0.00     0.149 A 
HETATM   13  C   UNL     1     -39.151 -51.129  15.828  1.00  0.00     0.282 A 
HETATM   14  O   UNL     1     -39.719 -52.160  16.181  1.00  0.00    -0.265 OA
ENDROOT
BRANCH  11  15
HETATM   15  C   UNL     1     -40.125 -52.602  13.174  1.00  0.00     0.167 C 
BRANCH  15  16
HETATM   16  C   UNL     1     -41.458 -52.437  12.425  1.00  0.00     0.169 C 
BRANCH  16  17
HETATM   17  O   UNL     1     -41.352 -52.769  11.040  1.00  0.00    -0.389 OA
HETATM   18  H   UNL     1     -41.018 -51.988  10.562  1.00  0.00     0.210 HD
ENDBRANCH  16  17
BRANCH  16  19
HETATM   19  C   UNL     1     -42.549 -53.290  13.041  1.00  0.00    -0.028 A 
HETATM   20  C   UNL     1     -42.280 -54.056  14.185  1.00  0.00     0.010 A 
HETATM   21  C   UNL     1     -43.270 -54.861  14.750  1.00  0.00     0.001 A 
HETATM   22  C   UNL     1     -44.542 -54.906  14.184  1.00  0.00     0.000 A 
HETATM   23  C   UNL     1     -44.830 -54.139  13.057  1.00  0.00     0.001 A 
HETATM   24  C   UNL     1     -43.841 -53.333  12.490  1.00  0.00     0.010 A 
ENDBRANCH  16  19
ENDBRANCH  15  16
ENDBRANCH  11  15
TORSDOF 4
ENDMDL
