MODEL 1
REMARK VINA RESULT:      -7.1      0.000      0.000
REMARK  7 active torsions:
REMARK  status: ('A' for Active; 'I' for Inactive)
REMARK    1  A    between atoms: N_6  and  C_7 
REMARK    2  A    between atoms: C_7  and  C_8 
REMARK    3  A    between atoms: C_8  and  O_9 
REMARK    4  A    between atoms: C_8  and  C_10 
REMARK    5  A    between atoms: C_10  and  N_11 
REMARK    6  A    between atoms: C_23  and  C_24 
REMARK    7  A    between atoms: C_24  and  O_25 
ROOT
HETATM    1  C   UNL     1     -42.253 -52.168  12.334  1.00  0.00     0.164 C 
ENDROOT
BRANCH   1   2
HETATM    2  C   UNL     1     -41.647 -50.914  13.032  1.00  0.00     0.306 C 
BRANCH   2   3
HETATM    3  N   UNL     1     -40.179 -50.688  12.907  1.00  0.00     0.098 N 
HETATM    4  C   UNL     1     -39.509 -51.080  14.162  1.00  0.00     0.273 C 
HETATM    5  C   UNL     1     -37.998 -50.875  14.172  1.00  0.00     0.031 C 
HETATM    6  C   UNL     1     -37.646 -49.450  13.776  1.00  0.00     0.008 C 
HETATM    7  C   UNL     1     -38.258 -49.102  12.415  1.00  0.00     0.017 C 
HETATM    8  C   UNL     1     -37.550 -49.865  11.286  1.00  0.00     0.012 C 
HETATM    9  C   UNL     1     -39.799 -49.317  12.465  1.00  0.00     0.250 C 
BRANCH   9  10
HETATM   10  C   UNL     1     -40.451 -48.902  11.115  1.00  0.00     0.200 C 
BRANCH  10  11
HETATM   11  O   UNL     1     -40.484 -49.985  10.187  1.00  0.00    -0.399 OA
HETATM   12  H   UNL     1     -39.563 -50.185   9.942  1.00  0.00     0.209 HD
ENDBRANCH  10  11
ENDBRANCH   9  10
ENDBRANCH   2   3
ENDBRANCH   1   2
BRANCH   1  13
HETATM   13  O   UNL     1     -41.382 -52.644  11.302  1.00  0.00    -0.392 OA
HETATM   14  H   UNL     1     -41.112 -53.551  11.516  1.00  0.00     0.210 HD
ENDBRANCH   1  13
BRANCH   1  15
HETATM   15  C   UNL     1     -42.517 -53.302  13.332  1.00  0.00     0.163 C 
BRANCH  15  16
HETATM   16  N   UNL     1     -43.938 -53.434  13.613  1.00  0.00    -0.339 N 
HETATM   17  C   UNL     1     -44.770 -54.349  13.030  1.00  0.00     0.184 A 
HETATM   18  N   UNL     1     -46.001 -54.236  13.469  1.00  0.00    -0.350 N 
HETATM   19  C   UNL     1     -45.962 -53.210  14.384  1.00  0.00     0.060 A 
ATOM     20  HN  UNL     1     -46.811 -54.789  13.192  1.00  0.00     0.166 HD
HETATM   21  C   UNL     1     -46.999 -52.658  15.150  1.00  0.00     0.039 A 
HETATM   22  C   UNL     1     -44.678 -52.693  14.505  1.00  0.00     0.062 A 
HETATM   23  C   UNL     1     -46.732 -51.584  16.025  1.00  0.00    -0.054 A 
HETATM   24  C   UNL     1     -47.883 -50.987  16.791  1.00  0.00     0.049 C 
HETATM   25  C   UNL     1     -45.416 -51.091  16.149  1.00  0.00    -0.054 A 
HETATM   26  C   UNL     1     -45.059 -49.944  17.060  1.00  0.00     0.049 C 
HETATM   27  C   UNL     1     -44.369 -51.652  15.388  1.00  0.00     0.039 A 
ENDBRANCH  15  16
ENDBRANCH   1  15
TORSDOF 7
ENDMDL
MODEL 2
REMARK VINA RESULT:      -6.7      1.252      2.383
REMARK  7 active torsions:
REMARK  status: ('A' for Active; 'I' for Inactive)
REMARK    1  A    between atoms: N_6  and  C_7 
REMARK    2  A    between atoms: C_7  and  C_8 
REMARK    3  A    between atoms: C_8  and  O_9 
REMARK    4  A    between atoms: C_8  and  C_10 
REMARK    5  A    between atoms: C_10  and  N_11 
REMARK    6  A    between atoms: C_23  and  C_24 
REMARK    7  A    between atoms: C_24  and  O_25 
ROOT
HETATM    1  C   UNL     1     -42.008 -51.997  12.353  1.00  0.00     0.164 C 
ENDROOT
BRANCH   1   2
HETATM    2  C   UNL     1     -41.124 -50.903  13.023  1.00  0.00     0.306 C 
BRANCH   2   3
HETATM    3  N   UNL     1     -41.344 -49.486  12.618  1.00  0.00     0.098 N 
HETATM    4  C   UNL     1     -42.783 -49.256  12.381  1.00  0.00     0.273 C 
HETATM    5  C   UNL     1     -43.140 -47.842  11.936  1.00  0.00     0.031 C 
HETATM    6  C   UNL     1     -42.307 -47.429  10.733  1.00  0.00     0.008 C 
HETATM    7  C   UNL     1     -40.811 -47.568  11.040  1.00  0.00     0.017 C 
HETATM    8  C   UNL     1     -40.359 -46.499  12.046  1.00  0.00     0.012 C 
HETATM    9  C   UNL     1     -40.501 -49.030  11.477  1.00  0.00     0.250 C 
BRANCH   9  10
HETATM   10  C   UNL     1     -38.977 -49.212  11.726  1.00  0.00     0.200 C 
BRANCH  10  11
HETATM   11  O   UNL     1     -38.374 -50.054  10.745  1.00  0.00    -0.399 OA
HETATM   12  H   UNL     1     -38.966 -50.817  10.615  1.00  0.00     0.209 HD
ENDBRANCH  10  11
ENDBRANCH   9  10
ENDBRANCH   2   3
ENDBRANCH   1   2
BRANCH   1  13
HETATM   13  O   UNL     1     -41.371 -52.517  11.182  1.00  0.00    -0.392 OA
HETATM   14  H   UNL     1     -40.409 -52.450  11.293  1.00  0.00     0.210 HD
ENDBRANCH   1  13
BRANCH   1  15
HETATM   15  C   UNL     1     -42.310 -53.151  13.316  1.00  0.00     0.163 C 
BRANCH  15  16
HETATM   16  N   UNL     1     -43.742 -53.293  13.534  1.00  0.00    -0.339 N 
HETATM   17  C   UNL     1     -44.550 -54.180  12.879  1.00  0.00     0.184 A 
HETATM   18  N   UNL     1     -45.797 -54.084  13.273  1.00  0.00    -0.350 N 
HETATM   19  C   UNL     1     -45.795 -53.099  14.232  1.00  0.00     0.060 A 
ATOM     20  HN  UNL     1     -46.596 -54.623  12.940  1.00  0.00     0.166 HD
HETATM   21  C   UNL     1     -46.862 -52.578  14.979  1.00  0.00     0.039 A 
HETATM   22  C   UNL     1     -44.517 -52.590  14.426  1.00  0.00     0.062 A 
HETATM   23  C   UNL     1     -46.630 -51.544  15.909  1.00  0.00    -0.054 A 
HETATM   24  C   UNL     1     -47.810 -50.978  16.654  1.00  0.00     0.049 C 
HETATM   25  C   UNL     1     -45.320 -51.059  16.108  1.00  0.00    -0.054 A 
HETATM   26  C   UNL     1     -44.999 -49.953  17.081  1.00  0.00     0.049 C 
HETATM   27  C   UNL     1     -44.244 -51.588  15.365  1.00  0.00     0.039 A 
ENDBRANCH  15  16
ENDBRANCH   1  15
TORSDOF 7
ENDMDL
MODEL 3
REMARK VINA RESULT:      -6.6      2.125      7.025
REMARK  7 active torsions:
REMARK  status: ('A' for Active; 'I' for Inactive)
REMARK    1  A    between atoms: N_6  and  C_7 
REMARK    2  A    between atoms: C_7  and  C_8 
REMARK    3  A    between atoms: C_8  and  O_9 
REMARK    4  A    between atoms: C_8  and  C_10 
REMARK    5  A    between atoms: C_10  and  N_11 
REMARK    6  A    between atoms: C_23  and  C_24 
REMARK    7  A    between atoms: C_24  and  O_25 
ROOT
HETATM    1  C   UNL     1     -40.809 -52.637  12.564  1.00  0.00     0.164 C 
ENDROOT
BRANCH   1   2
HETATM    2  C   UNL     1     -41.825 -53.059  13.667  1.00  0.00     0.306 C 
BRANCH   2   3
HETATM    3  N   UNL     1     -43.066 -52.247  13.818  1.00  0.00     0.098 N 
HETATM    4  C   UNL     1     -42.863 -51.220  14.859  1.00  0.00     0.273 C 
HETATM    5  C   UNL     1     -44.074 -50.333  15.126  1.00  0.00     0.031 C 
HETATM    6  C   UNL     1     -45.306 -51.176  15.412  1.00  0.00     0.008 C 
HETATM    7  C   UNL     1     -45.564 -52.159  14.264  1.00  0.00     0.017 C 
HETATM    8  C   UNL     1     -46.044 -51.417  13.008  1.00  0.00     0.012 C 
HETATM    9  C   UNL     1     -44.304 -53.045  14.042  1.00  0.00     0.250 C 
BRANCH   9  10
HETATM   10  C   UNL     1     -44.568 -54.098  12.928  1.00  0.00     0.200 C 
BRANCH  10  11
HETATM   11  O   UNL     1     -45.654 -54.962  13.260  1.00  0.00    -0.399 OA
HETATM   12  H   UNL     1     -45.316 -55.875  13.233  1.00  0.00     0.209 HD
ENDBRANCH  10  11
ENDBRANCH   9  10
ENDBRANCH   2   3
ENDBRANCH   1   2
BRANCH   1  13
HETATM   13  O   UNL     1     -40.519 -53.736  11.695  1.00  0.00    -0.392 OA
HETATM   14  H   UNL     1     -39.566 -53.917  11.727  1.00  0.00     0.210 HD
ENDBRANCH   1  13
BRANCH   1  15
HETATM   15  C   UNL     1     -41.331 -51.460  11.731  1.00  0.00     0.163 C 
BRANCH  15  16
HETATM   16  N   UNL     1     -40.480 -50.290  11.883  1.00  0.00    -0.339 N 
HETATM   17  C   UNL     1     -39.253 -50.288  12.485  1.00  0.00     0.184 A 
HETATM   18  N   UNL     1     -38.714 -49.092  12.483  1.00  0.00    -0.350 N 
HETATM   19  C   UNL     1     -39.627 -48.287  11.844  1.00  0.00     0.060 A 
ATOM     20  HN  UNL     1     -37.812 -48.818  12.873  1.00  0.00     0.166 HD
HETATM   21  C   UNL     1     -39.570 -46.912  11.574  1.00  0.00     0.039 A 
HETATM   22  C   UNL     1     -40.743 -49.013  11.445  1.00  0.00     0.062 A 
HETATM   23  C   UNL     1     -40.643 -46.281  10.911  1.00  0.00    -0.054 A 
HETATM   24  C   UNL     1     -40.566 -44.794  10.685  1.00  0.00     0.049 C 
HETATM   25  C   UNL     1     -41.755 -47.042  10.493  1.00  0.00    -0.054 A 
HETATM   26  C   UNL     1     -42.939 -46.434   9.784  1.00  0.00     0.049 C 
HETATM   27  C   UNL     1     -41.810 -48.428  10.754  1.00  0.00     0.039 A 
ENDBRANCH  15  16
ENDBRANCH   1  15
TORSDOF 7
ENDMDL
MODEL 4
REMARK VINA RESULT:      -6.6      1.767      2.721
REMARK  7 active torsions:
REMARK  status: ('A' for Active; 'I' for Inactive)
REMARK    1  A    between atoms: N_6  and  C_7 
REMARK    2  A    between atoms: C_7  and  C_8 
REMARK    3  A    between atoms: C_8  and  O_9 
REMARK    4  A    between atoms: C_8  and  C_10 
REMARK    5  A    between atoms: C_10  and  N_11 
REMARK    6  A    between atoms: C_23  and  C_24 
REMARK    7  A    between atoms: C_24  and  O_25 
ROOT
HETATM    1  C   UNL     1     -41.018 -53.031  12.635  1.00  0.00     0.164 C 
ENDROOT
BRANCH   1   2
HETATM    2  C   UNL     1     -39.911 -52.387  13.521  1.00  0.00     0.306 C 
BRANCH   2   3
HETATM    3  N   UNL     1     -39.746 -50.907  13.462  1.00  0.00     0.098 N 
HETATM    4  C   UNL     1     -41.037 -50.278  13.117  1.00  0.00     0.273 C 
HETATM    5  C   UNL     1     -40.997 -48.758  13.003  1.00  0.00     0.031 C 
HETATM    6  C   UNL     1     -39.894 -48.318  12.053  1.00  0.00     0.008 C 
HETATM    7  C   UNL     1     -38.543 -48.890  12.495  1.00  0.00     0.017 C 
HETATM    8  C   UNL     1     -38.059 -48.212  13.785  1.00  0.00     0.012 C 
HETATM    9  C   UNL     1     -38.636 -50.442  12.584  1.00  0.00     0.250 C 
BRANCH   9  10
HETATM   10  C   UNL     1     -37.256 -51.049  12.964  1.00  0.00     0.200 C 
BRANCH  10  11
HETATM   11  O   UNL     1     -36.757 -51.914  11.945  1.00  0.00    -0.399 OA
HETATM   12  H   UNL     1     -37.519 -52.202  11.411  1.00  0.00     0.209 HD
ENDBRANCH  10  11
ENDBRANCH   9  10
ENDBRANCH   2   3
ENDBRANCH   1   2
BRANCH   1  13
HETATM   13  O   UNL     1     -40.488 -53.419  11.363  1.00  0.00    -0.392 OA
HETATM   14  H   UNL     1     -39.659 -53.903  11.505  1.00  0.00     0.210 HD
ENDBRANCH   1  13
BRANCH   1  15
HETATM   15  C   UNL     1     -41.648 -54.254  13.312  1.00  0.00     0.163 C 
BRANCH  15  16
HETATM   16  N   UNL     1     -42.427 -53.867  14.478  1.00  0.00    -0.339 N 
HETATM   17  C   UNL     1     -42.065 -54.105  15.775  1.00  0.00     0.184 A 
HETATM   18  N   UNL     1     -42.960 -53.650  16.620  1.00  0.00    -0.350 N 
HETATM   19  C   UNL     1     -43.938 -53.085  15.836  1.00  0.00     0.060 A 
ATOM     20  HN  UNL     1     -42.936 -53.705  17.637  1.00  0.00     0.166 HD
HETATM   21  C   UNL     1     -45.136 -52.461  16.215  1.00  0.00     0.039 A 
HETATM   22  C   UNL     1     -43.627 -53.196  14.486  1.00  0.00     0.062 A 
HETATM   23  C   UNL     1     -46.011 -51.961  15.228  1.00  0.00    -0.054 A 
HETATM   24  C   UNL     1     -47.309 -51.343  15.675  1.00  0.00     0.049 C 
HETATM   25  C   UNL     1     -45.663 -52.062  13.865  1.00  0.00    -0.054 A 
HETATM   26  C   UNL     1     -46.551 -51.555  12.757  1.00  0.00     0.049 C 
HETATM   27  C   UNL     1     -44.454 -52.680  13.482  1.00  0.00     0.039 A 
ENDBRANCH  15  16
ENDBRANCH   1  15
TORSDOF 7
ENDMDL
MODEL 5
REMARK VINA RESULT:      -6.5      2.359      6.970
REMARK  7 active torsions:
REMARK  status: ('A' for Active; 'I' for Inactive)
REMARK    1  A    between atoms: N_6  and  C_7 
REMARK    2  A    between atoms: C_7  and  C_8 
REMARK    3  A    between atoms: C_8  and  O_9 
REMARK    4  A    between atoms: C_8  and  C_10 
REMARK    5  A    between atoms: C_10  and  N_11 
REMARK    6  A    between atoms: C_23  and  C_24 
REMARK    7  A    between atoms: C_24  and  O_25 
ROOT
HETATM    1  C   UNL     1     -41.406 -54.066  14.793  1.00  0.00     0.164 C 
ENDROOT
BRANCH   1   2
HETATM    2  C   UNL     1     -42.909 -54.442  14.624  1.00  0.00     0.306 C 
BRANCH   2   3
HETATM    3  N   UNL     1     -43.867 -53.347  14.301  1.00  0.00     0.098 N 
HETATM    4  C   UNL     1     -43.417 -52.091  14.934  1.00  0.00     0.273 C 
HETATM    5  C   UNL     1     -44.329 -50.893  14.698  1.00  0.00     0.031 C 
HETATM    6  C   UNL     1     -45.763 -51.224  15.081  1.00  0.00     0.008 C 
HETATM    7  C   UNL     1     -46.249 -52.466  14.325  1.00  0.00     0.017 C 
HETATM    8  C   UNL     1     -46.445 -52.156  12.834  1.00  0.00     0.012 C 
HETATM    9  C   UNL     1     -45.291 -53.659  14.611  1.00  0.00     0.250 C 
BRANCH   9  10
HETATM   10  C   UNL     1     -45.804 -54.949  13.910  1.00  0.00     0.200 C 
BRANCH  10  11
HETATM   11  O   UNL     1     -47.009 -55.433  14.504  1.00  0.00    -0.399 OA
HETATM   12  H   UNL     1     -47.546 -55.822  13.791  1.00  0.00     0.209 HD
ENDBRANCH  10  11
ENDBRANCH   9  10
ENDBRANCH   2   3
ENDBRANCH   1   2
BRANCH   1  13
HETATM   13  O   UNL     1     -40.769 -54.937  15.734  1.00  0.00    -0.392 OA
HETATM   14  H   UNL     1     -40.487 -55.743  15.272  1.00  0.00     0.210 HD
ENDBRANCH   1  13
BRANCH   1  15
HETATM   15  C   UNL     1     -40.652 -54.127  13.460  1.00  0.00     0.163 C 
BRANCH  15  16
HETATM   16  N   UNL     1     -40.488 -52.800  12.887  1.00  0.00    -0.339 N 
HETATM   17  C   UNL     1     -41.120 -52.350  11.762  1.00  0.00     0.184 A 
HETATM   18  N   UNL     1     -40.780 -51.116  11.475  1.00  0.00    -0.350 N 
HETATM   19  C   UNL     1     -39.898 -50.748  12.462  1.00  0.00     0.060 A 
ATOM     20  HN  UNL     1     -41.100 -50.551  10.688  1.00  0.00     0.166 HD
HETATM   21  C   UNL     1     -39.213 -49.537  12.642  1.00  0.00     0.039 A 
HETATM   22  C   UNL     1     -39.702 -51.781  13.371  1.00  0.00     0.062 A 
HETATM   23  C   UNL     1     -38.331 -49.383  13.732  1.00  0.00    -0.054 A 
HETATM   24  C   UNL     1     -37.577 -48.086  13.861  1.00  0.00     0.049 C 
HETATM   25  C   UNL     1     -38.166 -50.436  14.656  1.00  0.00    -0.054 A 
HETATM   26  C   UNL     1     -37.239 -50.344  15.841  1.00  0.00     0.049 C 
HETATM   27  C   UNL     1     -38.863 -51.651  14.484  1.00  0.00     0.039 A 
ENDBRANCH  15  16
ENDBRANCH   1  15
TORSDOF 7
ENDMDL
MODEL 6
REMARK VINA RESULT:      -6.0      2.004      7.024
REMARK  7 active torsions:
REMARK  status: ('A' for Active; 'I' for Inactive)
REMARK    1  A    between atoms: N_6  and  C_7 
REMARK    2  A    between atoms: C_7  and  C_8 
REMARK    3  A    between atoms: C_8  and  O_9 
REMARK    4  A    between atoms: C_8  and  C_10 
REMARK    5  A    between atoms: C_10  and  N_11 
REMARK    6  A    between atoms: C_23  and  C_24 
REMARK    7  A    between atoms: C_24  and  O_25 
ROOT
HETATM    1  C   UNL     1     -42.591 -52.278  12.697  1.00  0.00     0.164 C 
ENDROOT
BRANCH   1   2
HETATM    2  C   UNL     1     -43.509 -51.121  13.192  1.00  0.00     0.306 C 
BRANCH   2   3
HETATM    3  N   UNL     1     -44.429 -51.402  14.331  1.00  0.00     0.098 N 
HETATM    4  C   UNL     1     -43.653 -51.903  15.483  1.00  0.00     0.273 C 
HETATM    5  C   UNL     1     -44.486 -52.251  16.712  1.00  0.00     0.031 C 
HETATM    6  C   UNL     1     -45.614 -53.203  16.346  1.00  0.00     0.008 C 
HETATM    7  C   UNL     1     -46.476 -52.612  15.225  1.00  0.00     0.017 C 
HETATM    8  C   UNL     1     -47.298 -51.421  15.739  1.00  0.00     0.012 C 
HETATM    9  C   UNL     1     -45.580 -52.287  13.994  1.00  0.00     0.250 C 
BRANCH   9  10
HETATM   10  C   UNL     1     -46.445 -51.750  12.818  1.00  0.00     0.200 C 
BRANCH  10  11
HETATM   11  O   UNL     1     -46.369 -52.597  11.672  1.00  0.00    -0.399 OA
HETATM   12  H   UNL     1     -45.886 -53.400  11.937  1.00  0.00     0.209 HD
ENDBRANCH  10  11
ENDBRANCH   9  10
ENDBRANCH   2   3
ENDBRANCH   1   2
BRANCH   1  13
HETATM   13  O   UNL     1     -43.261 -53.070  11.711  1.00  0.00    -0.392 OA
HETATM   14  H   UNL     1     -43.833 -52.492  11.181  1.00  0.00     0.210 HD
ENDBRANCH   1  13
BRANCH   1  15
HETATM   15  C   UNL     1     -41.278 -51.749  12.109  1.00  0.00     0.163 C 
BRANCH  15  16
HETATM   16  N   UNL     1     -40.558 -50.936  13.077  1.00  0.00    -0.339 N 
HETATM   17  C   UNL     1     -40.092 -51.383  14.283  1.00  0.00     0.184 A 
HETATM   18  N   UNL     1     -39.486 -50.431  14.952  1.00  0.00    -0.350 N 
HETATM   19  C   UNL     1     -39.554 -49.323  14.142  1.00  0.00     0.060 A 
ATOM     20  HN  UNL     1     -39.058 -50.499  15.875  1.00  0.00     0.166 HD
HETATM   21  C   UNL     1     -39.076 -48.024  14.364  1.00  0.00     0.039 A 
HETATM   22  C   UNL     1     -40.212 -49.611  12.952  1.00  0.00     0.062 A 
HETATM   23  C   UNL     1     -39.274 -47.025  13.389  1.00  0.00    -0.054 A 
HETATM   24  C   UNL     1     -38.791 -45.630  13.688  1.00  0.00     0.049 C 
HETATM   25  C   UNL     1     -39.923 -47.345  12.178  1.00  0.00    -0.054 A 
HETATM   26  C   UNL     1     -40.172 -46.328  11.093  1.00  0.00     0.049 C 
HETATM   27  C   UNL     1     -40.395 -48.654  11.946  1.00  0.00     0.039 A 
ENDBRANCH  15  16
ENDBRANCH   1  15
TORSDOF 7
ENDMDL
MODEL 7
REMARK VINA RESULT:      -6.0      3.339      5.219
REMARK  7 active torsions:
REMARK  status: ('A' for Active; 'I' for Inactive)
REMARK    1  A    between atoms: N_6  and  C_7 
REMARK    2  A    between atoms: C_7  and  C_8 
REMARK    3  A    between atoms: C_8  and  O_9 
REMARK    4  A    between atoms: C_8  and  C_10 
REMARK    5  A    between atoms: C_10  and  N_11 
REMARK    6  A    between atoms: C_23  and  C_24 
REMARK    7  A    between atoms: C_24  and  O_25 
ROOT
HETATM    1  C   UNL     1     -39.545 -53.697  13.673  1.00  0.00     0.164 C 
ENDROOT
BRANCH   1   2
HETATM    2  C   UNL     1     -39.402 -53.269  15.164  1.00  0.00     0.306 C 
BRANCH   2   3
HETATM    3  N   UNL     1     -40.501 -53.636  16.102  1.00  0.00     0.098 N 
HETATM    4  C   UNL     1     -41.003 -52.422  16.776  1.00  0.00     0.273 C 
HETATM    5  C   UNL     1     -42.121 -52.667  17.784  1.00  0.00     0.031 C 
HETATM    6  C   UNL     1     -41.714 -53.732  18.790  1.00  0.00     0.008 C 
HETATM    7  C   UNL     1     -41.303 -55.023  18.072  1.00  0.00     0.017 C 
HETATM    8  C   UNL     1     -42.525 -55.711  17.447  1.00  0.00     0.012 C 
HETATM    9  C   UNL     1     -40.155 -54.718  17.066  1.00  0.00     0.250 C 
BRANCH   9  10
HETATM   10  C   UNL     1     -39.675 -56.027  16.377  1.00  0.00     0.200 C 
BRANCH  10  11
HETATM   11  O   UNL     1     -38.260 -56.189  16.470  1.00  0.00    -0.399 OA
HETATM   12  H   UNL     1     -38.017 -56.079  17.406  1.00  0.00     0.209 HD
ENDBRANCH  10  11
ENDBRANCH   9  10
ENDBRANCH   2   3
ENDBRANCH   1   2
BRANCH   1  13
HETATM   13  O   UNL     1     -38.571 -54.689  13.335  1.00  0.00    -0.392 OA
HETATM   14  H   UNL     1     -38.125 -54.423  12.515  1.00  0.00     0.210 HD
ENDBRANCH   1  13
BRANCH   1  15
HETATM   15  C   UNL     1     -40.946 -54.243  13.371  1.00  0.00     0.163 C 
BRANCH  15  16
HETATM   16  N   UNL     1     -41.884 -53.165  13.099  1.00  0.00    -0.339 N 
HETATM   17  C   UNL     1     -41.685 -52.166  12.187  1.00  0.00     0.184 A 
HETATM   18  N   UNL     1     -42.694 -51.328  12.157  1.00  0.00    -0.350 N 
HETATM   19  C   UNL     1     -43.588 -51.810  13.082  1.00  0.00     0.060 A 
ATOM     20  HN  UNL     1     -42.793 -50.498  11.573  1.00  0.00     0.166 HD
HETATM   21  C   UNL     1     -44.836 -51.299  13.469  1.00  0.00     0.039 A 
HETATM   22  C   UNL     1     -43.113 -52.969  13.683  1.00  0.00     0.062 A 
HETATM   23  C   UNL     1     -45.588 -51.957  14.464  1.00  0.00    -0.054 A 
HETATM   24  C   UNL     1     -46.898 -51.347  14.887  1.00  0.00     0.049 C 
HETATM   25  C   UNL     1     -45.097 -53.146  15.044  1.00  0.00    -0.054 A 
HETATM   26  C   UNL     1     -45.844 -53.899  16.115  1.00  0.00     0.049 C 
HETATM   27  C   UNL     1     -43.847 -53.668  14.648  1.00  0.00     0.039 A 
ENDBRANCH  15  16
ENDBRANCH   1  15
TORSDOF 7
ENDMDL
MODEL 8
REMARK VINA RESULT:      -5.9      2.144      6.921
REMARK  7 active torsions:
REMARK  status: ('A' for Active; 'I' for Inactive)
REMARK    1  A    between atoms: N_6  and  C_7 
REMARK    2  A    between atoms: C_7  and  C_8 
REMARK    3  A    between atoms: C_8  and  O_9 
REMARK    4  A    between atoms: C_8  and  C_10 
REMARK    5  A    between atoms: C_10  and  N_11 
REMARK    6  A    between atoms: C_23  and  C_24 
REMARK    7  A    between atoms: C_24  and  O_25 
ROOT
HETATM    1  C   UNL     1     -40.915 -52.469  12.789  1.00  0.00     0.164 C 
ENDROOT
BRANCH   1   2
HETATM    2  C   UNL     1     -42.337 -52.490  12.153  1.00  0.00     0.306 C 
BRANCH   2   3
HETATM    3  N   UNL     1     -43.510 -52.465  13.072  1.00  0.00     0.098 N 
HETATM    4  C   UNL     1     -44.324 -53.680  12.868  1.00  0.00     0.273 C 
HETATM    5  C   UNL     1     -45.574 -53.765  13.738  1.00  0.00     0.031 C 
HETATM    6  C   UNL     1     -46.414 -52.504  13.599  1.00  0.00     0.008 C 
HETATM    7  C   UNL     1     -45.577 -51.262  13.925  1.00  0.00     0.017 C 
HETATM    8  C   UNL     1     -45.260 -51.197  15.427  1.00  0.00     0.012 C 
HETATM    9  C   UNL     1     -44.324 -51.219  13.003  1.00  0.00     0.250 C 
BRANCH   9  10
HETATM   10  C   UNL     1     -43.497 -49.929  13.270  1.00  0.00     0.200 C 
BRANCH  10  11
HETATM   11  O   UNL     1     -43.321 -49.156  12.083  1.00  0.00    -0.399 OA
HETATM   12  H   UNL     1     -42.390 -49.249  11.812  1.00  0.00     0.209 HD
ENDBRANCH  10  11
ENDBRANCH   9  10
ENDBRANCH   2   3
ENDBRANCH   1   2
BRANCH   1  13
HETATM   13  O   UNL     1     -40.248 -53.718  12.582  1.00  0.00    -0.392 OA
HETATM   14  H   UNL     1     -40.865 -54.439  12.787  1.00  0.00     0.210 HD
ENDBRANCH   1  13
BRANCH   1  15
HETATM   15  C   UNL     1     -40.053 -51.338  12.214  1.00  0.00     0.163 C 
BRANCH  15  16
HETATM   16  N   UNL     1     -39.824 -50.297  13.205  1.00  0.00    -0.339 N 
HETATM   17  C   UNL     1     -39.621 -50.517  14.539  1.00  0.00     0.184 A 
HETATM   18  N   UNL     1     -39.446 -49.394  15.195  1.00  0.00    -0.350 N 
HETATM   19  C   UNL     1     -39.529 -48.406  14.243  1.00  0.00     0.060 A 
ATOM     20  HN  UNL     1     -39.284 -49.280  16.195  1.00  0.00     0.166 HD
HETATM   21  C   UNL     1     -39.427 -47.015  14.389  1.00  0.00     0.039 A 
HETATM   22  C   UNL     1     -39.755 -48.942  12.981  1.00  0.00     0.062 A 
HETATM   23  C   UNL     1     -39.562 -46.177  13.263  1.00  0.00    -0.054 A 
HETATM   24  C   UNL     1     -39.498 -44.687  13.471  1.00  0.00     0.049 C 
HETATM   25  C   UNL     1     -39.767 -46.744  11.987  1.00  0.00    -0.054 A 
HETATM   26  C   UNL     1     -39.924 -45.911  10.740  1.00  0.00     0.049 C 
HETATM   27  C   UNL     1     -39.858 -48.144  11.835  1.00  0.00     0.039 A 
ENDBRANCH  15  16
ENDBRANCH   1  15
TORSDOF 7
ENDMDL
MODEL 9
REMARK VINA RESULT:      -5.9      2.651      6.106
REMARK  7 active torsions:
REMARK  status: ('A' for Active; 'I' for Inactive)
REMARK    1  A    between atoms: N_6  and  C_7 
REMARK    2  A    between atoms: C_7  and  C_8 
REMARK    3  A    between atoms: C_8  and  O_9 
REMARK    4  A    between atoms: C_8  and  C_10 
REMARK    5  A    between atoms: C_10  and  N_11 
REMARK    6  A    between atoms: C_23  and  C_24 
REMARK    7  A    between atoms: C_24  and  O_25 
ROOT
HETATM    1  C   UNL     1     -39.190 -50.856  15.269  1.00  0.00     0.164 C 
ENDROOT
BRANCH   1   2
HETATM    2  C   UNL     1     -39.509 -52.199  14.549  1.00  0.00     0.306 C 
BRANCH   2   3
HETATM    3  N   UNL     1     -40.858 -52.798  14.758  1.00  0.00     0.098 N 
HETATM    4  C   UNL     1     -40.850 -53.617  15.987  1.00  0.00     0.273 C 
HETATM    5  C   UNL     1     -42.173 -54.308  16.303  1.00  0.00     0.031 C 
HETATM    6  C   UNL     1     -42.662 -55.108  15.106  1.00  0.00     0.008 C 
HETATM    7  C   UNL     1     -42.771 -54.211  13.867  1.00  0.00     0.017 C 
HETATM    8  C   UNL     1     -43.936 -53.221  14.011  1.00  0.00     0.012 C 
HETATM    9  C   UNL     1     -41.394 -53.542  13.584  1.00  0.00     0.250 C 
BRANCH   9  10
HETATM   10  C   UNL     1     -41.462 -52.683  12.290  1.00  0.00     0.200 C 
BRANCH  10  11
HETATM   11  O   UNL     1     -40.591 -53.179  11.275  1.00  0.00    -0.399 OA
HETATM   12  H   UNL     1     -40.391 -52.437  10.677  1.00  0.00     0.209 HD
ENDBRANCH  10  11
ENDBRANCH   9  10
ENDBRANCH   2   3
ENDBRANCH   1   2
BRANCH   1  13
HETATM   13  O   UNL     1     -38.444 -51.088  16.468  1.00  0.00    -0.392 OA
HETATM   14  H   UNL     1     -38.729 -50.450  17.142  1.00  0.00     0.210 HD
ENDBRANCH   1  13
BRANCH   1  15
HETATM   15  C   UNL     1     -38.404 -49.899  14.365  1.00  0.00     0.163 C 
BRANCH  15  16
HETATM   16  N   UNL     1     -39.042 -49.760  13.065  1.00  0.00    -0.339 N 
HETATM   17  C   UNL     1     -38.598 -50.341  11.909  1.00  0.00     0.184 A 
HETATM   18  N   UNL     1     -39.365 -50.040  10.889  1.00  0.00    -0.350 N 
HETATM   19  C   UNL     1     -40.355 -49.239  11.408  1.00  0.00     0.060 A 
ATOM     20  HN  UNL     1     -39.252 -50.336   9.920  1.00  0.00     0.166 HD
HETATM   21  C   UNL     1     -41.436 -48.623  10.761  1.00  0.00     0.039 A 
HETATM   22  C   UNL     1     -40.185 -49.054  12.775  1.00  0.00     0.062 A 
HETATM   23  C   UNL     1     -42.331 -47.820  11.497  1.00  0.00    -0.054 A 
HETATM   24  C   UNL     1     -43.449 -47.135  10.756  1.00  0.00     0.049 C 
HETATM   25  C   UNL     1     -42.154 -47.665  12.888  1.00  0.00    -0.054 A 
HETATM   26  C   UNL     1     -43.069 -46.819  13.738  1.00  0.00     0.049 C 
HETATM   27  C   UNL     1     -41.074 -48.293  13.544  1.00  0.00     0.039 A 
ENDBRANCH  15  16
ENDBRANCH   1  15
TORSDOF 7
ENDMDL
