MODEL 1
REMARK VINA RESULT:      -5.9      0.000      0.000
REMARK  4 active torsions:
REMARK  status: ('A' for Active; 'I' for Inactive)
REMARK    1  A    between atoms: C_5  and  C_9 
REMARK       I    between atoms: C_9  and  N_11 
REMARK    2  A    between atoms: N_11  and  C_12 
REMARK    3  A    between atoms: C_12  and  C_13 
REMARK    4  A    between atoms: C_13  and  C_14 
ROOT
HETATM    1  C   UNL     1     -43.217 -53.877  13.150  1.00  0.00     0.222 C 
HETATM    2  O   UNL     1     -42.724 -54.309  14.186  1.00  0.00    -0.273 OA
HETATM    3  N   UNL     1     -42.498 -53.129  12.246  1.00  0.00    -0.360 N 
HETATM    4  H   UNL     1     -42.915 -52.849  11.364  1.00  0.00     0.162 HD
ENDROOT
BRANCH   3   5
HETATM    5  C   UNL     1     -41.101 -52.823  12.504  1.00  0.00     0.127 C 
BRANCH   5   6
HETATM    6  C   UNL     1     -40.881 -51.441  13.111  1.00  0.00     0.061 C 
BRANCH   6   7
HETATM    7  C   UNL     1     -41.239 -50.317  12.200  1.00  0.00    -0.023 A 
HETATM    8  C   UNL     1     -40.546 -49.867  11.052  1.00  0.00     0.115 A 
HETATM    9  N   UNL     1     -41.152 -48.840  10.453  1.00  0.00    -0.310 N 
HETATM   10  N   UNL     1     -42.254 -48.645  11.196  1.00  0.00    -0.308 N 
ATOM     11  HN  UNL     1     -40.851 -48.325   9.626  1.00  0.00     0.186 HD
HETATM   12  C   UNL     1     -43.212 -47.634  10.823  1.00  0.00     0.177 C 
HETATM   13  C   UNL     1     -42.341 -49.488  12.266  1.00  0.00     0.118 A 
ENDBRANCH   6   7
ENDBRANCH   5   6
ENDBRANCH   3   5
BRANCH   1  14
HETATM   14  C   UNL     1     -44.674 -54.108  12.766  1.00  0.00     0.088 C 
HETATM   15  C   UNL     1     -45.397 -52.796  12.473  1.00  0.00     0.034 C 
HETATM   16  C   UNL     1     -45.581 -52.005  13.758  1.00  0.00     0.126 C 
HETATM   17  N   UNL     1     -46.297 -52.784  14.752  1.00  0.00    -0.356 N 
HETATM   18  C   UNL     1     -46.971 -52.063  15.817  1.00  0.00     0.152 C 
HETATM   19  C   UNL     1     -45.880 -54.082  15.039  1.00  0.00     0.220 C 
HETATM   20  C   UNL     1     -45.403 -54.898  13.851  1.00  0.00     0.117 C 
HETATM   21  O   UNL     1     -46.047 -54.609  16.139  1.00  0.00    -0.273 OA
ENDBRANCH   1  14
TORSDOF 4
ENDMDL
MODEL 2
REMARK VINA RESULT:      -5.9      2.266      3.203
REMARK  4 active torsions:
REMARK  status: ('A' for Active; 'I' for Inactive)
REMARK    1  A    between atoms: C_5  and  C_9 
REMARK       I    between atoms: C_9  and  N_11 
REMARK    2  A    between atoms: N_11  and  C_12 
REMARK    3  A    between atoms: C_12  and  C_13 
REMARK    4  A    between atoms: C_13  and  C_14 
ROOT
HETATM    1  C   UNL     1     -44.600 -50.620  15.221  1.00  0.00     0.222 C 
HETATM    2  O   UNL     1     -43.950 -50.396  16.236  1.00  0.00    -0.273 OA
HETATM    3  N   UNL     1     -44.121 -50.340  13.962  1.00  0.00    -0.360 N 
HETATM    4  H   UNL     1     -44.653 -50.604  13.139  1.00  0.00     0.162 HD
ENDROOT
BRANCH   3   5
HETATM    5  C   UNL     1     -42.799 -49.757  13.799  1.00  0.00     0.127 C 
BRANCH   5   6
HETATM    6  C   UNL     1     -42.825 -48.318  13.295  1.00  0.00     0.061 C 
BRANCH   6   7
HETATM    7  C   UNL     1     -42.655 -48.192  11.819  1.00  0.00    -0.023 A 
HETATM    8  C   UNL     1     -41.564 -48.617  11.025  1.00  0.00     0.115 A 
HETATM    9  N   UNL     1     -41.742 -48.363   9.727  1.00  0.00    -0.310 N 
HETATM   10  N   UNL     1     -42.961 -47.802   9.678  1.00  0.00    -0.308 N 
ATOM     11  HN  UNL     1     -41.103 -48.551   8.955  1.00  0.00     0.186 HD
HETATM   12  C   UNL     1     -43.540 -47.432   8.409  1.00  0.00     0.177 C 
HETATM   13  C   UNL     1     -43.541 -47.657  10.906  1.00  0.00     0.118 A 
ENDBRANCH   6   7
ENDBRANCH   5   6
ENDBRANCH   3   5
BRANCH   1  14
HETATM   14  C   UNL     1     -46.005 -51.210  15.249  1.00  0.00     0.088 C 
HETATM   15  C   UNL     1     -46.095 -52.412  16.185  1.00  0.00     0.034 C 
HETATM   16  C   UNL     1     -45.324 -53.585  15.602  1.00  0.00     0.126 C 
HETATM   17  N   UNL     1     -45.809 -53.919  14.275  1.00  0.00    -0.356 N 
HETATM   18  C   UNL     1     -45.547 -55.259  13.779  1.00  0.00     0.152 C 
HETATM   19  C   UNL     1     -45.953 -52.914  13.322  1.00  0.00     0.220 C 
HETATM   20  C   UNL     1     -46.466 -51.583  13.842  1.00  0.00     0.117 C 
HETATM   21  O   UNL     1     -45.850 -53.121  12.112  1.00  0.00    -0.273 OA
ENDBRANCH   1  14
TORSDOF 4
ENDMDL
MODEL 3
REMARK VINA RESULT:      -5.5      2.457      4.079
REMARK  4 active torsions:
REMARK  status: ('A' for Active; 'I' for Inactive)
REMARK    1  A    between atoms: C_5  and  C_9 
REMARK       I    between atoms: C_9  and  N_11 
REMARK    2  A    between atoms: N_11  and  C_12 
REMARK    3  A    between atoms: C_12  and  C_13 
REMARK    4  A    between atoms: C_13  and  C_14 
ROOT
HETATM    1  C   UNL     1     -45.013 -50.674  15.285  1.00  0.00     0.222 C 
HETATM    2  O   UNL     1     -44.735 -50.336  16.430  1.00  0.00    -0.273 OA
HETATM    3  N   UNL     1     -44.121 -50.560  14.244  1.00  0.00    -0.360 N 
HETATM    4  H   UNL     1     -44.356 -50.916  13.323  1.00  0.00     0.162 HD
ENDROOT
BRANCH   3   5
HETATM    5  C   UNL     1     -42.792 -50.020  14.482  1.00  0.00     0.127 C 
BRANCH   5   6
HETATM    6  C   UNL     1     -41.847 -50.178  13.295  1.00  0.00     0.061 C 
BRANCH   6   7
HETATM    7  C   UNL     1     -41.314 -51.560  13.128  1.00  0.00    -0.023 A 
HETATM    8  C   UNL     1     -41.518 -52.451  12.048  1.00  0.00     0.115 A 
HETATM    9  N   UNL     1     -40.880 -53.612  12.211  1.00  0.00    -0.310 N 
HETATM   10  N   UNL     1     -40.239 -53.460  13.381  1.00  0.00    -0.308 N 
ATOM     11  HN  UNL     1     -40.879 -54.423  11.592  1.00  0.00     0.186 HD
HETATM   12  C   UNL     1     -39.379 -54.505  13.879  1.00  0.00     0.177 C 
HETATM   13  C   UNL     1     -40.483 -52.258  13.981  1.00  0.00     0.118 A 
ENDBRANCH   6   7
ENDBRANCH   5   6
ENDBRANCH   3   5
BRANCH   1  14
HETATM   14  C   UNL     1     -46.375 -51.237  14.894  1.00  0.00     0.088 C 
HETATM   15  C   UNL     1     -46.796 -52.385  15.807  1.00  0.00     0.034 C 
HETATM   16  C   UNL     1     -45.922 -53.601  15.550  1.00  0.00     0.126 C 
HETATM   17  N   UNL     1     -45.976 -53.997  14.154  1.00  0.00    -0.356 N 
HETATM   18  C   UNL     1     -45.617 -55.365  13.827  1.00  0.00     0.152 C 
HETATM   19  C   UNL     1     -45.778 -53.041  13.160  1.00  0.00     0.220 C 
HETATM   20  C   UNL     1     -46.382 -51.675  13.431  1.00  0.00     0.117 C 
HETATM   21  O   UNL     1     -45.307 -53.314  12.056  1.00  0.00    -0.273 OA
ENDBRANCH   1  14
TORSDOF 4
ENDMDL
MODEL 4
REMARK VINA RESULT:      -5.5      2.098      2.900
REMARK  4 active torsions:
REMARK  status: ('A' for Active; 'I' for Inactive)
REMARK    1  A    between atoms: C_5  and  C_9 
REMARK       I    between atoms: C_9  and  N_11 
REMARK    2  A    between atoms: N_11  and  C_12 
REMARK    3  A    between atoms: C_12  and  C_13 
REMARK    4  A    between atoms: C_13  and  C_14 
ROOT
HETATM    1  C   UNL     1     -43.698 -53.748  15.402  1.00  0.00     0.222 C 
HETATM    2  O   UNL     1     -43.599 -52.693  16.019  1.00  0.00    -0.273 OA
HETATM    3  N   UNL     1     -42.601 -54.462  14.980  1.00  0.00    -0.360 N 
HETATM    4  H   UNL     1     -42.716 -55.367  14.536  1.00  0.00     0.162 HD
ENDROOT
BRANCH   3   5
HETATM    5  C   UNL     1     -41.262 -53.970  15.260  1.00  0.00     0.127 C 
BRANCH   5   6
HETATM    6  C   UNL     1     -40.311 -54.074  14.072  1.00  0.00     0.061 C 
BRANCH   6   7
HETATM    7  C   UNL     1     -40.383 -52.915  13.138  1.00  0.00    -0.023 A 
HETATM    8  C   UNL     1     -41.210 -52.759  12.000  1.00  0.00     0.115 A 
HETATM    9  N   UNL     1     -41.032 -51.584  11.392  1.00  0.00    -0.310 N 
HETATM   10  N   UNL     1     -40.113 -50.968  12.153  1.00  0.00    -0.308 N 
ATOM     11  HN  UNL     1     -41.488 -51.236  10.548  1.00  0.00     0.186 HD
HETATM   12  C   UNL     1     -39.694 -49.624  11.841  1.00  0.00     0.177 C 
HETATM   13  C   UNL     1     -39.676 -51.731  13.198  1.00  0.00     0.118 A 
ENDBRANCH   6   7
ENDBRANCH   5   6
ENDBRANCH   3   5
BRANCH   1  14
HETATM   14  C   UNL     1     -45.040 -54.365  15.026  1.00  0.00     0.088 C 
HETATM   15  C   UNL     1     -45.099 -54.731  13.545  1.00  0.00     0.034 C 
HETATM   16  C   UNL     1     -45.138 -53.470  12.698  1.00  0.00     0.126 C 
HETATM   17  N   UNL     1     -46.259 -52.625  13.072  1.00  0.00    -0.356 N 
HETATM   18  C   UNL     1     -46.732 -51.661  12.095  1.00  0.00     0.152 C 
HETATM   19  C   UNL     1     -46.467 -52.313  14.414  1.00  0.00     0.220 C 
HETATM   20  C   UNL     1     -46.191 -53.434  15.400  1.00  0.00     0.117 C 
HETATM   21  O   UNL     1     -47.008 -51.270  14.780  1.00  0.00    -0.273 OA
ENDBRANCH   1  14
TORSDOF 4
ENDMDL
MODEL 5
REMARK VINA RESULT:      -5.4      2.015      2.394
REMARK  4 active torsions:
REMARK  status: ('A' for Active; 'I' for Inactive)
REMARK    1  A    between atoms: C_5  and  C_9 
REMARK       I    between atoms: C_9  and  N_11 
REMARK    2  A    between atoms: N_11  and  C_12 
REMARK    3  A    between atoms: C_12  and  C_13 
REMARK    4  A    between atoms: C_13  and  C_14 
ROOT
HETATM    1  C   UNL     1     -43.312 -53.369  12.858  1.00  0.00     0.222 C 
HETATM    2  O   UNL     1     -42.722 -53.587  13.910  1.00  0.00    -0.273 OA
HETATM    3  N   UNL     1     -42.725 -52.707  11.805  1.00  0.00    -0.360 N 
HETATM    4  H   UNL     1     -43.216 -52.607  10.922  1.00  0.00     0.162 HD
ENDROOT
BRANCH   3   5
HETATM    5  C   UNL     1     -41.355 -52.234  11.917  1.00  0.00     0.127 C 
BRANCH   5   6
HETATM    6  C   UNL     1     -41.241 -50.721  12.069  1.00  0.00     0.061 C 
BRANCH   6   7
HETATM    7  C   UNL     1     -39.965 -50.271  12.694  1.00  0.00    -0.023 A 
HETATM    8  C   UNL     1     -38.757 -50.995  12.834  1.00  0.00     0.115 A 
HETATM    9  N   UNL     1     -37.798 -50.285  13.432  1.00  0.00    -0.310 N 
HETATM   10  N   UNL     1     -38.375 -49.093  13.651  1.00  0.00    -0.308 N 
ATOM     11  HN  UNL     1     -36.849 -50.579  13.666  1.00  0.00     0.186 HD
HETATM   12  C   UNL     1     -37.618 -48.017  14.244  1.00  0.00     0.177 C 
HETATM   13  C   UNL     1     -39.678 -49.039  13.248  1.00  0.00     0.118 A 
ENDBRANCH   6   7
ENDBRANCH   5   6
ENDBRANCH   3   5
BRANCH   1  14
HETATM   14  C   UNL     1     -44.757 -53.792  12.614  1.00  0.00     0.088 C 
HETATM   15  C   UNL     1     -45.676 -52.588  12.430  1.00  0.00     0.034 C 
HETATM   16  C   UNL     1     -45.833 -51.847  13.748  1.00  0.00     0.126 C 
HETATM   17  N   UNL     1     -46.332 -52.731  14.787  1.00  0.00    -0.356 N 
HETATM   18  C   UNL     1     -46.985 -52.123  15.932  1.00  0.00     0.152 C 
HETATM   19  C   UNL     1     -45.716 -53.962  14.996  1.00  0.00     0.220 C 
HETATM   20  C   UNL     1     -45.258 -54.689  13.744  1.00  0.00     0.117 C 
HETATM   21  O   UNL     1     -45.698 -54.522  16.092  1.00  0.00    -0.273 OA
ENDBRANCH   1  14
TORSDOF 4
ENDMDL
MODEL 6
REMARK VINA RESULT:      -5.3      2.240      4.034
REMARK  4 active torsions:
REMARK  status: ('A' for Active; 'I' for Inactive)
REMARK    1  A    between atoms: C_5  and  C_9 
REMARK       I    between atoms: C_9  and  N_11 
REMARK    2  A    between atoms: N_11  and  C_12 
REMARK    3  A    between atoms: C_12  and  C_13 
REMARK    4  A    between atoms: C_13  and  C_14 
ROOT
HETATM    1  C   UNL     1     -43.499 -52.683  13.989  1.00  0.00     0.222 C 
HETATM    2  O   UNL     1     -44.096 -52.481  15.040  1.00  0.00    -0.273 OA
HETATM    3  N   UNL     1     -43.326 -51.703  13.039  1.00  0.00    -0.360 N 
HETATM    4  H   UNL     1     -42.764 -51.883  12.212  1.00  0.00     0.162 HD
ENDROOT
BRANCH   3   5
HETATM    5  C   UNL     1     -43.862 -50.371  13.262  1.00  0.00     0.127 C 
BRANCH   5   6
HETATM    6  C   UNL     1     -42.810 -49.269  13.188  1.00  0.00     0.061 C 
BRANCH   6   7
HETATM    7  C   UNL     1     -42.617 -48.709  11.820  1.00  0.00    -0.023 A 
HETATM    8  C   UNL     1     -41.500 -48.860  10.964  1.00  0.00     0.115 A 
HETATM    9  N   UNL     1     -41.661 -48.237   9.794  1.00  0.00    -0.310 N 
HETATM   10  N   UNL     1     -42.893 -47.709   9.882  1.00  0.00    -0.308 N 
ATOM     11  HN  UNL     1     -41.003 -48.177   9.017  1.00  0.00     0.186 HD
HETATM   12  C   UNL     1     -43.457 -46.992   8.765  1.00  0.00     0.177 C 
HETATM   13  C   UNL     1     -43.499 -47.945  11.083  1.00  0.00     0.118 A 
ENDBRANCH   6   7
ENDBRANCH   5   6
ENDBRANCH   3   5
BRANCH   1  14
HETATM   14  C   UNL     1     -42.905 -54.037  13.620  1.00  0.00     0.088 C 
HETATM   15  C   UNL     1     -42.703 -54.921  14.848  1.00  0.00     0.034 C 
HETATM   16  C   UNL     1     -41.583 -54.364  15.711  1.00  0.00     0.126 C 
HETATM   17  N   UNL     1     -40.352 -54.238  14.950  1.00  0.00    -0.356 N 
HETATM   18  C   UNL     1     -39.104 -54.194  15.690  1.00  0.00     0.152 C 
HETATM   19  C   UNL     1     -40.371 -53.600  13.712  1.00  0.00     0.220 C 
HETATM   20  C   UNL     1     -41.595 -53.866  12.854  1.00  0.00     0.117 C 
HETATM   21  O   UNL     1     -39.396 -53.006  13.252  1.00  0.00    -0.273 OA
ENDBRANCH   1  14
TORSDOF 4
ENDMDL
MODEL 7
REMARK VINA RESULT:      -5.1      2.078      3.406
REMARK  4 active torsions:
REMARK  status: ('A' for Active; 'I' for Inactive)
REMARK    1  A    between atoms: C_5  and  C_9 
REMARK       I    between atoms: C_9  and  N_11 
REMARK    2  A    between atoms: N_11  and  C_12 
REMARK    3  A    between atoms: C_12  and  C_13 
REMARK    4  A    between atoms: C_13  and  C_14 
ROOT
HETATM    1  C   UNL     1     -44.834 -51.660  13.370  1.00  0.00     0.222 C 
HETATM    2  O   UNL     1     -45.535 -51.029  14.152  1.00  0.00    -0.273 OA
HETATM    3  N   UNL     1     -43.745 -51.102  12.740  1.00  0.00    -0.360 N 
HETATM    4  H   UNL     1     -43.142 -51.672  12.154  1.00  0.00     0.162 HD
ENDROOT
BRANCH   3   5
HETATM    5  C   UNL     1     -43.392 -49.715  12.991  1.00  0.00     0.127 C 
BRANCH   5   6
HETATM    6  C   UNL     1     -42.032 -49.542  13.661  1.00  0.00     0.061 C 
BRANCH   6   7
HETATM    7  C   UNL     1     -40.876 -49.763  12.745  1.00  0.00    -0.023 A 
HETATM    8  C   UNL     1     -40.822 -49.575  11.344  1.00  0.00     0.115 A 
HETATM    9  N   UNL     1     -39.621 -49.851  10.833  1.00  0.00    -0.310 N 
HETATM   10  N   UNL     1     -38.889 -50.189  11.908  1.00  0.00    -0.308 N 
ATOM     11  HN  UNL     1     -39.327 -49.814   9.857  1.00  0.00     0.186 HD
HETATM   12  C   UNL     1     -37.490 -50.508  11.762  1.00  0.00     0.177 C 
HETATM   13  C   UNL     1     -39.600 -50.173  13.073  1.00  0.00     0.118 A 
ENDBRANCH   6   7
ENDBRANCH   5   6
ENDBRANCH   3   5
BRANCH   1  14
HETATM   14  C   UNL     1     -45.103 -53.114  13.002  1.00  0.00     0.088 C 
HETATM   15  C   UNL     1     -45.701 -53.892  14.171  1.00  0.00     0.034 C 
HETATM   16  C   UNL     1     -44.656 -54.082  15.258  1.00  0.00     0.126 C 
HETATM   17  N   UNL     1     -43.475 -54.747  14.737  1.00  0.00    -0.356 N 
HETATM   18  C   UNL     1     -42.612 -55.428  15.685  1.00  0.00     0.152 C 
HETATM   19  C   UNL     1     -42.879 -54.275  13.570  1.00  0.00     0.220 C 
HETATM   20  C   UNL     1     -43.833 -53.791  12.493  1.00  0.00     0.117 C 
HETATM   21  O   UNL     1     -41.677 -54.400  13.337  1.00  0.00    -0.273 OA
ENDBRANCH   1  14
TORSDOF 4
ENDMDL
MODEL 8
REMARK VINA RESULT:      -5.1      2.430      4.085
REMARK  4 active torsions:
REMARK  status: ('A' for Active; 'I' for Inactive)
REMARK    1  A    between atoms: C_5  and  C_9 
REMARK       I    between atoms: C_9  and  N_11 
REMARK    2  A    between atoms: N_11  and  C_12 
REMARK    3  A    between atoms: C_12  and  C_13 
REMARK    4  A    between atoms: C_13  and  C_14 
ROOT
HETATM    1  C   UNL     1     -43.451 -53.416  12.825  1.00  0.00     0.222 C 
HETATM    2  O   UNL     1     -42.963 -54.328  13.483  1.00  0.00    -0.273 OA
HETATM    3  N   UNL     1     -42.682 -52.532  12.105  1.00  0.00    -0.360 N 
HETATM    4  H   UNL     1     -43.119 -51.834  11.512  1.00  0.00     0.162 HD
ENDROOT
BRANCH   3   5
HETATM    5  C   UNL     1     -41.234 -52.659  12.107  1.00  0.00     0.127 C 
BRANCH   5   6
HETATM    6  C   UNL     1     -40.569 -52.057  13.341  1.00  0.00     0.061 C 
BRANCH   6   7
HETATM    7  C   UNL     1     -39.860 -53.055  14.192  1.00  0.00    -0.023 A 
HETATM    8  C   UNL     1     -39.306 -54.298  13.805  1.00  0.00     0.115 A 
HETATM    9  N   UNL     1     -38.725 -54.941  14.820  1.00  0.00    -0.310 N 
HETATM   10  N   UNL     1     -38.876 -54.100  15.856  1.00  0.00    -0.308 N 
ATOM     11  HN  UNL     1     -38.272 -55.855  14.810  1.00  0.00     0.186 HD
HETATM   12  C   UNL     1     -38.317 -54.428  17.145  1.00  0.00     0.177 C 
HETATM   13  C   UNL     1     -39.568 -52.967  15.538  1.00  0.00     0.118 A 
ENDBRANCH   6   7
ENDBRANCH   5   6
ENDBRANCH   3   5
BRANCH   1  14
HETATM   14  C   UNL     1     -44.952 -53.157  12.752  1.00  0.00     0.088 C 
HETATM   15  C   UNL     1     -45.294 -51.711  13.101  1.00  0.00     0.034 C 
HETATM   16  C   UNL     1     -45.053 -51.462  14.580  1.00  0.00     0.126 C 
HETATM   17  N   UNL     1     -45.814 -52.391  15.397  1.00  0.00    -0.356 N 
HETATM   18  C   UNL     1     -46.088 -52.012  16.771  1.00  0.00     0.152 C 
HETATM   19  C   UNL     1     -45.757 -53.755  15.121  1.00  0.00     0.220 C 
HETATM   20  C   UNL     1     -45.715 -54.127  13.650  1.00  0.00     0.117 C 
HETATM   21  O   UNL     1     -45.910 -54.618  15.986  1.00  0.00    -0.273 OA
ENDBRANCH   1  14
TORSDOF 4
ENDMDL
MODEL 9
REMARK VINA RESULT:      -5.1      1.938      2.625
REMARK  4 active torsions:
REMARK  status: ('A' for Active; 'I' for Inactive)
REMARK    1  A    between atoms: C_5  and  C_9 
REMARK       I    between atoms: C_9  and  N_11 
REMARK    2  A    between atoms: N_11  and  C_12 
REMARK    3  A    between atoms: C_12  and  C_13 
REMARK    4  A    between atoms: C_13  and  C_14 
ROOT
HETATM    1  C   UNL     1     -42.328 -52.187  13.260  1.00  0.00     0.222 C 
HETATM    2  O   UNL     1     -42.087 -51.824  14.406  1.00  0.00    -0.273 OA
HETATM    3  N   UNL     1     -42.195 -51.349  12.177  1.00  0.00    -0.360 N 
HETATM    4  H   UNL     1     -42.331 -51.701  11.235  1.00  0.00     0.162 HD
ENDROOT
BRANCH   3   5
HETATM    5  C   UNL     1     -41.757 -49.977  12.369  1.00  0.00     0.127 C 
BRANCH   5   6
HETATM    6  C   UNL     1     -42.779 -48.940  11.916  1.00  0.00     0.061 C 
BRANCH   6   7
HETATM    7  C   UNL     1     -42.183 -47.781  11.191  1.00  0.00    -0.023 A 
HETATM    8  C   UNL     1     -42.769 -46.990  10.175  1.00  0.00     0.115 A 
HETATM    9  N   UNL     1     -41.961 -46.017   9.750  1.00  0.00    -0.310 N 
HETATM   10  N   UNL     1     -40.864 -46.159  10.512  1.00  0.00    -0.308 N 
ATOM     11  HN  UNL     1     -42.136 -45.327   9.019  1.00  0.00     0.186 HD
HETATM   12  C   UNL     1     -39.765 -45.234  10.382  1.00  0.00     0.177 C 
HETATM   13  C   UNL     1     -40.938 -47.214  11.375  1.00  0.00     0.118 A 
ENDBRANCH   6   7
ENDBRANCH   5   6
ENDBRANCH   3   5
BRANCH   1  14
HETATM   14  C   UNL     1     -42.813 -53.592  12.920  1.00  0.00     0.088 C 
HETATM   15  C   UNL     1     -44.216 -53.575  12.318  1.00  0.00     0.034 C 
HETATM   16  C   UNL     1     -45.233 -53.191  13.379  1.00  0.00     0.126 C 
HETATM   17  N   UNL     1     -45.164 -54.090  14.518  1.00  0.00    -0.356 N 
HETATM   18  C   UNL     1     -46.332 -54.184  15.375  1.00  0.00     0.152 C 
HETATM   19  C   UNL     1     -43.931 -54.360  15.106  1.00  0.00     0.220 C 
HETATM   20  C   UNL     1     -42.761 -54.497  14.148  1.00  0.00     0.117 C 
HETATM   21  O   UNL     1     -43.808 -54.651  16.296  1.00  0.00    -0.273 OA
ENDBRANCH   1  14
TORSDOF 4
ENDMDL
