MODEL 1
REMARK VINA RESULT:      -5.5      0.000      0.000
REMARK  7 active torsions:
REMARK  status: ('A' for Active; 'I' for Inactive)
REMARK    1  A    between atoms: O_2  and  C_3 
REMARK    2  A    between atoms: C_3  and  C_4 
REMARK    3  A    between atoms: C_4  and  O_5 
REMARK    4  A    between atoms: O_5  and  C_6 
REMARK    5  A    between atoms: C_6  and  C_7 
REMARK       I    between atoms: C_7  and  N_9 
REMARK    6  A    between atoms: N_9  and  C_10 
REMARK    7  A    between atoms: C_13  and  N_17 
ROOT
HETATM    1  C   UNL     1     -40.873 -48.921  11.283  1.00  0.00     0.050 A 
HETATM    2  C   UNL     1     -39.919 -49.899  11.511  1.00  0.00     0.035 A 
HETATM    3  C   UNL     1     -40.310 -51.151  11.962  1.00  0.00     0.051 A 
HETATM    4  C   UNL     1     -41.652 -51.435  12.198  1.00  0.00     0.103 A 
HETATM    5  N   UNL     1     -42.577 -50.452  12.119  1.00  0.00    -0.350 N 
ATOM      6  HN  UNL     1     -43.545 -50.618  12.389  1.00  0.00     0.166 HD
HETATM    7  C   UNL     1     -42.174 -49.230  11.665  1.00  0.00     0.119 A 
ENDROOT
BRANCH   1   8
HETATM    8  N   UNL     1     -40.547 -47.688  10.678  1.00  0.00    -0.324 N 
HETATM    9  C   UNL     1     -40.081 -46.578  11.374  1.00  0.00     0.245 C 
HETATM   10  O   UNL     1     -39.844 -46.527  12.581  1.00  0.00    -0.271 OA
HETATM   11  H   UNL     1     -40.501 -47.650   9.664  1.00  0.00     0.169 HD
BRANCH   9  12
HETATM   12  C   UNL     1     -39.786 -45.373  10.493  1.00  0.00     0.270 C 
BRANCH  12  13
HETATM   13  O   UNL     1     -40.943 -44.981   9.769  1.00  0.00    -0.380 OA
BRANCH  13  14
HETATM   14  C   UNL     1     -42.059 -44.808  10.641  1.00  0.00     0.194 C 
BRANCH  14  15
HETATM   15  C   UNL     1     -43.319 -45.307   9.947  1.00  0.00     0.193 C 
BRANCH  15  16
HETATM   16  O   UNL     1     -42.969 -45.867   8.684  1.00  0.00    -0.394 OA
HETATM   17  C   UNL     1     -43.547 -47.155   8.515  1.00  0.00     0.201 C 
ENDBRANCH  15  16
ENDBRANCH  14  15
ENDBRANCH  13  14
ENDBRANCH  12  13
ENDBRANCH   9  12
ENDBRANCH   1   8
BRANCH   4  18
HETATM   18  N   UNL     1     -42.030 -52.732  12.491  1.00  0.00    -0.367 N 
HETATM   19  C   UNL     1     -43.446 -53.082  12.585  1.00  0.00     0.124 C 
HETATM   20  C   UNL     1     -43.777 -53.611  13.978  1.00  0.00     0.020 C 
HETATM   21  C   UNL     1     -42.835 -54.738  14.380  1.00  0.00     0.003 C 
HETATM   22  C   UNL     1     -41.381 -54.276  14.292  1.00  0.00     0.020 C 
HETATM   23  C   UNL     1     -41.046 -53.718  12.911  1.00  0.00     0.124 C 
ENDBRANCH   4  18
TORSDOF 7
ENDMDL
MODEL 2
REMARK VINA RESULT:      -5.3      3.817      7.915
REMARK  7 active torsions:
REMARK  status: ('A' for Active; 'I' for Inactive)
REMARK    1  A    between atoms: O_2  and  C_3 
REMARK    2  A    between atoms: C_3  and  C_4 
REMARK    3  A    between atoms: C_4  and  O_5 
REMARK    4  A    between atoms: O_5  and  C_6 
REMARK    5  A    between atoms: C_6  and  C_7 
REMARK       I    between atoms: C_7  and  N_9 
REMARK    6  A    between atoms: N_9  and  C_10 
REMARK    7  A    between atoms: C_13  and  N_17 
ROOT
HETATM    1  C   UNL     1     -43.029 -51.864  13.026  1.00  0.00     0.050 A 
HETATM    2  C   UNL     1     -43.480 -50.609  13.396  1.00  0.00     0.035 A 
HETATM    3  C   UNL     1     -42.962 -49.480  12.777  1.00  0.00     0.051 A 
HETATM    4  C   UNL     1     -41.986 -49.594  11.791  1.00  0.00     0.103 A 
HETATM    5  N   UNL     1     -41.433 -50.798  11.522  1.00  0.00    -0.350 N 
ATOM      6  HN  UNL     1     -40.646 -50.883  10.880  1.00  0.00     0.166 HD
HETATM    7  C   UNL     1     -41.962 -51.896  12.135  1.00  0.00     0.119 A 
ENDROOT
BRANCH   1   8
HETATM    8  N   UNL     1     -43.631 -53.046  13.510  1.00  0.00    -0.324 N 
HETATM    9  C   UNL     1     -44.831 -53.561  13.033  1.00  0.00     0.245 C 
HETATM   10  O   UNL     1     -45.500 -53.100  12.108  1.00  0.00    -0.271 OA
HETATM   11  H   UNL     1     -43.089 -53.638  14.132  1.00  0.00     0.169 HD
BRANCH   9  12
HETATM   12  C   UNL     1     -45.262 -54.855  13.707  1.00  0.00     0.270 C 
BRANCH  12  13
HETATM   13  O   UNL     1     -45.083 -54.776  15.113  1.00  0.00    -0.380 OA
BRANCH  13  14
HETATM   14  C   UNL     1     -46.145 -54.046  15.725  1.00  0.00     0.194 C 
BRANCH  14  15
HETATM   15  C   UNL     1     -45.579 -53.181  16.843  1.00  0.00     0.193 C 
BRANCH  15  16
HETATM   16  O   UNL     1     -44.606 -52.293  16.303  1.00  0.00    -0.394 OA
HETATM   17  C   UNL     1     -43.419 -52.292  17.086  1.00  0.00     0.201 C 
ENDBRANCH  15  16
ENDBRANCH  14  15
ENDBRANCH  13  14
ENDBRANCH  12  13
ENDBRANCH   9  12
ENDBRANCH   1   8
BRANCH   4  18
HETATM   18  N   UNL     1     -41.606 -48.471  11.080  1.00  0.00    -0.367 N 
HETATM   19  C   UNL     1     -40.417 -47.719  11.476  1.00  0.00     0.124 C 
HETATM   20  C   UNL     1     -40.786 -46.281  11.834  1.00  0.00     0.020 C 
HETATM   21  C   UNL     1     -41.591 -45.623  10.720  1.00  0.00     0.003 C 
HETATM   22  C   UNL     1     -42.833 -46.452  10.399  1.00  0.00     0.020 C 
HETATM   23  C   UNL     1     -42.479 -47.900  10.066  1.00  0.00     0.124 C 
ENDBRANCH   4  18
TORSDOF 7
ENDMDL
MODEL 3
REMARK VINA RESULT:      -5.2      3.054      7.359
REMARK  7 active torsions:
REMARK  status: ('A' for Active; 'I' for Inactive)
REMARK    1  A    between atoms: O_2  and  C_3 
REMARK    2  A    between atoms: C_3  and  C_4 
REMARK    3  A    between atoms: C_4  and  O_5 
REMARK    4  A    between atoms: O_5  and  C_6 
REMARK    5  A    between atoms: C_6  and  C_7 
REMARK       I    between atoms: C_7  and  N_9 
REMARK    6  A    between atoms: N_9  and  C_10 
REMARK    7  A    between atoms: C_13  and  N_17 
ROOT
HETATM    1  C   UNL     1     -41.555 -50.590  12.371  1.00  0.00     0.050 A 
HETATM    2  C   UNL     1     -42.531 -49.671  12.716  1.00  0.00     0.035 A 
HETATM    3  C   UNL     1     -42.759 -48.571  11.901  1.00  0.00     0.051 A 
HETATM    4  C   UNL     1     -42.013 -48.376  10.742  1.00  0.00     0.103 A 
HETATM    5  N   UNL     1     -40.965 -49.185  10.469  1.00  0.00    -0.350 N 
ATOM      6  HN  UNL     1     -40.345 -48.993   9.682  1.00  0.00     0.166 HD
HETATM    7  C   UNL     1     -40.761 -50.264  11.277  1.00  0.00     0.119 A 
ENDROOT
BRANCH   1   8
HETATM    8  N   UNL     1     -41.388 -51.802  13.078  1.00  0.00    -0.324 N 
HETATM    9  C   UNL     1     -40.154 -52.378  13.355  1.00  0.00     0.245 C 
HETATM   10  O   UNL     1     -39.053 -51.902  13.076  1.00  0.00    -0.271 OA
HETATM   11  H   UNL     1     -42.199 -52.198  13.543  1.00  0.00     0.169 HD
BRANCH   9  12
HETATM   12  C   UNL     1     -40.240 -53.676  14.144  1.00  0.00     0.270 C 
BRANCH  12  13
HETATM   13  O   UNL     1     -41.324 -54.473  13.690  1.00  0.00    -0.380 OA
BRANCH  13  14
HETATM   14  C   UNL     1     -42.260 -54.711  14.740  1.00  0.00     0.194 C 
BRANCH  14  15
HETATM   15  C   UNL     1     -43.667 -54.441  14.228  1.00  0.00     0.193 C 
BRANCH  15  16
HETATM   16  O   UNL     1     -43.593 -53.917  12.905  1.00  0.00    -0.394 OA
HETATM   17  C   UNL     1     -44.744 -53.143  12.593  1.00  0.00     0.201 C 
ENDBRANCH  15  16
ENDBRANCH  14  15
ENDBRANCH  13  14
ENDBRANCH  12  13
ENDBRANCH   9  12
ENDBRANCH   1   8
BRANCH   4  18
HETATM   18  N   UNL     1     -42.369 -47.366   9.868  1.00  0.00    -0.367 N 
HETATM   19  C   UNL     1     -41.935 -45.993  10.117  1.00  0.00     0.124 C 
HETATM   20  C   UNL     1     -43.140 -45.070  10.279  1.00  0.00     0.020 C 
HETATM   21  C   UNL     1     -44.106 -45.210   9.109  1.00  0.00     0.003 C 
HETATM   22  C   UNL     1     -44.538 -46.666   8.946  1.00  0.00     0.020 C 
HETATM   23  C   UNL     1     -43.340 -47.603   8.811  1.00  0.00     0.124 C 
ENDBRANCH   4  18
TORSDOF 7
ENDMDL
MODEL 4
REMARK VINA RESULT:      -5.2      3.468      7.970
REMARK  7 active torsions:
REMARK  status: ('A' for Active; 'I' for Inactive)
REMARK    1  A    between atoms: O_2  and  C_3 
REMARK    2  A    between atoms: C_3  and  C_4 
REMARK    3  A    between atoms: C_4  and  O_5 
REMARK    4  A    between atoms: O_5  and  C_6 
REMARK    5  A    between atoms: C_6  and  C_7 
REMARK       I    between atoms: C_7  and  N_9 
REMARK    6  A    between atoms: N_9  and  C_10 
REMARK    7  A    between atoms: C_13  and  N_17 
ROOT
HETATM    1  C   UNL     1     -41.721 -50.119  11.810  1.00  0.00     0.050 A 
HETATM    2  C   UNL     1     -42.673 -49.176  12.159  1.00  0.00     0.035 A 
HETATM    3  C   UNL     1     -42.469 -47.841  11.841  1.00  0.00     0.051 A 
HETATM    4  C   UNL     1     -41.312 -47.435  11.182  1.00  0.00     0.103 A 
HETATM    5  N   UNL     1     -40.312 -48.318  10.964  1.00  0.00    -0.350 N 
ATOM      6  HN  UNL     1     -39.418 -48.015  10.578  1.00  0.00     0.166 HD
HETATM    7  C   UNL     1     -40.535 -49.627  11.275  1.00  0.00     0.119 A 
ENDROOT
BRANCH   1   8
HETATM    8  N   UNL     1     -41.949 -51.504  11.968  1.00  0.00    -0.324 N 
HETATM    9  C   UNL     1     -41.775 -52.189  13.166  1.00  0.00     0.245 C 
HETATM   10  O   UNL     1     -41.455 -51.691  14.246  1.00  0.00    -0.271 OA
HETATM   11  H   UNL     1     -42.410 -52.001  11.213  1.00  0.00     0.169 HD
BRANCH   9  12
HETATM   12  C   UNL     1     -42.101 -53.673  13.083  1.00  0.00     0.270 C 
BRANCH  12  13
HETATM   13  O   UNL     1     -43.501 -53.877  12.964  1.00  0.00    -0.380 OA
BRANCH  13  14
HETATM   14  C   UNL     1     -44.026 -54.519  14.125  1.00  0.00     0.194 C 
BRANCH  14  15
HETATM   15  C   UNL     1     -45.394 -55.101  13.801  1.00  0.00     0.193 C 
BRANCH  15  16
HETATM   16  O   UNL     1     -46.287 -54.833  14.878  1.00  0.00    -0.394 OA
HETATM   17  C   UNL     1     -46.781 -53.501  14.817  1.00  0.00     0.201 C 
ENDBRANCH  15  16
ENDBRANCH  14  15
ENDBRANCH  13  14
ENDBRANCH  12  13
ENDBRANCH   9  12
ENDBRANCH   1   8
BRANCH   4  18
HETATM   18  N   UNL     1     -41.208 -46.131  10.736  1.00  0.00    -0.367 N 
HETATM   19  C   UNL     1     -39.893 -45.519  10.555  1.00  0.00     0.124 C 
HETATM   20  C   UNL     1     -39.744 -44.291  11.449  1.00  0.00     0.020 C 
HETATM   21  C   UNL     1     -40.906 -43.324  11.259  1.00  0.00     0.003 C 
HETATM   22  C   UNL     1     -42.236 -44.034  11.506  1.00  0.00     0.020 C 
HETATM   23  C   UNL     1     -42.384 -45.281  10.637  1.00  0.00     0.124 C 
ENDBRANCH   4  18
TORSDOF 7
ENDMDL
MODEL 5
REMARK VINA RESULT:      -5.2      1.529      2.194
REMARK  7 active torsions:
REMARK  status: ('A' for Active; 'I' for Inactive)
REMARK    1  A    between atoms: O_2  and  C_3 
REMARK    2  A    between atoms: C_3  and  C_4 
REMARK    3  A    between atoms: C_4  and  O_5 
REMARK    4  A    between atoms: O_5  and  C_6 
REMARK    5  A    between atoms: C_6  and  C_7 
REMARK       I    between atoms: C_7  and  N_9 
REMARK    6  A    between atoms: N_9  and  C_10 
REMARK    7  A    between atoms: C_13  and  N_17 
ROOT
HETATM    1  C   UNL     1     -40.930 -48.912  11.806  1.00  0.00     0.050 A 
HETATM    2  C   UNL     1     -42.071 -49.150  12.553  1.00  0.00     0.035 A 
HETATM    3  C   UNL     1     -42.509 -50.452  12.746  1.00  0.00     0.051 A 
HETATM    4  C   UNL     1     -41.818 -51.525  12.190  1.00  0.00     0.103 A 
HETATM    5  N   UNL     1     -40.790 -51.301  11.342  1.00  0.00    -0.350 N 
ATOM      6  HN  UNL     1     -40.341 -52.070  10.845  1.00  0.00     0.166 HD
HETATM    7  C   UNL     1     -40.369 -50.015  11.171  1.00  0.00     0.119 A 
ENDROOT
BRANCH   1   8
HETATM    8  N   UNL     1     -40.356 -47.625  11.709  1.00  0.00    -0.324 N 
HETATM    9  C   UNL     1     -40.808 -46.634  10.844  1.00  0.00     0.245 C 
HETATM   10  O   UNL     1     -41.780 -46.716  10.092  1.00  0.00    -0.271 OA
HETATM   11  H   UNL     1     -39.678 -47.351  12.412  1.00  0.00     0.169 HD
BRANCH   9  12
HETATM   12  C   UNL     1     -40.032 -45.329  10.939  1.00  0.00     0.270 C 
BRANCH  12  13
HETATM   13  O   UNL     1     -40.750 -44.269  10.325  1.00  0.00    -0.380 OA
BRANCH  13  14
HETATM   14  C   UNL     1     -41.074 -43.252  11.273  1.00  0.00     0.194 C 
BRANCH  14  15
HETATM   15  C   UNL     1     -42.483 -43.486  11.797  1.00  0.00     0.193 C 
BRANCH  15  16
HETATM   16  O   UNL     1     -42.431 -43.709  13.203  1.00  0.00    -0.394 OA
HETATM   17  C   UNL     1     -42.763 -45.054  13.524  1.00  0.00     0.201 C 
ENDBRANCH  15  16
ENDBRANCH  14  15
ENDBRANCH  13  14
ENDBRANCH  12  13
ENDBRANCH   9  12
ENDBRANCH   1   8
BRANCH   4  18
HETATM   18  N   UNL     1     -42.181 -52.815  12.531  1.00  0.00    -0.367 N 
HETATM   19  C   UNL     1     -43.592 -53.183  12.617  1.00  0.00     0.124 C 
HETATM   20  C   UNL     1     -43.938 -53.659  14.026  1.00  0.00     0.020 C 
HETATM   21  C   UNL     1     -42.985 -54.754  14.489  1.00  0.00     0.003 C 
HETATM   22  C   UNL     1     -41.538 -54.272  14.405  1.00  0.00     0.020 C 
HETATM   23  C   UNL     1     -41.189 -53.767  13.006  1.00  0.00     0.124 C 
ENDBRANCH   4  18
TORSDOF 7
ENDMDL
MODEL 6
REMARK VINA RESULT:      -5.1      2.932      4.542
REMARK  7 active torsions:
REMARK  status: ('A' for Active; 'I' for Inactive)
REMARK    1  A    between atoms: O_2  and  C_3 
REMARK    2  A    between atoms: C_3  and  C_4 
REMARK    3  A    between atoms: C_4  and  O_5 
REMARK    4  A    between atoms: O_5  and  C_6 
REMARK    5  A    between atoms: C_6  and  C_7 
REMARK       I    between atoms: C_7  and  N_9 
REMARK    6  A    between atoms: N_9  and  C_10 
REMARK    7  A    between atoms: C_13  and  N_17 
ROOT
HETATM    1  C   UNL     1     -41.129 -51.082  12.409  1.00  0.00     0.050 A 
HETATM    2  C   UNL     1     -42.086 -50.390  13.131  1.00  0.00     0.035 A 
HETATM    3  C   UNL     1     -43.365 -50.913  13.257  1.00  0.00     0.051 A 
HETATM    4  C   UNL     1     -43.701 -52.124  12.658  1.00  0.00     0.103 A 
HETATM    5  N   UNL     1     -42.823 -52.738  11.834  1.00  0.00    -0.350 N 
ATOM      6  HN  UNL     1     -43.090 -53.568  11.306  1.00  0.00     0.166 HD
HETATM    7  C   UNL     1     -41.569 -52.213  11.730  1.00  0.00     0.119 A 
ENDROOT
BRANCH   1   8
HETATM    8  N   UNL     1     -39.777 -50.674  12.381  1.00  0.00    -0.324 N 
HETATM    9  C   UNL     1     -38.748 -51.344  13.033  1.00  0.00     0.245 C 
HETATM   10  O   UNL     1     -38.855 -52.390  13.673  1.00  0.00    -0.271 OA
HETATM   11  H   UNL     1     -39.512 -49.944  11.726  1.00  0.00     0.169 HD
BRANCH   9  12
HETATM   12  C   UNL     1     -37.376 -50.714  12.836  1.00  0.00     0.270 C 
BRANCH  12  13
HETATM   13  O   UNL     1     -37.482 -49.304  12.705  1.00  0.00    -0.380 OA
BRANCH  13  14
HETATM   14  C   UNL     1     -37.560 -48.675  13.984  1.00  0.00     0.194 C 
BRANCH  14  15
HETATM   15  C   UNL     1     -38.575 -47.543  13.923  1.00  0.00     0.193 C 
BRANCH  15  16
HETATM   16  O   UNL     1     -39.384 -47.698  12.761  1.00  0.00    -0.394 OA
HETATM   17  C   UNL     1     -40.598 -46.967  12.877  1.00  0.00     0.201 C 
ENDBRANCH  15  16
ENDBRANCH  14  15
ENDBRANCH  13  14
ENDBRANCH  12  13
ENDBRANCH   9  12
ENDBRANCH   1   8
BRANCH   4  18
HETATM   18  N   UNL     1     -44.928 -52.699  12.933  1.00  0.00    -0.367 N 
HETATM   19  C   UNL     1     -46.130 -51.871  12.994  1.00  0.00     0.124 C 
HETATM   20  C   UNL     1     -46.774 -51.959  14.375  1.00  0.00     0.020 C 
HETATM   21  C   UNL     1     -47.000 -53.408  14.789  1.00  0.00     0.003 C 
HETATM   22  C   UNL     1     -45.688 -54.189  14.735  1.00  0.00     0.020 C 
HETATM   23  C   UNL     1     -45.021 -54.085  13.366  1.00  0.00     0.124 C 
ENDBRANCH   4  18
TORSDOF 7
ENDMDL
MODEL 7
REMARK VINA RESULT:      -5.1      1.559      3.069
REMARK  7 active torsions:
REMARK  status: ('A' for Active; 'I' for Inactive)
REMARK    1  A    between atoms: O_2  and  C_3 
REMARK    2  A    between atoms: C_3  and  C_4 
REMARK    3  A    between atoms: C_4  and  O_5 
REMARK    4  A    between atoms: O_5  and  C_6 
REMARK    5  A    between atoms: C_6  and  C_7 
REMARK       I    between atoms: C_7  and  N_9 
REMARK    6  A    between atoms: N_9  and  C_10 
REMARK    7  A    between atoms: C_13  and  N_17 
ROOT
HETATM    1  C   UNL     1     -41.531 -49.348  11.828  1.00  0.00     0.050 A 
HETATM    2  C   UNL     1     -42.631 -49.659  12.610  1.00  0.00     0.035 A 
HETATM    3  C   UNL     1     -42.910 -50.985  12.909  1.00  0.00     0.051 A 
HETATM    4  C   UNL     1     -42.102 -52.010  12.425  1.00  0.00     0.103 A 
HETATM    5  N   UNL     1     -41.113 -51.733  11.546  1.00  0.00    -0.350 N 
ATOM      6  HN  UNL     1     -40.581 -52.481  11.102  1.00  0.00     0.166 HD
HETATM    7  C   UNL     1     -40.848 -50.424  11.271  1.00  0.00     0.119 A 
ENDROOT
BRANCH   1   8
HETATM    8  N   UNL     1     -41.114 -48.015  11.624  1.00  0.00    -0.324 N 
HETATM    9  C   UNL     1     -41.569 -47.206  10.589  1.00  0.00     0.245 C 
HETATM   10  O   UNL     1     -42.417 -47.511   9.750  1.00  0.00    -0.271 OA
HETATM   11  H   UNL     1     -40.571 -47.567  12.357  1.00  0.00     0.169 HD
BRANCH   9  12
HETATM   12  C   UNL     1     -40.980 -45.803  10.594  1.00  0.00     0.270 C 
BRANCH  12  13
HETATM   13  O   UNL     1     -39.741 -45.778  11.286  1.00  0.00    -0.380 OA
BRANCH  13  14
HETATM   14  C   UNL     1     -39.738 -44.771  12.297  1.00  0.00     0.194 C 
BRANCH  14  15
HETATM   15  C   UNL     1     -39.034 -45.306  13.535  1.00  0.00     0.193 C 
BRANCH  15  16
HETATM   16  O   UNL     1     -39.052 -46.731  13.507  1.00  0.00    -0.394 OA
HETATM   17  C   UNL     1     -38.344 -47.276  14.613  1.00  0.00     0.201 C 
ENDBRANCH  15  16
ENDBRANCH  14  15
ENDBRANCH  13  14
ENDBRANCH  12  13
ENDBRANCH   9  12
ENDBRANCH   1   8
BRANCH   4  18
HETATM   18  N   UNL     1     -42.307 -53.303  12.869  1.00  0.00    -0.367 N 
HETATM   19  C   UNL     1     -43.658 -53.858  12.913  1.00  0.00     0.124 C 
HETATM   20  C   UNL     1     -44.031 -54.252  14.340  1.00  0.00     0.020 C 
HETATM   21  C   UNL     1     -42.971 -55.155  14.959  1.00  0.00     0.003 C 
HETATM   22  C   UNL     1     -41.601 -54.482  14.907  1.00  0.00     0.020 C 
HETATM   23  C   UNL     1     -41.229 -54.058  13.488  1.00  0.00     0.124 C 
ENDBRANCH   4  18
TORSDOF 7
ENDMDL
MODEL 8
REMARK VINA RESULT:      -4.9      3.027      7.869
REMARK  7 active torsions:
REMARK  status: ('A' for Active; 'I' for Inactive)
REMARK    1  A    between atoms: O_2  and  C_3 
REMARK    2  A    between atoms: C_3  and  C_4 
REMARK    3  A    between atoms: C_4  and  O_5 
REMARK    4  A    between atoms: O_5  and  C_6 
REMARK    5  A    between atoms: C_6  and  C_7 
REMARK       I    between atoms: C_7  and  N_9 
REMARK    6  A    between atoms: N_9  and  C_10 
REMARK    7  A    between atoms: C_13  and  N_17 
ROOT
HETATM    1  C   UNL     1     -41.967 -49.932  11.912  1.00  0.00     0.050 A 
HETATM    2  C   UNL     1     -42.880 -48.945  12.242  1.00  0.00     0.035 A 
HETATM    3  C   UNL     1     -42.622 -47.625  11.899  1.00  0.00     0.051 A 
HETATM    4  C   UNL     1     -41.450 -47.279  11.234  1.00  0.00     0.103 A 
HETATM    5  N   UNL     1     -40.486 -48.206  11.034  1.00  0.00    -0.350 N 
ATOM      6  HN  UNL     1     -39.581 -47.947  10.643  1.00  0.00     0.166 HD
HETATM    7  C   UNL     1     -40.762 -49.499  11.370  1.00  0.00     0.119 A 
ENDROOT
BRANCH   1   8
HETATM    8  N   UNL     1     -42.251 -51.303  12.097  1.00  0.00    -0.324 N 
HETATM    9  C   UNL     1     -42.583 -51.871  13.322  1.00  0.00     0.245 C 
HETATM   10  O   UNL     1     -42.724 -51.268  14.386  1.00  0.00    -0.271 OA
HETATM   11  H   UNL     1     -42.371 -51.882  11.271  1.00  0.00     0.169 HD
BRANCH   9  12
HETATM   12  C   UNL     1     -42.860 -53.366  13.256  1.00  0.00     0.270 C 
BRANCH  12  13
HETATM   13  O   UNL     1     -41.653 -54.096  13.088  1.00  0.00    -0.380 OA
BRANCH  13  14
HETATM   14  C   UNL     1     -40.824 -53.990  14.245  1.00  0.00     0.194 C 
BRANCH  14  15
HETATM   15  C   UNL     1     -39.423 -54.473  13.902  1.00  0.00     0.193 C 
BRANCH  15  16
HETATM   16  O   UNL     1     -38.605 -53.353  13.577  1.00  0.00    -0.394 OA
HETATM   17  C   UNL     1     -39.008 -52.195  14.298  1.00  0.00     0.201 C 
ENDBRANCH  15  16
ENDBRANCH  14  15
ENDBRANCH  13  14
ENDBRANCH  12  13
ENDBRANCH   9  12
ENDBRANCH   1   8
BRANCH   4  18
HETATM   18  N   UNL     1     -41.292 -45.989  10.764  1.00  0.00    -0.367 N 
HETATM   19  C   UNL     1     -39.954 -45.450  10.531  1.00  0.00     0.124 C 
HETATM   20  C   UNL     1     -39.713 -44.218  11.399  1.00  0.00     0.020 C 
HETATM   21  C   UNL     1     -40.829 -43.194  11.230  1.00  0.00     0.003 C 
HETATM   22  C   UNL     1     -42.185 -43.830  11.531  1.00  0.00     0.020 C 
HETATM   23  C   UNL     1     -42.426 -45.080  10.687  1.00  0.00     0.124 C 
ENDBRANCH   4  18
TORSDOF 7
ENDMDL
MODEL 9
REMARK VINA RESULT:      -4.8     18.227     20.491
REMARK  7 active torsions:
REMARK  status: ('A' for Active; 'I' for Inactive)
REMARK    1  A    between atoms: O_2  and  C_3 
REMARK    2  A    between atoms: C_3  and  C_4 
REMARK    3  A    between atoms: C_4  and  O_5 
REMARK    4  A    between atoms: O_5  and  C_6 
REMARK    5  A    between atoms: C_6  and  C_7 
REMARK       I    between atoms: C_7  and  N_9 
REMARK    6  A    between atoms: N_9  and  C_10 
REMARK    7  A    between atoms: C_13  and  N_17 
ROOT
HETATM    1  C   UNL     1     -28.525 -44.150  -2.264  1.00  0.00     0.050 A 
HETATM    2  C   UNL     1     -27.323 -44.805  -2.053  1.00  0.00     0.035 A 
HETATM    3  C   UNL     1     -26.331 -44.197  -1.298  1.00  0.00     0.051 A 
HETATM    4  C   UNL     1     -26.524 -42.929  -0.755  1.00  0.00     0.103 A 
HETATM    5  N   UNL     1     -27.631 -42.220  -1.072  1.00  0.00    -0.350 N 
ATOM      6  HN  UNL     1     -27.740 -41.253  -0.770  1.00  0.00     0.166 HD
HETATM    7  C   UNL     1     -28.599 -42.838  -1.808  1.00  0.00     0.119 A 
ENDROOT
BRANCH   1   8
HETATM    8  N   UNL     1     -29.620 -44.785  -2.890  1.00  0.00    -0.324 N 
HETATM    9  C   UNL     1     -30.309 -45.863  -2.346  1.00  0.00     0.245 C 
HETATM   10  O   UNL     1     -30.101 -46.376  -1.246  1.00  0.00    -0.271 OA
HETATM   11  H   UNL     1     -30.028 -44.339  -3.705  1.00  0.00     0.169 HD
BRANCH   9  12
HETATM   12  C   UNL     1     -31.462 -46.359  -3.207  1.00  0.00     0.270 C 
BRANCH  12  13
HETATM   13  O   UNL     1     -32.016 -47.552  -2.672  1.00  0.00    -0.380 OA
BRANCH  13  14
HETATM   14  C   UNL     1     -32.972 -48.119  -3.565  1.00  0.00     0.194 C 
BRANCH  14  15
HETATM   15  C   UNL     1     -32.268 -48.559  -4.840  1.00  0.00     0.193 C 
BRANCH  15  16
HETATM   16  O   UNL     1     -31.355 -49.609  -4.535  1.00  0.00    -0.394 OA
HETATM   17  C   UNL     1     -31.880 -50.874  -4.915  1.00  0.00     0.201 C 
ENDBRANCH  15  16
ENDBRANCH  14  15
ENDBRANCH  13  14
ENDBRANCH  12  13
ENDBRANCH   9  12
ENDBRANCH   1   8
BRANCH   4  18
HETATM   18  N   UNL     1     -25.588 -42.417   0.123  1.00  0.00    -0.367 N 
HETATM   19  C   UNL     1     -25.753 -42.603   1.563  1.00  0.00     0.124 C 
HETATM   20  C   UNL     1     -25.853 -41.255   2.271  1.00  0.00     0.020 C 
HETATM   21  C   UNL     1     -24.691 -40.344   1.895  1.00  0.00     0.003 C 
HETATM   22  C   UNL     1     -24.618 -40.172   0.379  1.00  0.00     0.020 C 
HETATM   23  C   UNL     1     -24.545 -41.516  -0.342  1.00  0.00     0.124 C 
ENDBRANCH   4  18
TORSDOF 7
ENDMDL
