MODEL 1
REMARK VINA RESULT:      -6.4      0.000      0.000
REMARK  4 active torsions:
REMARK  status: ('A' for Active; 'I' for Inactive)
REMARK    1  A    between atoms: N_2  and  C_4 
REMARK    2  A    between atoms: N_9  and  C_10 
REMARK    3  A    between atoms: C_10  and  C_11 
REMARK       I    between atoms: C_11  and  N_13 
REMARK    4  A    between atoms: N_13  and  C_14 
ROOT
HETATM    1  C   UNL     1     -40.598 -49.893  11.369  1.00  0.00     0.234 C 
ENDROOT
BRANCH   1   2
HETATM    2  N   UNL     1     -40.904 -48.485  11.125  1.00  0.00    -0.314 N 
HETATM    3  C   UNL     1     -40.069 -47.531  11.704  1.00  0.00     0.247 A 
HETATM    4  C   UNL     1     -40.418 -46.108  11.430  1.00  0.00     0.077 A 
HETATM    5  O   UNL     1     -39.089 -47.798  12.394  1.00  0.00    -0.268 OA
HETATM    6  C   UNL     1     -41.438 -45.802  10.615  1.00  0.00     0.043 A 
HETATM    7  C   UNL     1     -42.222 -46.854  10.005  1.00  0.00     0.118 A 
HETATM    8  C   UNL     1     -41.954 -48.143  10.274  1.00  0.00     0.130 A 
BRANCH   7   9
HETATM    9  N   UNL     1     -43.326 -46.548   9.090  1.00  0.00    -0.114 N 
HETATM   10  O   UNL     1     -43.552 -45.351   8.864  1.00  0.00    -0.532 OA
HETATM   11  O   UNL     1     -43.964 -47.489   8.600  1.00  0.00    -0.532 OA
ENDBRANCH   7   9
ENDBRANCH   1   2
BRANCH   1  12
HETATM   12  C   UNL     1     -41.469 -50.454  12.494  1.00  0.00     0.236 C 
HETATM   13  O   UNL     1     -41.254 -50.173  13.671  1.00  0.00    -0.272 OA
HETATM   14  N   UNL     1     -42.526 -51.244  12.082  1.00  0.00    -0.355 N 
HETATM   15  H   UNL     1     -42.809 -51.182  11.106  1.00  0.00     0.162 HD
BRANCH  14  16
HETATM   16  C   UNL     1     -43.443 -51.864  13.044  1.00  0.00     0.084 C 
HETATM   17  C   UNL     1     -43.887 -53.244  12.534  1.00  0.00     0.025 C 
HETATM   18  C   UNL     1     -44.456 -54.129  13.644  1.00  0.00     0.002 C 
HETATM   19  C   UNL     1     -45.946 -53.957  13.929  1.00  0.00     0.000 C 
HETATM   20  C   UNL     1     -46.512 -52.545  13.839  1.00  0.00     0.000 C 
HETATM   21  C   UNL     1     -45.607 -51.449  14.392  1.00  0.00     0.002 C 
HETATM   22  C   UNL     1     -44.609 -50.918  13.358  1.00  0.00     0.025 C 
ENDBRANCH  14  16
ENDBRANCH   1  12
TORSDOF 4
ENDMDL
MODEL 2
REMARK VINA RESULT:      -6.3      2.025      3.010
REMARK  4 active torsions:
REMARK  status: ('A' for Active; 'I' for Inactive)
REMARK    1  A    between atoms: N_2  and  C_4 
REMARK    2  A    between atoms: N_9  and  C_10 
REMARK    3  A    between atoms: C_10  and  C_11 
REMARK       I    between atoms: C_11  and  N_13 
REMARK    4  A    between atoms: N_13  and  C_14 
ROOT
HETATM    1  C   UNL     1     -40.837 -52.535  12.068  1.00  0.00     0.234 C 
ENDROOT
BRANCH   1   2
HETATM    2  N   UNL     1     -40.256 -51.195  12.106  1.00  0.00    -0.314 N 
HETATM    3  C   UNL     1     -39.007 -51.046  12.707  1.00  0.00     0.247 A 
HETATM    4  C   UNL     1     -38.452 -49.664  12.725  1.00  0.00     0.077 A 
HETATM    5  O   UNL     1     -38.361 -51.970  13.194  1.00  0.00    -0.268 OA
HETATM    6  C   UNL     1     -39.110 -48.658  12.128  1.00  0.00     0.043 A 
HETATM    7  C   UNL     1     -40.377 -48.906  11.474  1.00  0.00     0.118 A 
HETATM    8  C   UNL     1     -40.917 -50.136  11.485  1.00  0.00     0.130 A 
BRANCH   7   9
HETATM    9  N   UNL     1     -41.105 -47.831  10.792  1.00  0.00    -0.114 N 
HETATM   10  O   UNL     1     -40.649 -46.685  10.908  1.00  0.00    -0.532 OA
HETATM   11  O   UNL     1     -42.120 -48.123  10.147  1.00  0.00    -0.532 OA
ENDBRANCH   7   9
ENDBRANCH   1   2
BRANCH   1  12
HETATM   12  C   UNL     1     -42.149 -52.584  12.852  1.00  0.00     0.236 C 
HETATM   13  O   UNL     1     -42.187 -52.332  14.054  1.00  0.00    -0.272 OA
HETATM   14  N   UNL     1     -43.272 -52.878  12.101  1.00  0.00    -0.355 N 
HETATM   15  H   UNL     1     -43.205 -52.777  11.090  1.00  0.00     0.162 HD
BRANCH  14  16
HETATM   16  C   UNL     1     -44.602 -52.973  12.713  1.00  0.00     0.084 C 
HETATM   17  C   UNL     1     -44.979 -51.632  13.363  1.00  0.00     0.025 C 
HETATM   18  C   UNL     1     -46.482 -51.499  13.614  1.00  0.00     0.002 C 
HETATM   19  C   UNL     1     -46.986 -52.074  14.935  1.00  0.00     0.000 C 
HETATM   20  C   UNL     1     -46.334 -53.360  15.427  1.00  0.00     0.000 C 
HETATM   21  C   UNL     1     -46.025 -54.385  14.341  1.00  0.00     0.002 C 
HETATM   22  C   UNL     1     -44.663 -54.164  13.678  1.00  0.00     0.025 C 
ENDBRANCH  14  16
ENDBRANCH   1  12
TORSDOF 4
ENDMDL
MODEL 3
REMARK VINA RESULT:      -6.1      2.990      7.273
REMARK  4 active torsions:
REMARK  status: ('A' for Active; 'I' for Inactive)
REMARK    1  A    between atoms: N_2  and  C_4 
REMARK    2  A    between atoms: N_9  and  C_10 
REMARK    3  A    between atoms: C_10  and  C_11 
REMARK       I    between atoms: C_11  and  N_13 
REMARK    4  A    between atoms: N_13  and  C_14 
ROOT
HETATM    1  C   UNL     1     -40.902 -52.473  12.070  1.00  0.00     0.234 C 
ENDROOT
BRANCH   1   2
HETATM    2  N   UNL     1     -41.631 -53.332  13.001  1.00  0.00    -0.314 N 
HETATM    3  C   UNL     1     -40.931 -53.847  14.092  1.00  0.00     0.247 A 
HETATM    4  C   UNL     1     -41.712 -54.717  15.014  1.00  0.00     0.077 A 
HETATM    5  O   UNL     1     -39.748 -53.615  14.324  1.00  0.00    -0.268 OA
HETATM    6  C   UNL     1     -43.024 -54.916  14.817  1.00  0.00     0.043 A 
HETATM    7  C   UNL     1     -43.691 -54.297  13.691  1.00  0.00     0.118 A 
HETATM    8  C   UNL     1     -42.997 -53.546  12.821  1.00  0.00     0.130 A 
BRANCH   7   9
HETATM    9  N   UNL     1     -45.129 -54.477  13.466  1.00  0.00    -0.114 N 
HETATM   10  O   UNL     1     -45.675 -55.420  14.055  1.00  0.00    -0.532 OA
HETATM   11  O   UNL     1     -45.710 -53.687  12.711  1.00  0.00    -0.532 OA
ENDBRANCH   7   9
ENDBRANCH   1   2
BRANCH   1  12
HETATM   12  C   UNL     1     -41.120 -50.996  12.404  1.00  0.00     0.236 C 
HETATM   13  O   UNL     1     -41.315 -50.623  13.559  1.00  0.00    -0.272 OA
HETATM   14  N   UNL     1     -41.028 -50.131  11.330  1.00  0.00    -0.355 N 
HETATM   15  H   UNL     1     -40.576 -50.473  10.485  1.00  0.00     0.162 HD
BRANCH  14  16
HETATM   16  C   UNL     1     -41.226 -48.686  11.490  1.00  0.00     0.084 C 
HETATM   17  C   UNL     1     -42.069 -48.139  10.326  1.00  0.00     0.025 C 
HETATM   18  C   UNL     1     -42.693 -46.777  10.639  1.00  0.00     0.002 C 
HETATM   19  C   UNL     1     -41.818 -45.564  10.337  1.00  0.00     0.000 C 
HETATM   20  C   UNL     1     -40.326 -45.697  10.612  1.00  0.00     0.000 C 
HETATM   21  C   UNL     1     -39.967 -46.465  11.880  1.00  0.00     0.002 C 
HETATM   22  C   UNL     1     -39.876 -47.977  11.659  1.00  0.00     0.025 C 
ENDBRANCH  14  16
ENDBRANCH   1  12
TORSDOF 4
ENDMDL
MODEL 4
REMARK VINA RESULT:      -5.7      1.503      3.098
REMARK  4 active torsions:
REMARK  status: ('A' for Active; 'I' for Inactive)
REMARK    1  A    between atoms: N_2  and  C_4 
REMARK    2  A    between atoms: N_9  and  C_10 
REMARK    3  A    between atoms: C_10  and  C_11 
REMARK       I    between atoms: C_11  and  N_13 
REMARK    4  A    between atoms: N_13  and  C_14 
ROOT
HETATM    1  C   UNL     1     -40.435 -49.768  11.344  1.00  0.00     0.234 C 
ENDROOT
BRANCH   1   2
HETATM    2  N   UNL     1     -40.462 -48.313  11.482  1.00  0.00    -0.314 N 
HETATM    3  C   UNL     1     -41.358 -47.602  10.686  1.00  0.00     0.247 A 
HETATM    4  C   UNL     1     -41.351 -46.122  10.858  1.00  0.00     0.077 A 
HETATM    5  O   UNL     1     -42.132 -48.120   9.886  1.00  0.00    -0.268 OA
HETATM    6  C   UNL     1     -40.567 -45.548  11.784  1.00  0.00     0.043 A 
HETATM    7  C   UNL     1     -39.705 -46.363  12.613  1.00  0.00     0.118 A 
HETATM    8  C   UNL     1     -39.662 -47.695  12.443  1.00  0.00     0.130 A 
BRANCH   7   9
HETATM    9  N   UNL     1     -38.857 -45.764  13.649  1.00  0.00    -0.114 N 
HETATM   10  O   UNL     1     -38.852 -44.528  13.723  1.00  0.00    -0.532 OA
HETATM   11  O   UNL     1     -38.202 -46.517  14.381  1.00  0.00    -0.532 OA
ENDBRANCH   7   9
ENDBRANCH   1   2
BRANCH   1  12
HETATM   12  C   UNL     1     -41.249 -50.437  12.453  1.00  0.00     0.236 C 
HETATM   13  O   UNL     1     -40.888 -50.393  13.627  1.00  0.00    -0.272 OA
HETATM   14  N   UNL     1     -42.424 -51.035  12.040  1.00  0.00    -0.355 N 
HETATM   15  H   UNL     1     -42.794 -50.773  11.128  1.00  0.00     0.162 HD
BRANCH  14  16
HETATM   16  C   UNL     1     -43.306 -51.728  12.985  1.00  0.00     0.084 C 
HETATM   17  C   UNL     1     -43.744 -53.082  12.401  1.00  0.00     0.025 C 
HETATM   18  C   UNL     1     -44.271 -54.042  13.469  1.00  0.00     0.002 C 
HETATM   19  C   UNL     1     -45.754 -53.912  13.802  1.00  0.00     0.000 C 
HETATM   20  C   UNL     1     -46.343 -52.506  13.815  1.00  0.00     0.000 C 
HETATM   21  C   UNL     1     -45.439 -51.432  14.411  1.00  0.00     0.002 C 
HETATM   22  C   UNL     1     -44.478 -50.823  13.387  1.00  0.00     0.025 C 
ENDBRANCH  14  16
ENDBRANCH   1  12
TORSDOF 4
ENDMDL
MODEL 5
REMARK VINA RESULT:      -5.7      4.727      5.528
REMARK  4 active torsions:
REMARK  status: ('A' for Active; 'I' for Inactive)
REMARK    1  A    between atoms: N_2  and  C_4 
REMARK    2  A    between atoms: N_9  and  C_10 
REMARK    3  A    between atoms: C_10  and  C_11 
REMARK       I    between atoms: C_11  and  N_13 
REMARK    4  A    between atoms: N_13  and  C_14 
ROOT
HETATM    1  C   UNL     1     -40.226 -53.998  14.885  1.00  0.00     0.234 C 
ENDROOT
BRANCH   1   2
HETATM    2  N   UNL     1     -39.505 -52.727  14.837  1.00  0.00    -0.314 N 
HETATM    3  C   UNL     1     -39.493 -51.945  15.991  1.00  0.00     0.247 A 
HETATM    4  C   UNL     1     -38.748 -50.659  15.898  1.00  0.00     0.077 A 
HETATM    5  O   UNL     1     -40.038 -52.261  17.045  1.00  0.00    -0.268 OA
HETATM    6  C   UNL     1     -38.081 -50.336  14.779  1.00  0.00     0.043 A 
HETATM    7  C   UNL     1     -38.096 -51.232  13.642  1.00  0.00     0.118 A 
HETATM    8  C   UNL     1     -38.799 -52.376  13.688  1.00  0.00     0.130 A 
BRANCH   7   9
HETATM    9  N   UNL     1     -37.356 -50.917  12.416  1.00  0.00    -0.114 N 
HETATM   10  O   UNL     1     -36.704 -51.836  11.902  1.00  0.00    -0.532 OA
HETATM   11  O   UNL     1     -37.422 -49.765  11.967  1.00  0.00    -0.532 OA
ENDBRANCH   7   9
ENDBRANCH   1   2
BRANCH   1  12
HETATM   12  C   UNL     1     -41.603 -53.870  14.231  1.00  0.00     0.236 C 
HETATM   13  O   UNL     1     -41.800 -54.237  13.075  1.00  0.00    -0.272 OA
HETATM   14  N   UNL     1     -42.597 -53.367  15.050  1.00  0.00    -0.355 N 
HETATM   15  H   UNL     1     -42.431 -53.373  16.054  1.00  0.00     0.162 HD
BRANCH  14  16
HETATM   16  C   UNL     1     -43.968 -53.174  14.563  1.00  0.00     0.084 C 
HETATM   17  C   UNL     1     -44.243 -51.677  14.348  1.00  0.00     0.025 C 
HETATM   18  C   UNL     1     -45.445 -51.424  13.436  1.00  0.00     0.002 C 
HETATM   19  C   UNL     1     -46.805 -51.389  14.128  1.00  0.00     0.000 C 
HETATM   20  C   UNL     1     -47.027 -52.368  15.274  1.00  0.00     0.000 C 
HETATM   21  C   UNL     1     -46.434 -53.757  15.062  1.00  0.00     0.002 C 
HETATM   22  C   UNL     1     -44.971 -53.857  15.501  1.00  0.00     0.025 C 
ENDBRANCH  14  16
ENDBRANCH   1  12
TORSDOF 4
ENDMDL
MODEL 6
REMARK VINA RESULT:      -5.5      4.180      7.150
REMARK  4 active torsions:
REMARK  status: ('A' for Active; 'I' for Inactive)
REMARK    1  A    between atoms: N_2  and  C_4 
REMARK    2  A    between atoms: N_9  and  C_10 
REMARK    3  A    between atoms: C_10  and  C_11 
REMARK       I    between atoms: C_11  and  N_13 
REMARK    4  A    between atoms: N_13  and  C_14 
ROOT
HETATM    1  C   UNL     1     -43.111 -54.047  14.552  1.00  0.00     0.234 C 
ENDROOT
BRANCH   1   2
HETATM    2  N   UNL     1     -44.268 -53.162  14.439  1.00  0.00    -0.314 N 
HETATM    3  C   UNL     1     -45.060 -53.273  13.297  1.00  0.00     0.247 A 
HETATM    4  C   UNL     1     -46.229 -52.353  13.223  1.00  0.00     0.077 A 
HETATM    5  O   UNL     1     -44.854 -54.073  12.389  1.00  0.00    -0.268 OA
HETATM    6  C   UNL     1     -46.513 -51.529  14.243  1.00  0.00     0.043 A 
HETATM    7  C   UNL     1     -45.673 -51.515  15.422  1.00  0.00     0.118 A 
HETATM    8  C   UNL     1     -44.588 -52.304  15.490  1.00  0.00     0.130 A 
BRANCH   7   9
HETATM    9  N   UNL     1     -45.975 -50.643  16.561  1.00  0.00    -0.114 N 
HETATM   10  O   UNL     1     -47.103 -50.744  17.062  1.00  0.00    -0.532 OA
HETATM   11  O   UNL     1     -45.097 -49.863  16.955  1.00  0.00    -0.532 OA
ENDBRANCH   7   9
ENDBRANCH   1   2
BRANCH   1  12
HETATM   12  C   UNL     1     -41.973 -53.576  13.644  1.00  0.00     0.236 C 
HETATM   13  O   UNL     1     -41.457 -54.329  12.821  1.00  0.00    -0.272 OA
HETATM   14  N   UNL     1     -41.619 -52.248  13.786  1.00  0.00    -0.355 N 
HETATM   15  H   UNL     1     -42.278 -51.630  14.256  1.00  0.00     0.162 HD
BRANCH  14  16
HETATM   16  C   UNL     1     -40.538 -51.652  12.993  1.00  0.00     0.084 C 
HETATM   17  C   UNL     1     -39.363 -51.272  13.909  1.00  0.00     0.025 C 
HETATM   18  C   UNL     1     -38.054 -51.077  13.141  1.00  0.00     0.002 C 
HETATM   19  C   UNL     1     -37.824 -49.681  12.569  1.00  0.00     0.000 C 
HETATM   20  C   UNL     1     -39.041 -48.946  12.020  1.00  0.00     0.000 C 
HETATM   21  C   UNL     1     -40.030 -49.815  11.251  1.00  0.00     0.002 C 
HETATM   22  C   UNL     1     -41.069 -50.483  12.155  1.00  0.00     0.025 C 
ENDBRANCH  14  16
ENDBRANCH   1  12
TORSDOF 4
ENDMDL
MODEL 7
REMARK VINA RESULT:      -5.5      3.398      4.091
REMARK  4 active torsions:
REMARK  status: ('A' for Active; 'I' for Inactive)
REMARK    1  A    between atoms: N_2  and  C_4 
REMARK    2  A    between atoms: N_9  and  C_10 
REMARK    3  A    between atoms: C_10  and  C_11 
REMARK       I    between atoms: C_11  and  N_13 
REMARK    4  A    between atoms: N_13  and  C_14 
ROOT
HETATM    1  C   UNL     1     -39.559 -52.572  13.666  1.00  0.00     0.234 C 
ENDROOT
BRANCH   1   2
HETATM    2  N   UNL     1     -39.114 -51.187  13.523  1.00  0.00    -0.314 N 
HETATM    3  C   UNL     1     -37.897 -50.960  12.883  1.00  0.00     0.247 A 
HETATM    4  C   UNL     1     -37.481 -49.535  12.760  1.00  0.00     0.077 A 
HETATM    5  O   UNL     1     -37.183 -51.846  12.422  1.00  0.00    -0.268 OA
HETATM    6  C   UNL     1     -38.287 -48.551  13.188  1.00  0.00     0.043 A 
HETATM    7  C   UNL     1     -39.564 -48.868  13.791  1.00  0.00     0.118 A 
HETATM    8  C   UNL     1     -39.938 -50.148  13.953  1.00  0.00     0.130 A 
BRANCH   7   9
HETATM    9  N   UNL     1     -40.475 -47.812  14.244  1.00  0.00    -0.114 N 
HETATM   10  O   UNL     1     -40.585 -46.816  13.516  1.00  0.00    -0.532 OA
HETATM   11  O   UNL     1     -41.075 -47.972  15.315  1.00  0.00    -0.532 OA
ENDBRANCH   7   9
ENDBRANCH   1   2
BRANCH   1  12
HETATM   12  C   UNL     1     -40.979 -52.747  13.126  1.00  0.00     0.236 C 
HETATM   13  O   UNL     1     -41.231 -52.613  11.931  1.00  0.00    -0.272 OA
HETATM   14  N   UNL     1     -41.924 -53.114  14.066  1.00  0.00    -0.355 N 
HETATM   15  H   UNL     1     -41.590 -53.492  14.950  1.00  0.00     0.162 HD
BRANCH  14  16
HETATM   16  C   UNL     1     -43.332 -53.309  13.703  1.00  0.00     0.084 C 
HETATM   17  C   UNL     1     -44.161 -52.090  14.140  1.00  0.00     0.025 C 
HETATM   18  C   UNL     1     -45.507 -52.001  13.419  1.00  0.00     0.002 C 
HETATM   19  C   UNL     1     -46.652 -52.782  14.058  1.00  0.00     0.000 C 
HETATM   20  C   UNL     1     -46.312 -54.130  14.682  1.00  0.00     0.000 C 
HETATM   21  C   UNL     1     -45.302 -54.966  13.904  1.00  0.00     0.002 C 
HETATM   22  C   UNL     1     -43.851 -54.639  14.263  1.00  0.00     0.025 C 
ENDBRANCH  14  16
ENDBRANCH   1  12
TORSDOF 4
ENDMDL
MODEL 8
REMARK VINA RESULT:      -5.5      3.022      7.732
REMARK  4 active torsions:
REMARK  status: ('A' for Active; 'I' for Inactive)
REMARK    1  A    between atoms: N_2  and  C_4 
REMARK    2  A    between atoms: N_9  and  C_10 
REMARK    3  A    between atoms: C_10  and  C_11 
REMARK       I    between atoms: C_11  and  N_13 
REMARK    4  A    between atoms: N_13  and  C_14 
ROOT
HETATM    1  C   UNL     1     -43.270 -52.372  12.667  1.00  0.00     0.234 C 
ENDROOT
BRANCH   1   2
HETATM    2  N   UNL     1     -42.654 -53.253  13.657  1.00  0.00    -0.314 N 
HETATM    3  C   UNL     1     -43.492 -53.880  14.577  1.00  0.00     0.247 A 
HETATM    4  C   UNL     1     -42.823 -54.768  15.568  1.00  0.00     0.077 A 
HETATM    5  O   UNL     1     -44.712 -53.749  14.601  1.00  0.00    -0.268 OA
HETATM    6  C   UNL     1     -41.500 -54.984  15.506  1.00  0.00     0.043 A 
HETATM    7  C   UNL     1     -40.706 -54.338  14.482  1.00  0.00     0.118 A 
HETATM    8  C   UNL     1     -41.282 -53.498  13.607  1.00  0.00     0.130 A 
BRANCH   7   9
HETATM    9  N   UNL     1     -39.263 -54.575  14.375  1.00  0.00    -0.114 N 
HETATM   10  O   UNL     1     -38.804 -55.537  15.007  1.00  0.00    -0.532 OA
HETATM   11  O   UNL     1     -38.591 -53.812  13.669  1.00  0.00    -0.532 OA
ENDBRANCH   7   9
ENDBRANCH   1   2
BRANCH   1  12
HETATM   12  C   UNL     1     -42.922 -50.909  12.946  1.00  0.00     0.236 C 
HETATM   13  O   UNL     1     -43.129 -50.400  14.045  1.00  0.00    -0.272 OA
HETATM   14  N   UNL     1     -42.319 -50.238  11.899  1.00  0.00    -0.355 N 
HETATM   15  H   UNL     1     -41.917 -50.796  11.149  1.00  0.00     0.162 HD
BRANCH  14  16
HETATM   16  C   UNL     1     -41.938 -48.826  12.010  1.00  0.00     0.084 C 
HETATM   17  C   UNL     1     -42.661 -47.999  10.933  1.00  0.00     0.025 C 
HETATM   18  C   UNL     1     -42.682 -46.503  11.253  1.00  0.00     0.002 C 
HETATM   19  C   UNL     1     -41.464 -45.710  10.786  1.00  0.00     0.000 C 
HETATM   20  C   UNL     1     -40.108 -46.398  10.882  1.00  0.00     0.000 C 
HETATM   21  C   UNL     1     -39.899 -47.245  12.133  1.00  0.00     0.002 C 
HETATM   22  C   UNL     1     -40.411 -48.679  11.977  1.00  0.00     0.025 C 
ENDBRANCH  14  16
ENDBRANCH   1  12
TORSDOF 4
ENDMDL
MODEL 9
REMARK VINA RESULT:      -5.4      2.909      3.777
REMARK  4 active torsions:
REMARK  status: ('A' for Active; 'I' for Inactive)
REMARK    1  A    between atoms: N_2  and  C_4 
REMARK    2  A    between atoms: N_9  and  C_10 
REMARK    3  A    between atoms: C_10  and  C_11 
REMARK       I    between atoms: C_11  and  N_13 
REMARK    4  A    between atoms: N_13  and  C_14 
ROOT
HETATM    1  C   UNL     1     -39.859 -51.486  14.850  1.00  0.00     0.234 C 
ENDROOT
BRANCH   1   2
HETATM    2  N   UNL     1     -39.283 -50.658  13.793  1.00  0.00    -0.314 N 
HETATM    3  C   UNL     1     -38.255 -51.207  13.027  1.00  0.00     0.247 A 
HETATM    4  C   UNL     1     -37.697 -50.328  11.961  1.00  0.00     0.077 A 
HETATM    5  O   UNL     1     -37.813 -52.342  13.176  1.00  0.00    -0.268 OA
HETATM    6  C   UNL     1     -38.222 -49.115  11.733  1.00  0.00     0.043 A 
HETATM    7  C   UNL     1     -39.329 -48.640  12.536  1.00  0.00     0.118 A 
HETATM    8  C   UNL     1     -39.818 -49.397  13.533  1.00  0.00     0.130 A 
BRANCH   7   9
HETATM    9  N   UNL     1     -39.939 -47.329  12.293  1.00  0.00    -0.114 N 
HETATM   10  O   UNL     1     -40.244 -47.061  11.122  1.00  0.00    -0.532 OA
HETATM   11  O   UNL     1     -40.112 -46.572  13.256  1.00  0.00    -0.532 OA
ENDBRANCH   7   9
ENDBRANCH   1   2
BRANCH   1  12
HETATM   12  C   UNL     1     -41.230 -52.022  14.438  1.00  0.00     0.236 C 
HETATM   13  O   UNL     1     -41.348 -52.868  13.554  1.00  0.00    -0.272 OA
HETATM   14  N   UNL     1     -42.297 -51.527  15.164  1.00  0.00    -0.355 N 
HETATM   15  H   UNL     1     -42.095 -51.076  16.054  1.00  0.00     0.162 HD
BRANCH  14  16
HETATM   16  C   UNL     1     -43.676 -51.937  14.879  1.00  0.00     0.084 C 
HETATM   17  C   UNL     1     -44.326 -50.950  13.894  1.00  0.00     0.025 C 
HETATM   18  C   UNL     1     -45.562 -51.531  13.205  1.00  0.00     0.002 C 
HETATM   19  C   UNL     1     -46.879 -51.364  13.959  1.00  0.00     0.000 C 
HETATM   20  C   UNL     1     -46.833 -51.495  15.476  1.00  0.00     0.000 C 
HETATM   21  C   UNL     1     -45.909 -52.587  16.004  1.00  0.00     0.002 C 
HETATM   22  C   UNL     1     -44.464 -52.113  16.183  1.00  0.00     0.025 C 
ENDBRANCH  14  16
ENDBRANCH   1  12
TORSDOF 4
ENDMDL
