MODEL 1
REMARK VINA RESULT:      -6.6      0.000      0.000
REMARK  5 active torsions:
REMARK  status: ('A' for Active; 'I' for Inactive)
REMARK    1  A    between atoms: C_2  and  C_4 
REMARK    2  A    between atoms: C_9  and  N_10 
REMARK       I    between atoms: N_10  and  C_11 
REMARK       I    between atoms: C_11  and  N_13 
REMARK    3  A    between atoms: N_13  and  C_14 
REMARK    4  A    between atoms: C_14  and  C_15 
REMARK    5  A    between atoms: C_15  and  N_16 
ROOT
HETATM    1  N   UNL     1     -41.696 -50.426  11.490  1.00  0.00    -0.288 N 
HETATM    2  C   UNL     1     -40.668 -49.599  11.161  1.00  0.00     0.322 C 
HETATM    3  O   UNL     1     -39.469 -49.845  11.235  1.00  0.00    -0.247 OA
HETATM    4  N   UNL     1     -41.025 -48.373  10.678  1.00  0.00    -0.341 N 
HETATM    5  H   UNL     1     -42.643 -50.201  11.243  1.00  0.00     0.172 HD
HETATM    6  H   UNL     1     -40.217 -47.819  10.414  1.00  0.00     0.164 HD
ENDROOT
BRANCH   1   7
HETATM    7  C   UNL     1     -41.475 -51.696  11.944  1.00  0.00     0.169 A 
HETATM    8  N   UNL     1     -41.015 -52.753  11.321  1.00  0.00    -0.279 N 
HETATM    9  N   UNL     1     -41.003 -53.864  12.134  1.00  0.00    -0.296 N 
ATOM     10  HN  UNL     1     -40.704 -52.753  10.350  1.00  0.00     0.189 HD
HETATM   11  C   UNL     1     -41.493 -53.609  13.331  1.00  0.00     0.073 A 
ATOM     12  HN  UNL     1     -40.656 -54.778  11.844  1.00  0.00     0.187 HD
HETATM   13  S   UNL     1     -41.904 -51.956  13.576  1.00  0.00    -0.037 SA
BRANCH  11  14
HETATM   14  C   UNL     1     -41.717 -54.646  14.392  1.00  0.00     0.036 C 
HETATM   15  C   UNL     1     -40.960 -54.256  15.664  1.00  0.00     0.016 C 
HETATM   16  C   UNL     1     -43.208 -54.804  14.684  1.00  0.00     0.016 C 
ENDBRANCH  11  14
ENDBRANCH   1   7
BRANCH   4  17
HETATM   17  C   UNL     1     -42.343 -47.815  10.458  1.00  0.00     0.154 C 
BRANCH  17  18
HETATM   18  C   UNL     1     -42.321 -46.469   9.706  1.00  0.00     0.292 C 
BRANCH  18  19
HETATM   19  N   UNL     1     -43.357 -46.422   8.663  1.00  0.00     0.096 N 
HETATM   20  C   UNL     1     -44.545 -45.639   9.072  1.00  0.00     0.300 A 
HETATM   21  C   UNL     1     -45.704 -46.553   8.934  1.00  0.00     0.001 A 
HETATM   22  C   UNL     1     -45.309 -47.750   8.504  1.00  0.00     0.001 A 
HETATM   23  C   UNL     1     -43.835 -47.771   8.288  1.00  0.00     0.300 A 
ENDBRANCH  18  19
ENDBRANCH  17  18
ENDBRANCH   4  17
TORSDOF 5
ENDMDL
MODEL 2
REMARK VINA RESULT:      -6.3      3.285      6.608
REMARK  5 active torsions:
REMARK  status: ('A' for Active; 'I' for Inactive)
REMARK    1  A    between atoms: C_2  and  C_4 
REMARK    2  A    between atoms: C_9  and  N_10 
REMARK       I    between atoms: N_10  and  C_11 
REMARK       I    between atoms: C_11  and  N_13 
REMARK    3  A    between atoms: N_13  and  C_14 
REMARK    4  A    between atoms: C_14  and  C_15 
REMARK    5  A    between atoms: C_15  and  N_16 
ROOT
HETATM    1  N   UNL     1     -42.070 -51.452  11.858  1.00  0.00    -0.288 N 
HETATM    2  C   UNL     1     -41.434 -52.590  12.244  1.00  0.00     0.322 C 
HETATM    3  O   UNL     1     -40.227 -52.748  12.390  1.00  0.00    -0.247 OA
HETATM    4  N   UNL     1     -42.240 -53.657  12.515  1.00  0.00    -0.341 N 
HETATM    5  H   UNL     1     -43.069 -51.368  11.923  1.00  0.00     0.172 HD
HETATM    6  H   UNL     1     -41.711 -54.462  12.835  1.00  0.00     0.164 HD
ENDROOT
BRANCH   1   7
HETATM    7  C   UNL     1     -41.382 -50.300  11.599  1.00  0.00     0.169 A 
HETATM    8  N   UNL     1     -40.295 -50.100  10.895  1.00  0.00    -0.279 N 
HETATM    9  N   UNL     1     -39.891 -48.785  10.936  1.00  0.00    -0.296 N 
ATOM     10  HN  UNL     1     -39.807 -50.832  10.379  1.00  0.00     0.189 HD
HETATM   11  C   UNL     1     -40.670 -48.050  11.704  1.00  0.00     0.073 A 
ATOM     12  HN  UNL     1     -39.084 -48.421  10.430  1.00  0.00     0.187 HD
HETATM   13  S   UNL     1     -42.019 -48.903  12.346  1.00  0.00    -0.037 SA
BRANCH  11  14
HETATM   14  C   UNL     1     -40.414 -46.610  12.038  1.00  0.00     0.036 C 
HETATM   15  C   UNL     1     -39.367 -46.515  13.151  1.00  0.00     0.016 C 
HETATM   16  C   UNL     1     -39.949 -45.845  10.799  1.00  0.00     0.016 C 
ENDBRANCH  11  14
ENDBRANCH   1   7
BRANCH   4  17
HETATM   17  C   UNL     1     -43.684 -53.763  12.456  1.00  0.00     0.154 C 
BRANCH  17  18
HETATM   18  C   UNL     1     -44.335 -54.039  13.827  1.00  0.00     0.292 C 
BRANCH  18  19
HETATM   19  N   UNL     1     -45.731 -53.577  13.858  1.00  0.00     0.096 N 
HETATM   20  C   UNL     1     -46.050 -52.647  12.751  1.00  0.00     0.300 A 
HETATM   21  C   UNL     1     -46.560 -51.411  13.390  1.00  0.00     0.001 A 
HETATM   22  C   UNL     1     -46.560 -51.534  14.717  1.00  0.00     0.001 A 
HETATM   23  C   UNL     1     -46.063 -52.879  15.120  1.00  0.00     0.300 A 
ENDBRANCH  18  19
ENDBRANCH  17  18
ENDBRANCH   4  17
TORSDOF 5
ENDMDL
MODEL 3
REMARK VINA RESULT:      -6.2      2.891      6.546
REMARK  5 active torsions:
REMARK  status: ('A' for Active; 'I' for Inactive)
REMARK    1  A    between atoms: C_2  and  C_4 
REMARK    2  A    between atoms: C_9  and  N_10 
REMARK       I    between atoms: N_10  and  C_11 
REMARK       I    between atoms: C_11  and  N_13 
REMARK    3  A    between atoms: N_13  and  C_14 
REMARK    4  A    between atoms: C_14  and  C_15 
REMARK    5  A    between atoms: C_15  and  N_16 
ROOT
HETATM    1  N   UNL     1     -42.185 -52.083  12.804  1.00  0.00    -0.288 N 
HETATM    2  C   UNL     1     -41.631 -53.312  12.986  1.00  0.00     0.322 C 
HETATM    3  O   UNL     1     -40.554 -53.707  12.553  1.00  0.00    -0.247 OA
HETATM    4  N   UNL     1     -42.352 -54.180  13.752  1.00  0.00    -0.341 N 
HETATM    5  H   UNL     1     -42.991 -51.794  13.329  1.00  0.00     0.172 HD
HETATM    6  H   UNL     1     -41.869 -55.063  13.883  1.00  0.00     0.164 HD
ENDROOT
BRANCH   1   7
HETATM    7  C   UNL     1     -41.544 -51.107  12.093  1.00  0.00     0.169 A 
HETATM    8  N   UNL     1     -40.812 -51.188  11.010  1.00  0.00    -0.279 N 
HETATM    9  N   UNL     1     -40.296 -49.964  10.647  1.00  0.00    -0.296 N 
ATOM     10  HN  UNL     1     -40.645 -52.053  10.497  1.00  0.00     0.189 HD
HETATM   11  C   UNL     1     -40.628 -49.013  11.497  1.00  0.00     0.073 A 
ATOM     12  HN  UNL     1     -39.723 -49.811   9.817  1.00  0.00     0.187 HD
HETATM   13  S   UNL     1     -41.689 -49.536  12.746  1.00  0.00    -0.037 SA
BRANCH  11  14
HETATM   14  C   UNL     1     -40.118 -47.603  11.431  1.00  0.00     0.036 C 
HETATM   15  C   UNL     1     -41.165 -46.705  10.768  1.00  0.00     0.016 C 
HETATM   16  C   UNL     1     -39.778 -47.088  12.828  1.00  0.00     0.016 C 
ENDBRANCH  11  14
ENDBRANCH   1   7
BRANCH   4  17
HETATM   17  C   UNL     1     -43.629 -53.990  14.410  1.00  0.00     0.154 C 
BRANCH  17  18
HETATM   18  C   UNL     1     -44.814 -54.604  13.636  1.00  0.00     0.292 C 
BRANCH  18  19
HETATM   19  N   UNL     1     -45.963 -53.687  13.605  1.00  0.00     0.096 N 
HETATM   20  C   UNL     1     -45.844 -52.655  12.550  1.00  0.00     0.300 A 
HETATM   21  C   UNL     1     -45.953 -51.349  13.242  1.00  0.00     0.001 A 
HETATM   22  C   UNL     1     -46.114 -51.524  14.553  1.00  0.00     0.001 A 
HETATM   23  C   UNL     1     -46.146 -52.975  14.889  1.00  0.00     0.300 A 
ENDBRANCH  18  19
ENDBRANCH  17  18
ENDBRANCH   4  17
TORSDOF 5
ENDMDL
MODEL 4
REMARK VINA RESULT:      -6.1      1.824      2.878
REMARK  5 active torsions:
REMARK  status: ('A' for Active; 'I' for Inactive)
REMARK    1  A    between atoms: C_2  and  C_4 
REMARK    2  A    between atoms: C_9  and  N_10 
REMARK       I    between atoms: N_10  and  C_11 
REMARK       I    between atoms: C_11  and  N_13 
REMARK    3  A    between atoms: N_13  and  C_14 
REMARK    4  A    between atoms: C_14  and  C_15 
REMARK    5  A    between atoms: C_15  and  N_16 
ROOT
HETATM    1  N   UNL     1     -41.538 -50.709  11.480  1.00  0.00    -0.288 N 
HETATM    2  C   UNL     1     -40.448 -49.916  11.300  1.00  0.00     0.322 C 
HETATM    3  O   UNL     1     -39.285 -50.185  11.582  1.00  0.00    -0.247 OA
HETATM    4  N   UNL     1     -40.686 -48.703  10.722  1.00  0.00    -0.341 N 
HETATM    5  H   UNL     1     -42.424 -50.473  11.072  1.00  0.00     0.172 HD
HETATM    6  H   UNL     1     -39.830 -48.177  10.578  1.00  0.00     0.164 HD
ENDROOT
BRANCH   1   7
HETATM    7  C   UNL     1     -41.430 -51.965  12.009  1.00  0.00     0.169 A 
HETATM    8  N   UNL     1     -40.847 -53.038  11.535  1.00  0.00    -0.279 N 
HETATM    9  N   UNL     1     -41.023 -54.125  12.362  1.00  0.00    -0.296 N 
ATOM     10  HN  UNL     1     -40.327 -53.066  10.659  1.00  0.00     0.189 HD
HETATM   11  C   UNL     1     -41.767 -53.836  13.411  1.00  0.00     0.073 A 
ATOM     12  HN  UNL     1     -40.624 -55.046  12.184  1.00  0.00     0.187 HD
HETATM   13  S   UNL     1     -42.215 -52.178  13.511  1.00  0.00    -0.037 SA
BRANCH  11  14
HETATM   14  C   UNL     1     -42.227 -54.842  14.424  1.00  0.00     0.036 C 
HETATM   15  C   UNL     1     -41.514 -54.598  15.757  1.00  0.00     0.016 C 
HETATM   16  C   UNL     1     -43.742 -54.767  14.607  1.00  0.00     0.016 C 
ENDBRANCH  11  14
ENDBRANCH   1   7
BRANCH   4  17
HETATM   17  C   UNL     1     -41.934 -48.127  10.265  1.00  0.00     0.154 C 
BRANCH  17  18
HETATM   18  C   UNL     1     -41.959 -46.586  10.335  1.00  0.00     0.292 C 
BRANCH  18  19
HETATM   19  N   UNL     1     -40.806 -46.067  11.086  1.00  0.00     0.096 N 
HETATM   20  C   UNL     1     -41.195 -45.433  12.366  1.00  0.00     0.300 A 
HETATM   21  C   UNL     1     -40.657 -44.053  12.319  1.00  0.00     0.001 A 
HETATM   22  C   UNL     1     -40.019 -43.837  11.170  1.00  0.00     0.001 A 
HETATM   23  C   UNL     1     -40.044 -45.058  10.317  1.00  0.00     0.300 A 
ENDBRANCH  18  19
ENDBRANCH  17  18
ENDBRANCH   4  17
TORSDOF 5
ENDMDL
MODEL 5
REMARK VINA RESULT:      -5.9      3.139      4.166
REMARK  5 active torsions:
REMARK  status: ('A' for Active; 'I' for Inactive)
REMARK    1  A    between atoms: C_2  and  C_4 
REMARK    2  A    between atoms: C_9  and  N_10 
REMARK       I    between atoms: N_10  and  C_11 
REMARK       I    between atoms: C_11  and  N_13 
REMARK    3  A    between atoms: N_13  and  C_14 
REMARK    4  A    between atoms: C_14  and  C_15 
REMARK    5  A    between atoms: C_15  and  N_16 
ROOT
HETATM    1  N   UNL     1     -41.982 -51.290  12.064  1.00  0.00    -0.288 N 
HETATM    2  C   UNL     1     -40.739 -51.841  12.041  1.00  0.00     0.322 C 
HETATM    3  O   UNL     1     -40.439 -52.999  12.312  1.00  0.00    -0.247 OA
HETATM    4  N   UNL     1     -39.729 -51.010  11.650  1.00  0.00    -0.341 N 
HETATM    5  H   UNL     1     -42.155 -50.383  11.670  1.00  0.00     0.172 HD
HETATM    6  H   UNL     1     -38.835 -51.489  11.615  1.00  0.00     0.164 HD
ENDROOT
BRANCH   1   7
HETATM    7  C   UNL     1     -43.085 -52.027  12.395  1.00  0.00     0.169 A 
HETATM    8  N   UNL     1     -43.480 -53.201  11.970  1.00  0.00    -0.279 N 
HETATM    9  N   UNL     1     -44.692 -53.563  12.516  1.00  0.00    -0.296 N 
ATOM     10  HN  UNL     1     -42.955 -53.778  11.314  1.00  0.00     0.189 HD
HETATM   11  C   UNL     1     -45.181 -52.626  13.303  1.00  0.00     0.073 A 
ATOM     12  HN  UNL     1     -45.156 -54.452  12.333  1.00  0.00     0.187 HD
HETATM   13  S   UNL     1     -44.135 -51.276  13.513  1.00  0.00    -0.037 SA
BRANCH  11  14
HETATM   14  C   UNL     1     -46.537 -52.683  13.944  1.00  0.00     0.036 C 
HETATM   15  C   UNL     1     -46.634 -53.922  14.838  1.00  0.00     0.016 C 
HETATM   16  C   UNL     1     -46.803 -51.416  14.755  1.00  0.00     0.016 C 
ENDBRANCH  11  14
ENDBRANCH   1   7
BRANCH   4  17
HETATM   17  C   UNL     1     -39.781 -49.619  11.251  1.00  0.00     0.154 C 
BRANCH  17  18
HETATM   18  C   UNL     1     -39.480 -48.639  12.404  1.00  0.00     0.292 C 
BRANCH  18  19
HETATM   19  N   UNL     1     -40.431 -47.518  12.413  1.00  0.00     0.096 N 
HETATM   20  C   UNL     1     -41.293 -47.488  11.209  1.00  0.00     0.300 A 
HETATM   21  C   UNL     1     -41.093 -46.153  10.597  1.00  0.00     0.001 A 
HETATM   22  C   UNL     1     -40.224 -45.435  11.308  1.00  0.00     0.001 A 
HETATM   23  C   UNL     1     -39.751 -46.206  12.492  1.00  0.00     0.300 A 
ENDBRANCH  18  19
ENDBRANCH  17  18
ENDBRANCH   4  17
TORSDOF 5
ENDMDL
MODEL 6
REMARK VINA RESULT:      -5.6      2.487      7.482
REMARK  5 active torsions:
REMARK  status: ('A' for Active; 'I' for Inactive)
REMARK    1  A    between atoms: C_2  and  C_4 
REMARK    2  A    between atoms: C_9  and  N_10 
REMARK       I    between atoms: N_10  and  C_11 
REMARK       I    between atoms: C_11  and  N_13 
REMARK    3  A    between atoms: N_13  and  C_14 
REMARK    4  A    between atoms: C_14  and  C_15 
REMARK    5  A    between atoms: C_15  and  N_16 
ROOT
HETATM    1  N   UNL     1     -41.876 -49.583  11.316  1.00  0.00    -0.288 N 
HETATM    2  C   UNL     1     -40.750 -50.343  11.366  1.00  0.00     0.322 C 
HETATM    3  O   UNL     1     -39.603 -49.980  11.127  1.00  0.00    -0.247 OA
HETATM    4  N   UNL     1     -40.927 -51.642  11.745  1.00  0.00    -0.341 N 
HETATM    5  H   UNL     1     -42.747 -49.921  11.684  1.00  0.00     0.172 HD
HETATM    6  H   UNL     1     -40.047 -52.144  11.801  1.00  0.00     0.164 HD
ENDROOT
BRANCH   1   7
HETATM    7  C   UNL     1     -41.830 -48.256  10.992  1.00  0.00     0.169 A 
HETATM    8  N   UNL     1     -41.678 -47.669   9.831  1.00  0.00    -0.279 N 
HETATM    9  N   UNL     1     -41.626 -46.299   9.950  1.00  0.00    -0.296 N 
ATOM     10  HN  UNL     1     -41.606 -48.168   8.945  1.00  0.00     0.189 HD
HETATM   11  C   UNL     1     -41.702 -45.907  11.206  1.00  0.00     0.073 A 
ATOM     12  HN  UNL     1     -41.540 -45.661   9.159  1.00  0.00     0.187 HD
HETATM   13  S   UNL     1     -41.950 -47.192  12.323  1.00  0.00    -0.037 SA
BRANCH  11  14
HETATM   14  C   UNL     1     -41.554 -44.484  11.659  1.00  0.00     0.036 C 
HETATM   15  C   UNL     1     -40.198 -43.935  11.206  1.00  0.00     0.016 C 
HETATM   16  C   UNL     1     -42.690 -43.623  11.109  1.00  0.00     0.016 C 
ENDBRANCH  11  14
ENDBRANCH   1   7
BRANCH   4  17
HETATM   17  C   UNL     1     -42.143 -52.340  12.108  1.00  0.00     0.154 C 
BRANCH  17  18
HETATM   18  C   UNL     1     -41.971 -53.281  13.318  1.00  0.00     0.292 C 
BRANCH  18  19
HETATM   19  N   UNL     1     -43.204 -53.355  14.116  1.00  0.00     0.096 N 
HETATM   20  C   UNL     1     -43.568 -54.743  14.480  1.00  0.00     0.300 A 
HETATM   21  C   UNL     1     -44.942 -54.953  13.968  1.00  0.00     0.001 A 
HETATM   22  C   UNL     1     -45.389 -53.856  13.359  1.00  0.00     0.001 A 
HETATM   23  C   UNL     1     -44.366 -52.775  13.407  1.00  0.00     0.300 A 
ENDBRANCH  18  19
ENDBRANCH  17  18
ENDBRANCH   4  17
TORSDOF 5
ENDMDL
MODEL 7
REMARK VINA RESULT:      -5.5      3.631      5.052
REMARK  5 active torsions:
REMARK  status: ('A' for Active; 'I' for Inactive)
REMARK    1  A    between atoms: C_2  and  C_4 
REMARK    2  A    between atoms: C_9  and  N_10 
REMARK       I    between atoms: N_10  and  C_11 
REMARK       I    between atoms: C_11  and  N_13 
REMARK    3  A    between atoms: N_13  and  C_14 
REMARK    4  A    between atoms: C_14  and  C_15 
REMARK    5  A    between atoms: C_15  and  N_16 
ROOT
HETATM    1  N   UNL     1     -42.433 -51.513  12.167  1.00  0.00    -0.288 N 
HETATM    2  C   UNL     1     -41.154 -51.847  11.850  1.00  0.00     0.322 C 
HETATM    3  O   UNL     1     -40.626 -52.947  11.974  1.00  0.00    -0.247 OA
HETATM    4  N   UNL     1     -40.393 -50.846  11.319  1.00  0.00    -0.341 N 
HETATM    5  H   UNL     1     -42.825 -50.634  11.881  1.00  0.00     0.172 HD
HETATM    6  H   UNL     1     -39.464 -51.167  11.068  1.00  0.00     0.164 HD
ENDROOT
BRANCH   1   7
HETATM    7  C   UNL     1     -43.311 -52.434  12.666  1.00  0.00     0.169 A 
HETATM    8  N   UNL     1     -43.705 -53.583  12.176  1.00  0.00    -0.279 N 
HETATM    9  N   UNL     1     -44.656 -54.181  12.972  1.00  0.00    -0.296 N 
ATOM     10  HN  UNL     1     -43.351 -53.986  11.309  1.00  0.00     0.189 HD
HETATM   11  C   UNL     1     -44.970 -53.437  14.014  1.00  0.00     0.073 A 
ATOM     12  HN  UNL     1     -45.068 -55.093  12.779  1.00  0.00     0.187 HD
HETATM   13  S   UNL     1     -44.040 -51.996  14.147  1.00  0.00    -0.037 SA
BRANCH  11  14
HETATM   14  C   UNL     1     -46.058 -53.770  14.994  1.00  0.00     0.036 C 
HETATM   15  C   UNL     1     -45.465 -53.903  16.399  1.00  0.00     0.016 C 
HETATM   16  C   UNL     1     -47.148 -52.700  14.972  1.00  0.00     0.016 C 
ENDBRANCH  11  14
ENDBRANCH   1   7
BRANCH   4  17
HETATM   17  C   UNL     1     -40.745 -49.470  11.036  1.00  0.00     0.154 C 
BRANCH  17  18
HETATM   18  C   UNL     1     -39.765 -48.448  11.649  1.00  0.00     0.292 C 
BRANCH  18  19
HETATM   19  N   UNL     1     -39.379 -48.833  13.015  1.00  0.00     0.096 N 
HETATM   20  C   UNL     1     -39.778 -47.828  14.027  1.00  0.00     0.300 A 
HETATM   21  C   UNL     1     -38.534 -47.446  14.735  1.00  0.00     0.001 A 
HETATM   22  C   UNL     1     -37.490 -48.109  14.242  1.00  0.00     0.001 A 
HETATM   23  C   UNL     1     -37.919 -49.027  13.151  1.00  0.00     0.300 A 
ENDBRANCH  18  19
ENDBRANCH  17  18
ENDBRANCH   4  17
TORSDOF 5
ENDMDL
MODEL 8
REMARK VINA RESULT:      -5.4      3.405      4.422
REMARK  5 active torsions:
REMARK  status: ('A' for Active; 'I' for Inactive)
REMARK    1  A    between atoms: C_2  and  C_4 
REMARK    2  A    between atoms: C_9  and  N_10 
REMARK       I    between atoms: N_10  and  C_11 
REMARK       I    between atoms: C_11  and  N_13 
REMARK    3  A    between atoms: N_13  and  C_14 
REMARK    4  A    between atoms: C_14  and  C_15 
REMARK    5  A    between atoms: C_15  and  N_16 
ROOT
HETATM    1  N   UNL     1     -40.180 -48.354  11.297  1.00  0.00    -0.288 N 
HETATM    2  C   UNL     1     -41.156 -47.696  10.618  1.00  0.00     0.322 C 
HETATM    3  O   UNL     1     -42.173 -48.181  10.132  1.00  0.00    -0.247 OA
HETATM    4  N   UNL     1     -40.984 -46.349  10.489  1.00  0.00    -0.341 N 
HETATM    5  H   UNL     1     -39.468 -47.853  11.798  1.00  0.00     0.172 HD
HETATM    6  H   UNL     1     -41.763 -45.910  10.009  1.00  0.00     0.164 HD
ENDROOT
BRANCH   1   7
HETATM    7  C   UNL     1     -40.253 -49.699  11.533  1.00  0.00     0.169 A 
HETATM    8  N   UNL     1     -40.712 -50.669  10.781  1.00  0.00    -0.279 N 
HETATM    9  N   UNL     1     -40.659 -51.885  11.424  1.00  0.00    -0.296 N 
ATOM     10  HN  UNL     1     -41.067 -50.538   9.834  1.00  0.00     0.189 HD
HETATM   11  C   UNL     1     -40.196 -51.777  12.653  1.00  0.00     0.073 A 
ATOM     12  HN  UNL     1     -40.943 -52.767  10.998  1.00  0.00     0.187 HD
HETATM   13  S   UNL     1     -39.693 -50.186  13.071  1.00  0.00    -0.037 SA
BRANCH  11  14
HETATM   14  C   UNL     1     -40.134 -52.910  13.636  1.00  0.00     0.036 C 
HETATM   15  C   UNL     1     -40.255 -52.365  15.061  1.00  0.00     0.016 C 
HETATM   16  C   UNL     1     -41.239 -53.927  13.356  1.00  0.00     0.016 C 
ENDBRANCH  11  14
ENDBRANCH   1   7
BRANCH   4  17
HETATM   17  C   UNL     1     -39.911 -45.504  10.972  1.00  0.00     0.154 C 
BRANCH  17  18
HETATM   18  C   UNL     1     -40.117 -44.009  10.654  1.00  0.00     0.292 C 
BRANCH  18  19
HETATM   19  N   UNL     1     -40.680 -43.291  11.808  1.00  0.00     0.096 N 
HETATM   20  C   UNL     1     -41.288 -41.993  11.433  1.00  0.00     0.300 A 
HETATM   21  C   UNL     1     -40.604 -40.969  12.257  1.00  0.00     0.001 A 
HETATM   22  C   UNL     1     -39.687 -41.532  13.042  1.00  0.00     0.001 A 
HETATM   23  C   UNL     1     -39.662 -43.009  12.844  1.00  0.00     0.300 A 
ENDBRANCH  18  19
ENDBRANCH  17  18
ENDBRANCH   4  17
TORSDOF 5
ENDMDL
MODEL 9
REMARK VINA RESULT:      -5.3      9.422     12.544
REMARK  5 active torsions:
REMARK  status: ('A' for Active; 'I' for Inactive)
REMARK    1  A    between atoms: C_2  and  C_4 
REMARK    2  A    between atoms: C_9  and  N_10 
REMARK       I    between atoms: N_10  and  C_11 
REMARK       I    between atoms: C_11  and  N_13 
REMARK    3  A    between atoms: N_13  and  C_14 
REMARK    4  A    between atoms: C_14  and  C_15 
REMARK    5  A    between atoms: C_15  and  N_16 
ROOT
HETATM    1  N   UNL     1     -33.817 -55.050  17.996  1.00  0.00    -0.288 N 
HETATM    2  C   UNL     1     -34.184 -56.194  17.360  1.00  0.00     0.322 C 
HETATM    3  O   UNL     1     -33.506 -56.853  16.578  1.00  0.00    -0.247 OA
HETATM    4  N   UNL     1     -35.434 -56.658  17.647  1.00  0.00    -0.341 N 
HETATM    5  H   UNL     1     -34.374 -54.669  18.741  1.00  0.00     0.172 HD
HETATM    6  H   UNL     1     -35.633 -57.533  17.173  1.00  0.00     0.164 HD
ENDROOT
BRANCH   1   7
HETATM    7  C   UNL     1     -32.575 -54.504  17.829  1.00  0.00     0.169 A 
HETATM    8  N   UNL     1     -31.883 -54.287  16.739  1.00  0.00    -0.279 N 
HETATM    9  N   UNL     1     -30.637 -53.769  17.016  1.00  0.00    -0.296 N 
ATOM     10  HN  UNL     1     -32.225 -54.478  15.798  1.00  0.00     0.189 HD
HETATM   11  C   UNL     1     -30.425 -53.653  18.311  1.00  0.00     0.073 A 
ATOM     12  HN  UNL     1     -29.959 -53.506  16.302  1.00  0.00     0.187 HD
HETATM   13  S   UNL     1     -31.783 -54.073  19.280  1.00  0.00    -0.037 SA
BRANCH  11  14
HETATM   14  C   UNL     1     -29.119 -53.232  18.920  1.00  0.00     0.036 C 
HETATM   15  C   UNL     1     -29.337 -52.010  19.816  1.00  0.00     0.016 C 
HETATM   16  C   UNL     1     -28.503 -54.379  19.719  1.00  0.00     0.016 C 
ENDBRANCH  11  14
ENDBRANCH   1   7
BRANCH   4  17
HETATM   17  C   UNL     1     -36.439 -56.114  18.537  1.00  0.00     0.154 C 
BRANCH  17  18
HETATM   18  C   UNL     1     -37.507 -55.269  17.812  1.00  0.00     0.292 C 
BRANCH  18  19
HETATM   19  N   UNL     1     -38.287 -56.087  16.871  1.00  0.00     0.096 N 
HETATM   20  C   UNL     1     -39.280 -55.295  16.110  1.00  0.00     0.300 A 
HETATM   21  C   UNL     1     -40.593 -55.930  16.368  1.00  0.00     0.001 A 
HETATM   22  C   UNL     1     -40.458 -56.976  17.182  1.00  0.00     0.001 A 
HETATM   23  C   UNL     1     -39.028 -57.172  17.552  1.00  0.00     0.300 A 
ENDBRANCH  18  19
ENDBRANCH  17  18
ENDBRANCH   4  17
TORSDOF 5
ENDMDL
