MODEL 1
REMARK VINA RESULT:      -6.4      0.000      0.000
REMARK  6 active torsions:
REMARK  status: ('A' for Active; 'I' for Inactive)
REMARK    1  A    between atoms: C_7  and  O_8 
REMARK    2  A    between atoms: O_8  and  C_9 
REMARK    3  A    between atoms: C_9  and  C_10 
REMARK    4  A    between atoms: C_10  and  O_11 
REMARK    5  A    between atoms: C_10  and  C_12 
REMARK    6  A    between atoms: C_12  and  N_13 
ROOT
HETATM    1  C   UNL     1     -39.973 -53.890  13.478  1.00  0.00     0.161 C 
ENDROOT
BRANCH   1   2
HETATM    2  C   UNL     1     -39.341 -52.620  14.070  1.00  0.00     0.209 C 
BRANCH   2   3
HETATM    3  O   UNL     1     -38.693 -51.902  13.017  1.00  0.00    -0.347 OA
BRANCH   3   4
HETATM    4  C   UNL     1     -39.077 -50.607  12.783  1.00  0.00     0.091 A 
HETATM    5  C   UNL     1     -38.392 -49.606  13.491  1.00  0.00     0.067 A 
HETATM    6  C   UNL     1     -38.709 -48.258  13.307  1.00  0.00     0.027 A 
HETATM    7 CL   UNL     1     -37.134 -49.993  14.613  1.00  0.00    -0.081 Cl
HETATM    8  C   UNL     1     -39.704 -47.891  12.402  1.00  0.00     0.008 A 
HETATM    9  C   UNL     1     -40.390 -48.871  11.678  1.00  0.00    -0.059 A 
HETATM   10  C   UNL     1     -41.447 -48.495  10.682  1.00  0.00     0.048 C 
HETATM   11  C   UNL     1     -40.080 -50.227  11.884  1.00  0.00     0.045 A 
ENDBRANCH   3   4
ENDBRANCH   2   3
ENDBRANCH   1   2
BRANCH   1  12
HETATM   12  O   UNL     1     -38.990 -54.910  13.278  1.00  0.00    -0.392 OA
HETATM   13  H   UNL     1     -38.387 -54.923  14.040  1.00  0.00     0.210 HD
ENDBRANCH   1  12
BRANCH   1  14
HETATM   14  C   UNL     1     -41.154 -54.434  14.311  1.00  0.00     0.166 C 
BRANCH  14  15
HETATM   15  N   UNL     1     -42.470 -53.988  13.847  1.00  0.00    -0.307 N 
HETATM   16  C   UNL     1     -42.571 -53.046  12.860  1.00  0.00     0.186 C 
HETATM   17  N   UNL     1     -43.674 -52.590  12.375  1.00  0.00    -0.355 N 
HETATM   18  C   UNL     1     -44.847 -53.081  12.897  1.00  0.00     0.017 C 
ATOM     19  HN  UNL     1     -43.677 -51.893  11.631  1.00  0.00     0.166 HD
HETATM   20  C   UNL     1     -46.093 -52.464  12.316  1.00  0.00     0.069 C 
HETATM   21  C   UNL     1     -44.900 -54.030  13.848  1.00  0.00     0.028 C 
HETATM   22  C   UNL     1     -46.134 -54.584  14.493  1.00  0.00     0.056 C 
HETATM   23  C   UNL     1     -43.609 -54.604  14.322  1.00  0.00     0.256 C 
HETATM   24  O   UNL     1     -43.605 -55.571  15.078  1.00  0.00    -0.267 OA
ENDBRANCH  14  15
ENDBRANCH   1  14
TORSDOF 6
ENDMDL
MODEL 2
REMARK VINA RESULT:      -6.4      1.321      2.215
REMARK  6 active torsions:
REMARK  status: ('A' for Active; 'I' for Inactive)
REMARK    1  A    between atoms: C_7  and  O_8 
REMARK    2  A    between atoms: O_8  and  C_9 
REMARK    3  A    between atoms: C_9  and  C_10 
REMARK    4  A    between atoms: C_10  and  O_11 
REMARK    5  A    between atoms: C_10  and  C_12 
REMARK    6  A    between atoms: C_12  and  N_13 
ROOT
HETATM    1  C   UNL     1     -39.879 -53.861  13.618  1.00  0.00     0.161 C 
ENDROOT
BRANCH   1   2
HETATM    2  C   UNL     1     -39.102 -52.745  14.336  1.00  0.00     0.209 C 
BRANCH   2   3
HETATM    3  O   UNL     1     -38.423 -51.960  13.353  1.00  0.00    -0.347 OA
BRANCH   3   4
HETATM    4  C   UNL     1     -38.308 -50.611  13.567  1.00  0.00     0.091 A 
HETATM    5  C   UNL     1     -39.151 -49.777  12.813  1.00  0.00     0.067 A 
HETATM    6  C   UNL     1     -39.109 -48.389  12.973  1.00  0.00     0.027 A 
HETATM    7 CL   UNL     1     -40.269 -50.423  11.663  1.00  0.00    -0.081 Cl
HETATM    8  C   UNL     1     -38.237 -47.817  13.899  1.00  0.00     0.008 A 
HETATM    9  C   UNL     1     -37.398 -48.631  14.667  1.00  0.00    -0.059 A 
HETATM   10  C   UNL     1     -36.470 -48.036  15.685  1.00  0.00     0.048 C 
HETATM   11  C   UNL     1     -37.431 -50.025  14.486  1.00  0.00     0.045 A 
ENDBRANCH   3   4
ENDBRANCH   2   3
ENDBRANCH   1   2
BRANCH   1  12
HETATM   12  O   UNL     1     -39.009 -54.930  13.235  1.00  0.00    -0.392 OA
HETATM   13  H   UNL     1     -39.408 -55.414  12.493  1.00  0.00     0.210 HD
ENDBRANCH   1  12
BRANCH   1  14
HETATM   14  C   UNL     1     -41.073 -54.402  14.433  1.00  0.00     0.166 C 
BRANCH  14  15
HETATM   15  N   UNL     1     -42.382 -53.978  13.931  1.00  0.00    -0.307 N 
HETATM   16  C   UNL     1     -42.471 -53.023  12.956  1.00  0.00     0.186 C 
HETATM   17  N   UNL     1     -43.568 -52.585  12.439  1.00  0.00    -0.355 N 
HETATM   18  C   UNL     1     -44.746 -53.110  12.913  1.00  0.00     0.017 C 
ATOM     19  HN  UNL     1     -43.561 -51.875  11.707  1.00  0.00     0.166 HD
HETATM   20  C   UNL     1     -45.985 -52.513  12.298  1.00  0.00     0.069 C 
HETATM   21  C   UNL     1     -44.809 -54.076  13.846  1.00  0.00     0.028 C 
HETATM   22  C   UNL     1     -46.051 -54.668  14.440  1.00  0.00     0.056 C 
HETATM   23  C   UNL     1     -43.522 -54.627  14.357  1.00  0.00     0.256 C 
HETATM   24  O   UNL     1     -43.522 -55.607  15.097  1.00  0.00    -0.267 OA
ENDBRANCH  14  15
ENDBRANCH   1  14
TORSDOF 6
ENDMDL
MODEL 3
REMARK VINA RESULT:      -6.3      2.533      6.148
REMARK  6 active torsions:
REMARK  status: ('A' for Active; 'I' for Inactive)
REMARK    1  A    between atoms: C_7  and  O_8 
REMARK    2  A    between atoms: O_8  and  C_9 
REMARK    3  A    between atoms: C_9  and  C_10 
REMARK    4  A    between atoms: C_10  and  O_11 
REMARK    5  A    between atoms: C_10  and  C_12 
REMARK    6  A    between atoms: C_12  and  N_13 
ROOT
HETATM    1  C   UNL     1     -42.339 -54.228  14.677  1.00  0.00     0.161 C 
ENDROOT
BRANCH   1   2
HETATM    2  C   UNL     1     -43.549 -55.159  14.497  1.00  0.00     0.209 C 
BRANCH   2   3
HETATM    3  O   UNL     1     -44.585 -54.734  15.387  1.00  0.00    -0.347 OA
BRANCH   3   4
HETATM    4  C   UNL     1     -45.335 -53.643  15.036  1.00  0.00     0.091 A 
HETATM    5  C   UNL     1     -45.751 -52.799  16.078  1.00  0.00     0.067 A 
HETATM    6  C   UNL     1     -46.511 -51.656  15.812  1.00  0.00     0.027 A 
HETATM    7 CL   UNL     1     -45.345 -53.132  17.726  1.00  0.00    -0.081 Cl
HETATM    8  C   UNL     1     -46.851 -51.334  14.499  1.00  0.00     0.008 A 
HETATM    9  C   UNL     1     -46.436 -52.154  13.445  1.00  0.00    -0.059 A 
HETATM   10  C   UNL     1     -46.772 -51.811  12.023  1.00  0.00     0.048 C 
HETATM   11  C   UNL     1     -45.690 -53.313  13.723  1.00  0.00     0.045 A 
ENDBRANCH   3   4
ENDBRANCH   2   3
ENDBRANCH   1   2
BRANCH   1  12
HETATM   12  O   UNL     1     -41.592 -54.575  15.847  1.00  0.00    -0.392 OA
HETATM   13  H   UNL     1     -41.675 -53.861  16.499  1.00  0.00     0.210 HD
ENDBRANCH   1  12
BRANCH   1  14
HETATM   14  C   UNL     1     -41.414 -54.177  13.441  1.00  0.00     0.166 C 
BRANCH  14  15
HETATM   15  N   UNL     1     -41.228 -52.833  12.889  1.00  0.00    -0.307 N 
HETATM   16  C   UNL     1     -42.303 -52.114  12.443  1.00  0.00     0.186 C 
HETATM   17  N   UNL     1     -42.253 -50.926  11.948  1.00  0.00    -0.355 N 
HETATM   18  C   UNL     1     -41.017 -50.333  11.848  1.00  0.00     0.017 C 
ATOM     19  HN  UNL     1     -43.098 -50.444  11.642  1.00  0.00     0.166 HD
HETATM   20  C   UNL     1     -41.033 -48.967  11.213  1.00  0.00     0.069 C 
HETATM   21  C   UNL     1     -39.878 -50.907  12.273  1.00  0.00     0.028 C 
HETATM   22  C   UNL     1     -38.495 -50.343  12.161  1.00  0.00     0.056 C 
HETATM   23  C   UNL     1     -39.982 -52.243  12.926  1.00  0.00     0.256 C 
HETATM   24  O   UNL     1     -38.998 -52.745  13.462  1.00  0.00    -0.267 OA
ENDBRANCH  14  15
ENDBRANCH   1  14
TORSDOF 6
ENDMDL
MODEL 4
REMARK VINA RESULT:      -6.3      3.298      5.388
REMARK  6 active torsions:
REMARK  status: ('A' for Active; 'I' for Inactive)
REMARK    1  A    between atoms: C_7  and  O_8 
REMARK    2  A    between atoms: O_8  and  C_9 
REMARK    3  A    between atoms: C_9  and  C_10 
REMARK    4  A    between atoms: C_10  and  O_11 
REMARK    5  A    between atoms: C_10  and  C_12 
REMARK    6  A    between atoms: C_12  and  N_13 
ROOT
HETATM    1  C   UNL     1     -46.468 -54.574  14.695  1.00  0.00     0.161 C 
ENDROOT
BRANCH   1   2
HETATM    2  C   UNL     1     -46.712 -53.076  14.451  1.00  0.00     0.209 C 
BRANCH   2   3
HETATM    3  O   UNL     1     -46.306 -52.353  15.615  1.00  0.00    -0.347 OA
BRANCH   3   4
HETATM    4  C   UNL     1     -45.096 -51.711  15.592  1.00  0.00     0.091 A 
HETATM    5  C   UNL     1     -44.181 -52.046  16.604  1.00  0.00     0.067 A 
HETATM    6  C   UNL     1     -42.919 -51.448  16.651  1.00  0.00     0.027 A 
HETATM    7 CL   UNL     1     -44.571 -53.206  17.826  1.00  0.00    -0.081 Cl
HETATM    8  C   UNL     1     -42.548 -50.519  15.680  1.00  0.00     0.008 A 
HETATM    9  C   UNL     1     -43.440 -50.180  14.657  1.00  0.00    -0.059 A 
HETATM   10  C   UNL     1     -43.050 -49.200  13.589  1.00  0.00     0.048 C 
HETATM   11  C   UNL     1     -44.716 -50.770  14.628  1.00  0.00     0.045 A 
ENDBRANCH   3   4
ENDBRANCH   2   3
ENDBRANCH   1   2
BRANCH   1  12
HETATM   12  O   UNL     1     -47.704 -55.290  14.776  1.00  0.00    -0.392 OA
HETATM   13  H   UNL     1     -47.871 -55.530  15.703  1.00  0.00     0.210 HD
ENDBRANCH   1  12
BRANCH   1  14
HETATM   14  C   UNL     1     -45.535 -55.223  13.650  1.00  0.00     0.166 C 
BRANCH  14  15
HETATM   15  N   UNL     1     -44.287 -54.492  13.426  1.00  0.00    -0.307 N 
HETATM   16  C   UNL     1     -44.189 -53.590  12.401  1.00  0.00     0.186 C 
HETATM   17  N   UNL     1     -43.144 -52.890  12.120  1.00  0.00    -0.355 N 
HETATM   18  C   UNL     1     -42.031 -53.069  12.906  1.00  0.00     0.017 C 
ATOM     19  HN  UNL     1     -43.144 -52.229  11.344  1.00  0.00     0.166 HD
HETATM   20  C   UNL     1     -40.836 -52.255  12.485  1.00  0.00     0.069 C 
HETATM   21  C   UNL     1     -41.992 -53.897  13.965  1.00  0.00     0.028 C 
HETATM   22  C   UNL     1     -40.809 -54.175  14.841  1.00  0.00     0.056 C 
HETATM   23  C   UNL     1     -43.244 -54.623  14.320  1.00  0.00     0.256 C 
HETATM   24  O   UNL     1     -43.306 -55.275  15.358  1.00  0.00    -0.267 OA
ENDBRANCH  14  15
ENDBRANCH   1  14
TORSDOF 6
ENDMDL
MODEL 5
REMARK VINA RESULT:      -6.2      3.316      5.731
REMARK  6 active torsions:
REMARK  status: ('A' for Active; 'I' for Inactive)
REMARK    1  A    between atoms: C_7  and  O_8 
REMARK    2  A    between atoms: O_8  and  C_9 
REMARK    3  A    between atoms: C_9  and  C_10 
REMARK    4  A    between atoms: C_10  and  O_11 
REMARK    5  A    between atoms: C_10  and  C_12 
REMARK    6  A    between atoms: C_12  and  N_13 
ROOT
HETATM    1  C   UNL     1     -41.094 -51.548  11.982  1.00  0.00     0.161 C 
ENDROOT
BRANCH   1   2
HETATM    2  C   UNL     1     -40.284 -52.285  13.060  1.00  0.00     0.209 C 
BRANCH   2   3
HETATM    3  O   UNL     1     -38.908 -51.920  12.924  1.00  0.00    -0.347 OA
BRANCH   3   4
HETATM    4  C   UNL     1     -38.418 -50.926  13.731  1.00  0.00     0.091 A 
HETATM    5  C   UNL     1     -37.846 -49.815  13.090  1.00  0.00     0.067 A 
HETATM    6  C   UNL     1     -37.331 -48.749  13.833  1.00  0.00     0.027 A 
HETATM    7 CL   UNL     1     -37.758 -49.713  11.365  1.00  0.00    -0.081 Cl
HETATM    8  C   UNL     1     -37.392 -48.774  15.226  1.00  0.00     0.008 A 
HETATM    9  C   UNL     1     -37.968 -49.866  15.883  1.00  0.00    -0.059 A 
HETATM   10  C   UNL     1     -38.065 -49.900  17.380  1.00  0.00     0.048 C 
HETATM   11  C   UNL     1     -38.466 -50.943  15.129  1.00  0.00     0.045 A 
ENDBRANCH   3   4
ENDBRANCH   2   3
ENDBRANCH   1   2
BRANCH   1  12
HETATM   12  O   UNL     1     -41.964 -52.447  11.287  1.00  0.00    -0.392 OA
HETATM   13  H   UNL     1     -42.885 -52.235  11.511  1.00  0.00     0.210 HD
ENDBRANCH   1  12
BRANCH   1  14
HETATM   14  C   UNL     1     -41.889 -50.341  12.526  1.00  0.00     0.166 C 
BRANCH  14  15
HETATM   15  N   UNL     1     -41.360 -49.040  12.112  1.00  0.00    -0.307 N 
HETATM   16  C   UNL     1     -41.420 -48.656  10.800  1.00  0.00     0.186 C 
HETATM   17  N   UNL     1     -40.993 -47.534  10.331  1.00  0.00    -0.355 N 
HETATM   18  C   UNL     1     -40.418 -46.655  11.217  1.00  0.00     0.017 C 
ATOM     19  HN  UNL     1     -41.077 -47.309   9.340  1.00  0.00     0.166 HD
HETATM   20  C   UNL     1     -39.898 -45.389  10.587  1.00  0.00     0.069 C 
HETATM   21  C   UNL     1     -40.319 -46.885  12.538  1.00  0.00     0.028 C 
HETATM   22  C   UNL     1     -39.673 -45.996  13.556  1.00  0.00     0.056 C 
HETATM   23  C   UNL     1     -40.906 -48.150  13.063  1.00  0.00     0.256 C 
HETATM   24  O   UNL     1     -40.974 -48.342  14.274  1.00  0.00    -0.267 OA
ENDBRANCH  14  15
ENDBRANCH   1  14
TORSDOF 6
ENDMDL
MODEL 6
REMARK VINA RESULT:      -6.2      2.757      5.128
REMARK  6 active torsions:
REMARK  status: ('A' for Active; 'I' for Inactive)
REMARK    1  A    between atoms: C_7  and  O_8 
REMARK    2  A    between atoms: O_8  and  C_9 
REMARK    3  A    between atoms: C_9  and  C_10 
REMARK    4  A    between atoms: C_10  and  O_11 
REMARK    5  A    between atoms: C_10  and  C_12 
REMARK    6  A    between atoms: C_12  and  N_13 
ROOT
HETATM    1  C   UNL     1     -40.422 -50.706  11.894  1.00  0.00     0.161 C 
ENDROOT
BRANCH   1   2
HETATM    2  C   UNL     1     -41.221 -52.006  11.707  1.00  0.00     0.209 C 
BRANCH   2   3
HETATM    3  O   UNL     1     -40.596 -53.038  12.473  1.00  0.00    -0.347 OA
BRANCH   3   4
HETATM    4  C   UNL     1     -41.360 -53.730  13.375  1.00  0.00     0.091 A 
HETATM    5  C   UNL     1     -40.710 -54.194  14.531  1.00  0.00     0.067 A 
HETATM    6  C   UNL     1     -41.413 -54.901  15.510  1.00  0.00     0.027 A 
HETATM    7 CL   UNL     1     -39.024 -53.913  14.793  1.00  0.00    -0.081 Cl
HETATM    8  C   UNL     1     -42.778 -55.140  15.355  1.00  0.00     0.008 A 
HETATM    9  C   UNL     1     -43.446 -54.677  14.217  1.00  0.00    -0.059 A 
HETATM   10  C   UNL     1     -44.920 -54.903  14.044  1.00  0.00     0.048 C 
HETATM   11  C   UNL     1     -42.728 -53.985  13.227  1.00  0.00     0.045 A 
ENDBRANCH   3   4
ENDBRANCH   2   3
ENDBRANCH   1   2
BRANCH   1  12
HETATM   12  O   UNL     1     -40.080 -50.125  10.631  1.00  0.00    -0.392 OA
HETATM   13  H   UNL     1     -40.895 -49.869  10.170  1.00  0.00     0.210 HD
ENDBRANCH   1  12
BRANCH   1  14
HETATM   14  C   UNL     1     -41.134 -49.669  12.790  1.00  0.00     0.166 C 
BRANCH  14  15
HETATM   15  N   UNL     1     -41.901 -50.256  13.890  1.00  0.00    -0.307 N 
HETATM   16  C   UNL     1     -41.278 -50.613  15.054  1.00  0.00     0.186 C 
HETATM   17  N   UNL     1     -41.857 -51.128  16.084  1.00  0.00    -0.355 N 
HETATM   18  C   UNL     1     -43.211 -51.349  16.004  1.00  0.00     0.017 C 
ATOM     19  HN  UNL     1     -41.331 -51.363  16.925  1.00  0.00     0.166 HD
HETATM   20  C   UNL     1     -43.808 -51.999  17.225  1.00  0.00     0.069 C 
HETATM   21  C   UNL     1     -43.959 -51.020  14.936  1.00  0.00     0.028 C 
HETATM   22  C   UNL     1     -45.426 -51.265  14.760  1.00  0.00     0.056 C 
HETATM   23  C   UNL     1     -43.275 -50.341  13.799  1.00  0.00     0.256 C 
HETATM   24  O   UNL     1     -43.933 -49.889  12.866  1.00  0.00    -0.267 OA
ENDBRANCH  14  15
ENDBRANCH   1  14
TORSDOF 6
ENDMDL
MODEL 7
REMARK VINA RESULT:      -6.1      2.365      3.556
REMARK  6 active torsions:
REMARK  status: ('A' for Active; 'I' for Inactive)
REMARK    1  A    between atoms: C_7  and  O_8 
REMARK    2  A    between atoms: O_8  and  C_9 
REMARK    3  A    between atoms: C_9  and  C_10 
REMARK    4  A    between atoms: C_10  and  O_11 
REMARK    5  A    between atoms: C_10  and  C_12 
REMARK    6  A    between atoms: C_12  and  N_13 
ROOT
HETATM    1  C   UNL     1     -39.006 -50.711  12.196  1.00  0.00     0.161 C 
ENDROOT
BRANCH   1   2
HETATM    2  C   UNL     1     -38.946 -49.267  12.721  1.00  0.00     0.209 C 
BRANCH   2   3
HETATM    3  O   UNL     1     -40.283 -48.787  12.881  1.00  0.00    -0.347 OA
BRANCH   3   4
HETATM    4  C   UNL     1     -40.724 -47.800  12.039  1.00  0.00     0.091 A 
HETATM    5  C   UNL     1     -42.101 -47.772  11.762  1.00  0.00     0.067 A 
HETATM    6  C   UNL     1     -42.640 -46.794  10.922  1.00  0.00     0.027 A 
HETATM    7 CL   UNL     1     -43.183 -48.935  12.444  1.00  0.00    -0.081 Cl
HETATM    8  C   UNL     1     -41.813 -45.822  10.359  1.00  0.00     0.008 A 
HETATM    9  C   UNL     1     -40.441 -45.825  10.632  1.00  0.00    -0.059 A 
HETATM   10  C   UNL     1     -39.539 -44.774  10.055  1.00  0.00     0.048 C 
HETATM   11  C   UNL     1     -39.903 -46.825  11.461  1.00  0.00     0.045 A 
ENDBRANCH   3   4
ENDBRANCH   2   3
ENDBRANCH   1   2
BRANCH   1  12
HETATM   12  O   UNL     1     -37.803 -51.057  11.503  1.00  0.00    -0.392 OA
HETATM   13  H   UNL     1     -37.751 -52.023  11.420  1.00  0.00     0.210 HD
ENDBRANCH   1  12
BRANCH   1  14
HETATM   14  C   UNL     1     -39.315 -51.752  13.294  1.00  0.00     0.166 C 
BRANCH  14  15
HETATM   15  N   UNL     1     -40.627 -52.388  13.163  1.00  0.00    -0.307 N 
HETATM   16  C   UNL     1     -41.447 -52.072  12.114  1.00  0.00     0.186 C 
HETATM   17  N   UNL     1     -42.613 -52.575  11.900  1.00  0.00    -0.355 N 
HETATM   18  C   UNL     1     -43.081 -53.498  12.805  1.00  0.00     0.017 C 
ATOM     19  HN  UNL     1     -43.168 -52.299  11.091  1.00  0.00     0.166 HD
HETATM   20  C   UNL     1     -44.471 -54.003  12.517  1.00  0.00     0.069 C 
HETATM   21  C   UNL     1     -42.373 -53.926  13.866  1.00  0.00     0.028 C 
HETATM   22  C   UNL     1     -42.829 -54.895  14.914  1.00  0.00     0.056 C 
HETATM   23  C   UNL     1     -40.991 -53.394  14.033  1.00  0.00     0.256 C 
HETATM   24  O   UNL     1     -40.252 -53.860  14.896  1.00  0.00    -0.267 OA
ENDBRANCH  14  15
ENDBRANCH   1  14
TORSDOF 6
ENDMDL
MODEL 8
REMARK VINA RESULT:      -6.0      2.181      2.984
REMARK  6 active torsions:
REMARK  status: ('A' for Active; 'I' for Inactive)
REMARK    1  A    between atoms: C_7  and  O_8 
REMARK    2  A    between atoms: O_8  and  C_9 
REMARK    3  A    between atoms: C_9  and  C_10 
REMARK    4  A    between atoms: C_10  and  O_11 
REMARK    5  A    between atoms: C_10  and  C_12 
REMARK    6  A    between atoms: C_12  and  N_13 
ROOT
HETATM    1  C   UNL     1     -40.948 -53.014  12.773  1.00  0.00     0.161 C 
ENDROOT
BRANCH   1   2
HETATM    2  C   UNL     1     -39.713 -52.754  13.651  1.00  0.00     0.209 C 
BRANCH   2   3
HETATM    3  O   UNL     1     -38.763 -52.006  12.889  1.00  0.00    -0.347 OA
BRANCH   3   4
HETATM    4  C   UNL     1     -38.430 -50.749  13.320  1.00  0.00     0.091 A 
HETATM    5  C   UNL     1     -38.993 -49.670  12.620  1.00  0.00     0.067 A 
HETATM    6  C   UNL     1     -38.717 -48.353  12.997  1.00  0.00     0.027 A 
HETATM    7 CL   UNL     1     -40.047 -49.919  11.272  1.00  0.00    -0.081 Cl
HETATM    8  C   UNL     1     -37.887 -48.097  14.088  1.00  0.00     0.008 A 
HETATM    9  C   UNL     1     -37.325 -49.158  14.805  1.00  0.00    -0.059 A 
HETATM   10  C   UNL     1     -36.448 -48.903  15.996  1.00  0.00     0.048 C 
HETATM   11  C   UNL     1     -37.591 -50.480  14.407  1.00  0.00     0.045 A 
ENDBRANCH   3   4
ENDBRANCH   2   3
ENDBRANCH   1   2
BRANCH   1  12
HETATM   12  O   UNL     1     -40.571 -53.533  11.494  1.00  0.00    -0.392 OA
HETATM   13  H   UNL     1     -41.194 -53.208  10.824  1.00  0.00     0.210 HD
ENDBRANCH   1  12
BRANCH   1  14
HETATM   14  C   UNL     1     -41.995 -53.932  13.440  1.00  0.00     0.166 C 
BRANCH  14  15
HETATM   15  N   UNL     1     -43.154 -53.221  13.985  1.00  0.00    -0.307 N 
HETATM   16  C   UNL     1     -43.106 -52.683  15.242  1.00  0.00     0.186 C 
HETATM   17  N   UNL     1     -44.062 -52.034  15.813  1.00  0.00    -0.355 N 
HETATM   18  C   UNL     1     -45.231 -51.877  15.108  1.00  0.00     0.017 C 
ATOM     19  HN  UNL     1     -43.954 -51.652  16.752  1.00  0.00     0.166 HD
HETATM   20  C   UNL     1     -46.318 -51.153  15.859  1.00  0.00     0.069 C 
HETATM   21  C   UNL     1     -45.410 -52.325  13.852  1.00  0.00     0.028 C 
HETATM   22  C   UNL     1     -46.663 -52.228  13.038  1.00  0.00     0.056 C 
HETATM   23  C   UNL     1     -44.254 -52.990  13.186  1.00  0.00     0.256 C 
HETATM   24  O   UNL     1     -44.316 -53.285  11.996  1.00  0.00    -0.267 OA
ENDBRANCH  14  15
ENDBRANCH   1  14
TORSDOF 6
ENDMDL
MODEL 9
REMARK VINA RESULT:      -6.0      3.062      7.187
REMARK  6 active torsions:
REMARK  status: ('A' for Active; 'I' for Inactive)
REMARK    1  A    between atoms: C_7  and  O_8 
REMARK    2  A    between atoms: O_8  and  C_9 
REMARK    3  A    between atoms: C_9  and  C_10 
REMARK    4  A    between atoms: C_10  and  O_11 
REMARK    5  A    between atoms: C_10  and  C_12 
REMARK    6  A    between atoms: C_12  and  N_13 
ROOT
HETATM    1  C   UNL     1     -40.645 -50.533  11.704  1.00  0.00     0.161 C 
ENDROOT
BRANCH   1   2
HETATM    2  C   UNL     1     -41.245 -51.944  11.818  1.00  0.00     0.209 C 
BRANCH   2   3
HETATM    3  O   UNL     1     -40.700 -52.577  12.978  1.00  0.00    -0.347 OA
BRANCH   3   4
HETATM    4  C   UNL     1     -41.499 -53.439  13.683  1.00  0.00     0.091 A 
HETATM    5  C   UNL     1     -40.934 -54.039  14.820  1.00  0.00     0.067 A 
HETATM    6  C   UNL     1     -41.679 -54.923  15.605  1.00  0.00     0.027 A 
HETATM    7 CL   UNL     1     -39.304 -53.712  15.298  1.00  0.00    -0.081 Cl
HETATM    8  C   UNL     1     -43.003 -55.208  15.272  1.00  0.00     0.008 A 
HETATM    9  C   UNL     1     -43.588 -54.612  14.150  1.00  0.00    -0.059 A 
HETATM   10  C   UNL     1     -45.018 -54.888  13.790  1.00  0.00     0.048 C 
HETATM   11  C   UNL     1     -42.825 -53.740  13.354  1.00  0.00     0.045 A 
ENDBRANCH   3   4
ENDBRANCH   2   3
ENDBRANCH   1   2
BRANCH   1  12
HETATM   12  O   UNL     1     -40.348 -50.208  10.342  1.00  0.00    -0.392 OA
HETATM   13  H   UNL     1     -41.128 -50.394   9.794  1.00  0.00     0.210 HD
ENDBRANCH   1  12
BRANCH   1  14
HETATM   14  C   UNL     1     -41.527 -49.437  12.340  1.00  0.00     0.166 C 
BRANCH  14  15
HETATM   15  N   UNL     1     -40.868 -48.134  12.461  1.00  0.00    -0.307 N 
HETATM   16  C   UNL     1     -40.054 -47.869  13.527  1.00  0.00     0.186 C 
HETATM   17  N   UNL     1     -39.422 -46.763  13.727  1.00  0.00    -0.355 N 
HETATM   18  C   UNL     1     -39.587 -45.763  12.799  1.00  0.00     0.017 C 
ATOM     19  HN  UNL     1     -38.823 -46.636  14.542  1.00  0.00     0.166 HD
HETATM   20  C   UNL     1     -38.859 -44.485  13.126  1.00  0.00     0.069 C 
HETATM   21  C   UNL     1     -40.332 -45.893  11.686  1.00  0.00     0.028 C 
HETATM   22  C   UNL     1     -40.591 -44.839  10.654  1.00  0.00     0.056 C 
HETATM   23  C   UNL     1     -40.974 -47.215  11.438  1.00  0.00     0.256 C 
HETATM   24  O   UNL     1     -41.541 -47.433  10.371  1.00  0.00    -0.267 OA
ENDBRANCH  14  15
ENDBRANCH   1  14
TORSDOF 6
ENDMDL
