MODEL 1
REMARK VINA RESULT:      -5.9      0.000      0.000
REMARK  3 active torsions:
REMARK  status: ('A' for Active; 'I' for Inactive)
REMARK       I    between atoms: C_2  and  N_4 
REMARK    1  A    between atoms: C_7  and  N_10 
REMARK       I    between atoms: N_10  and  C_11 
REMARK    2  A    between atoms: C_11  and  C_13 
REMARK    3  A    between atoms: C_13  and  N_14 
ROOT
HETATM    1  N   UNL     1     -43.160 -54.038  13.680  1.00  0.00    -0.355 N 
HETATM    2  C   UNL     1     -44.132 -54.828  14.273  1.00  0.00     0.237 C 
HETATM    3  O   UNL     1     -43.901 -55.611  15.193  1.00  0.00    -0.272 OA
HETATM    4  H   UNL     1     -43.405 -53.679  12.753  1.00  0.00     0.162 HD
ENDROOT
BRANCH   1   5
HETATM    5  C   UNL     1     -41.750 -54.135  14.041  1.00  0.00     0.087 C 
HETATM    6  C   UNL     1     -41.347 -53.067  15.066  1.00  0.00     0.045 C 
HETATM    7  C   UNL     1     -41.407 -51.671  14.459  1.00  0.00     0.127 C 
HETATM    8  N   UNL     1     -40.587 -51.580  13.252  1.00  0.00    -0.352 N 
HETATM    9  C   UNL     1     -39.917 -50.424  12.861  1.00  0.00     0.215 C 
HETATM   10  C   UNL     1     -40.834 -52.601  12.234  1.00  0.00     0.127 C 
HETATM   11  C   UNL     1     -39.908 -49.272  13.835  1.00  0.00     0.117 C 
HETATM   12  O   UNL     1     -39.348 -50.316  11.775  1.00  0.00    -0.274 OA
HETATM   13  C   UNL     1     -40.843 -54.015  12.812  1.00  0.00     0.045 C 
ENDBRANCH   1   5
BRANCH   2  14
HETATM   14  C   UNL     1     -45.531 -54.601  13.754  1.00  0.00     0.251 C 
BRANCH  14  15
HETATM   15  N   UNL     1     -46.120 -53.441  14.383  1.00  0.00    -0.288 N 
HETATM   16  N   UNL     1     -46.223 -53.423  15.731  1.00  0.00    -0.303 N 
HETATM   17  C   UNL     1     -46.722 -52.213  16.005  1.00  0.00     0.024 A 
ATOM     18  HN  UNL     1     -45.976 -54.163  16.388  1.00  0.00     0.186 HD
HETATM   19  C   UNL     1     -46.981 -51.800  17.404  1.00  0.00     0.070 C 
HETATM   20  C   UNL     1     -46.921 -51.455  14.830  1.00  0.00     0.052 A 
HETATM   21  C   UNL     1     -46.521 -52.269  13.793  1.00  0.00     0.027 A 
HETATM   22  C   UNL     1     -46.470 -52.024  12.330  1.00  0.00     0.070 C 
ENDBRANCH  14  15
ENDBRANCH   2  14
TORSDOF 3
ENDMDL
MODEL 2
REMARK VINA RESULT:      -5.9      3.967      6.702
REMARK  3 active torsions:
REMARK  status: ('A' for Active; 'I' for Inactive)
REMARK       I    between atoms: C_2  and  N_4 
REMARK    1  A    between atoms: C_7  and  N_10 
REMARK       I    between atoms: N_10  and  C_11 
REMARK    2  A    between atoms: C_11  and  C_13 
REMARK    3  A    between atoms: C_13  and  N_14 
ROOT
HETATM    1  N   UNL     1     -43.584 -50.152  12.894  1.00  0.00    -0.355 N 
HETATM    2  C   UNL     1     -42.996 -48.913  12.701  1.00  0.00     0.237 C 
HETATM    3  O   UNL     1     -42.969 -48.034  13.560  1.00  0.00    -0.272 OA
HETATM    4  H   UNL     1     -43.812 -50.658  12.033  1.00  0.00     0.162 HD
ENDROOT
BRANCH   1   5
HETATM    5  C   UNL     1     -44.306 -50.491  14.115  1.00  0.00     0.087 C 
HETATM    6  C   UNL     1     -43.399 -51.174  15.146  1.00  0.00     0.045 C 
HETATM    7  C   UNL     1     -42.959 -52.551  14.666  1.00  0.00     0.127 C 
HETATM    8  N   UNL     1     -44.109 -53.391  14.335  1.00  0.00    -0.352 N 
HETATM    9  C   UNL     1     -44.128 -54.773  14.508  1.00  0.00     0.215 C 
HETATM   10  C   UNL     1     -45.084 -52.807  13.416  1.00  0.00     0.127 C 
HETATM   11  C   UNL     1     -42.960 -55.391  15.234  1.00  0.00     0.117 C 
HETATM   12  O   UNL     1     -45.044 -55.485  14.096  1.00  0.00    -0.274 OA
HETATM   13  C   UNL     1     -45.507 -51.398  13.828  1.00  0.00     0.045 C 
ENDBRANCH   1   5
BRANCH   2  14
HETATM   14  C   UNL     1     -42.313 -48.741  11.365  1.00  0.00     0.251 C 
BRANCH  14  15
HETATM   15  N   UNL     1     -43.044 -47.806  10.542  1.00  0.00    -0.288 N 
HETATM   16  N   UNL     1     -44.313 -48.112  10.191  1.00  0.00    -0.303 N 
HETATM   17  C   UNL     1     -44.734 -47.037   9.515  1.00  0.00     0.024 A 
ATOM     18  HN  UNL     1     -44.830 -48.967  10.396  1.00  0.00     0.186 HD
HETATM   19  C   UNL     1     -46.106 -46.983   8.958  1.00  0.00     0.070 C 
HETATM   20  C   UNL     1     -43.736 -46.040   9.451  1.00  0.00     0.052 A 
HETATM   21  C   UNL     1     -42.652 -46.559  10.125  1.00  0.00     0.027 A 
HETATM   22  C   UNL     1     -41.320 -45.973  10.417  1.00  0.00     0.070 C 
ENDBRANCH  14  15
ENDBRANCH   2  14
TORSDOF 3
ENDMDL
MODEL 3
REMARK VINA RESULT:      -5.8      3.607      5.142
REMARK  3 active torsions:
REMARK  status: ('A' for Active; 'I' for Inactive)
REMARK       I    between atoms: C_2  and  N_4 
REMARK    1  A    between atoms: C_7  and  N_10 
REMARK       I    between atoms: N_10  and  C_11 
REMARK    2  A    between atoms: C_11  and  C_13 
REMARK    3  A    between atoms: C_13  and  N_14 
ROOT
HETATM    1  N   UNL     1     -42.252 -49.271  12.437  1.00  0.00    -0.355 N 
HETATM    2  C   UNL     1     -42.493 -50.583  12.810  1.00  0.00     0.237 C 
HETATM    3  O   UNL     1     -42.075 -51.554  12.182  1.00  0.00    -0.272 OA
HETATM    4  H   UNL     1     -42.894 -48.584  12.843  1.00  0.00     0.162 HD
ENDROOT
BRANCH   1   5
HETATM    5  C   UNL     1     -41.549 -48.926  11.206  1.00  0.00     0.087 C 
HETATM    6  C   UNL     1     -40.193 -48.266  11.487  1.00  0.00     0.045 C 
HETATM    7  C   UNL     1     -40.371 -46.894  12.125  1.00  0.00     0.127 C 
HETATM    8  N   UNL     1     -41.219 -46.031  11.303  1.00  0.00    -0.352 N 
HETATM    9  C   UNL     1     -41.058 -44.651  11.219  1.00  0.00     0.215 C 
HETATM   10  C   UNL     1     -42.510 -46.593  10.909  1.00  0.00     0.127 C 
HETATM   11  C   UNL     1     -39.838 -44.058  11.877  1.00  0.00     0.117 C 
HETATM   12  O   UNL     1     -41.862 -43.919  10.639  1.00  0.00    -0.274 OA
HETATM   13  C   UNL     1     -42.383 -47.996  10.320  1.00  0.00     0.045 C 
ENDBRANCH   1   5
BRANCH   2  14
HETATM   14  C   UNL     1     -43.255 -50.740  14.104  1.00  0.00     0.251 C 
BRANCH  14  15
HETATM   15  N   UNL     1     -44.649 -51.012  13.838  1.00  0.00    -0.288 N 
HETATM   16  N   UNL     1     -45.033 -51.212  12.557  1.00  0.00    -0.303 N 
HETATM   17  C   UNL     1     -46.333 -51.513  12.649  1.00  0.00     0.024 A 
ATOM     18  HN  UNL     1     -44.462 -51.149  11.715  1.00  0.00     0.186 HD
HETATM   19  C   UNL     1     -47.129 -51.810  11.435  1.00  0.00     0.070 C 
HETATM   20  C   UNL     1     -46.772 -51.520  13.992  1.00  0.00     0.052 A 
HETATM   21  C   UNL     1     -45.663 -51.196  14.744  1.00  0.00     0.027 A 
HETATM   22  C   UNL     1     -45.489 -51.072  16.212  1.00  0.00     0.070 C 
ENDBRANCH  14  15
ENDBRANCH   2  14
TORSDOF 3
ENDMDL
MODEL 4
REMARK VINA RESULT:      -5.8      3.737      6.555
REMARK  3 active torsions:
REMARK  status: ('A' for Active; 'I' for Inactive)
REMARK       I    between atoms: C_2  and  N_4 
REMARK    1  A    between atoms: C_7  and  N_10 
REMARK       I    between atoms: N_10  and  C_11 
REMARK    2  A    between atoms: C_11  and  C_13 
REMARK    3  A    between atoms: C_13  and  N_14 
ROOT
HETATM    1  N   UNL     1     -42.449 -50.259  12.894  1.00  0.00    -0.355 N 
HETATM    2  C   UNL     1     -42.081 -49.228  12.045  1.00  0.00     0.237 C 
HETATM    3  O   UNL     1     -41.194 -49.330  11.199  1.00  0.00    -0.272 OA
HETATM    4  H   UNL     1     -42.958 -49.964  13.732  1.00  0.00     0.162 HD
ENDROOT
BRANCH   1   5
HETATM    5  C   UNL     1     -41.748 -51.538  12.916  1.00  0.00     0.087 C 
HETATM    6  C   UNL     1     -42.466 -52.600  12.074  1.00  0.00     0.045 C 
HETATM    7  C   UNL     1     -43.805 -52.980  12.693  1.00  0.00     0.127 C 
HETATM    8  N   UNL     1     -43.645 -53.424  14.077  1.00  0.00    -0.352 N 
HETATM    9  C   UNL     1     -44.447 -54.395  14.672  1.00  0.00     0.215 C 
HETATM   10  C   UNL     1     -42.904 -52.520  14.955  1.00  0.00     0.127 C 
HETATM   11  C   UNL     1     -45.409 -55.135  13.777  1.00  0.00     0.117 C 
HETATM   12  O   UNL     1     -44.397 -54.658  15.873  1.00  0.00    -0.274 OA
HETATM   13  C   UNL     1     -41.580 -52.065  14.345  1.00  0.00     0.045 C 
ENDBRANCH   1   5
BRANCH   2  14
HETATM   14  C   UNL     1     -42.910 -47.974  12.182  1.00  0.00     0.251 C 
BRANCH  14  15
HETATM   15  N   UNL     1     -43.471 -47.599  10.904  1.00  0.00    -0.288 N 
HETATM   16  N   UNL     1     -44.622 -48.187  10.509  1.00  0.00    -0.303 N 
HETATM   17  C   UNL     1     -44.918 -47.584   9.352  1.00  0.00     0.024 A 
ATOM     18  HN  UNL     1     -45.145 -48.923  10.984  1.00  0.00     0.186 HD
HETATM   19  C   UNL     1     -46.135 -47.957   8.594  1.00  0.00     0.070 C 
HETATM   20  C   UNL     1     -43.961 -46.599   9.021  1.00  0.00     0.052 A 
HETATM   21  C   UNL     1     -43.036 -46.624  10.042  1.00  0.00     0.027 A 
HETATM   22  C   UNL     1     -41.819 -45.806  10.269  1.00  0.00     0.070 C 
ENDBRANCH  14  15
ENDBRANCH   2  14
TORSDOF 3
ENDMDL
MODEL 5
REMARK VINA RESULT:      -5.6      1.266      2.240
REMARK  3 active torsions:
REMARK  status: ('A' for Active; 'I' for Inactive)
REMARK       I    between atoms: C_2  and  N_4 
REMARK    1  A    between atoms: C_7  and  N_10 
REMARK       I    between atoms: N_10  and  C_11 
REMARK    2  A    between atoms: C_11  and  C_13 
REMARK    3  A    between atoms: C_13  and  N_14 
ROOT
HETATM    1  N   UNL     1     -42.297 -53.730  15.132  1.00  0.00    -0.355 N 
HETATM    2  C   UNL     1     -43.533 -54.340  15.268  1.00  0.00     0.237 C 
HETATM    3  O   UNL     1     -43.797 -55.448  14.803  1.00  0.00    -0.272 OA
HETATM    4  H   UNL     1     -42.300 -52.716  15.281  1.00  0.00     0.162 HD
ENDROOT
BRANCH   1   5
HETATM    5  C   UNL     1     -41.220 -54.317  14.343  1.00  0.00     0.087 C 
HETATM    6  C   UNL     1     -39.843 -54.046  14.961  1.00  0.00     0.045 C 
HETATM    7  C   UNL     1     -39.491 -52.566  14.896  1.00  0.00     0.127 C 
HETATM    8  N   UNL     1     -39.562 -52.063  13.524  1.00  0.00    -0.352 N 
HETATM    9  C   UNL     1     -38.734 -51.058  13.029  1.00  0.00     0.215 C 
HETATM   10  C   UNL     1     -40.808 -52.333  12.808  1.00  0.00     0.127 C 
HETATM   11  C   UNL     1     -37.602 -50.602  13.914  1.00  0.00     0.117 C 
HETATM   12  O   UNL     1     -38.895 -50.545  11.922  1.00  0.00    -0.274 OA
HETATM   13  C   UNL     1     -41.230 -53.798  12.901  1.00  0.00     0.045 C 
ENDBRANCH   1   5
BRANCH   2  14
HETATM   14  C   UNL     1     -44.527 -53.571  16.105  1.00  0.00     0.251 C 
BRANCH  14  15
HETATM   15  N   UNL     1     -45.350 -52.732  15.265  1.00  0.00    -0.288 N 
HETATM   16  N   UNL     1     -45.412 -53.008  13.943  1.00  0.00    -0.303 N 
HETATM   17  C   UNL     1     -46.297 -52.125  13.466  1.00  0.00     0.024 A 
ATOM     18  HN  UNL     1     -44.901 -53.724  13.428  1.00  0.00     0.186 HD
HETATM   19  C   UNL     1     -46.648 -52.108  12.026  1.00  0.00     0.070 C 
HETATM   20  C   UNL     1     -46.810 -51.298  14.489  1.00  0.00     0.052 A 
HETATM   21  C   UNL     1     -46.185 -51.712  15.646  1.00  0.00     0.027 A 
HETATM   22  C   UNL     1     -46.329 -51.245  17.047  1.00  0.00     0.070 C 
ENDBRANCH  14  15
ENDBRANCH   2  14
TORSDOF 3
ENDMDL
MODEL 6
REMARK VINA RESULT:      -5.6      2.302      6.955
REMARK  3 active torsions:
REMARK  status: ('A' for Active; 'I' for Inactive)
REMARK       I    between atoms: C_2  and  N_4 
REMARK    1  A    between atoms: C_7  and  N_10 
REMARK       I    between atoms: N_10  and  C_11 
REMARK    2  A    between atoms: C_11  and  C_13 
REMARK    3  A    between atoms: C_13  and  N_14 
ROOT
HETATM    1  N   UNL     1     -41.031 -53.053  14.432  1.00  0.00    -0.355 N 
HETATM    2  C   UNL     1     -39.655 -53.152  14.316  1.00  0.00     0.237 C 
HETATM    3  O   UNL     1     -39.093 -53.913  13.530  1.00  0.00    -0.272 OA
HETATM    4  H   UNL     1     -41.361 -52.635  15.307  1.00  0.00     0.162 HD
ENDROOT
BRANCH   1   5
HETATM    5  C   UNL     1     -41.941 -53.914  13.684  1.00  0.00     0.087 C 
HETATM    6  C   UNL     1     -42.795 -53.119  12.688  1.00  0.00     0.045 C 
HETATM    7  C   UNL     1     -43.775 -52.204  13.411  1.00  0.00     0.127 C 
HETATM    8  N   UNL     1     -44.613 -52.955  14.345  1.00  0.00    -0.352 N 
HETATM    9  C   UNL     1     -45.933 -52.619  14.636  1.00  0.00     0.215 C 
HETATM   10  C   UNL     1     -43.904 -53.811  15.294  1.00  0.00     0.127 C 
HETATM   11  C   UNL     1     -46.563 -51.528  13.807  1.00  0.00     0.117 C 
HETATM   12  O   UNL     1     -46.583 -53.169  15.525  1.00  0.00    -0.274 OA
HETATM   13  C   UNL     1     -42.865 -54.703  14.616  1.00  0.00     0.045 C 
ENDBRANCH   1   5
BRANCH   2  14
HETATM   14  C   UNL     1     -38.879 -52.191  15.185  1.00  0.00     0.251 C 
BRANCH  14  15
HETATM   15  N   UNL     1     -38.369 -51.095  14.394  1.00  0.00    -0.288 N 
HETATM   16  N   UNL     1     -38.130 -51.307  13.080  1.00  0.00    -0.303 N 
HETATM   17  C   UNL     1     -37.752 -50.109  12.620  1.00  0.00     0.024 A 
ATOM     18  HN  UNL     1     -38.218 -52.179  12.560  1.00  0.00     0.186 HD
HETATM   19  C   UNL     1     -37.401 -49.924  11.192  1.00  0.00     0.070 C 
HETATM   20  C   UNL     1     -37.767 -49.132  13.639  1.00  0.00     0.052 A 
HETATM   21  C   UNL     1     -38.173 -49.793  14.778  1.00  0.00     0.027 A 
HETATM   22  C   UNL     1     -38.405 -49.297  16.157  1.00  0.00     0.070 C 
ENDBRANCH  14  15
ENDBRANCH   2  14
TORSDOF 3
ENDMDL
MODEL 7
REMARK VINA RESULT:      -5.6      2.167      6.605
REMARK  3 active torsions:
REMARK  status: ('A' for Active; 'I' for Inactive)
REMARK       I    between atoms: C_2  and  N_4 
REMARK    1  A    between atoms: C_7  and  N_10 
REMARK       I    between atoms: N_10  and  C_11 
REMARK    2  A    between atoms: C_11  and  C_13 
REMARK    3  A    between atoms: C_13  and  N_14 
ROOT
HETATM    1  N   UNL     1     -42.583 -52.071  12.306  1.00  0.00    -0.355 N 
HETATM    2  C   UNL     1     -41.219 -52.199  12.104  1.00  0.00     0.237 C 
HETATM    3  O   UNL     1     -40.642 -53.283  12.035  1.00  0.00    -0.272 OA
HETATM    4  H   UNL     1     -42.882 -51.153  12.649  1.00  0.00     0.162 HD
ENDROOT
BRANCH   1   5
HETATM    5  C   UNL     1     -43.448 -53.221  12.544  1.00  0.00     0.087 C 
HETATM    6  C   UNL     1     -44.932 -52.862  12.402  1.00  0.00     0.045 C 
HETATM    7  C   UNL     1     -45.378 -51.917  13.511  1.00  0.00     0.127 C 
HETATM    8  N   UNL     1     -45.093 -52.475  14.832  1.00  0.00    -0.352 N 
HETATM    9  C   UNL     1     -45.890 -52.247  15.951  1.00  0.00     0.215 C 
HETATM   10  C   UNL     1     -43.720 -52.925  15.053  1.00  0.00     0.127 C 
HETATM   11  C   UNL     1     -47.198 -51.530  15.731  1.00  0.00     0.117 C 
HETATM   12  O   UNL     1     -45.566 -52.604  17.085  1.00  0.00    -0.274 OA
HETATM   13  C   UNL     1     -43.211 -53.828  13.930  1.00  0.00     0.045 C 
ENDBRANCH   1   5
BRANCH   2  14
HETATM   14  C   UNL     1     -40.488 -50.895  11.897  1.00  0.00     0.251 C 
BRANCH  14  15
HETATM   15  N   UNL     1     -39.411 -50.763  12.851  1.00  0.00    -0.288 N 
HETATM   16  N   UNL     1     -39.626 -51.166  14.123  1.00  0.00    -0.303 N 
HETATM   17  C   UNL     1     -38.443 -50.994  14.725  1.00  0.00     0.024 A 
ATOM     18  HN  UNL     1     -40.491 -51.520  14.531  1.00  0.00     0.186 HD
HETATM   19  C   UNL     1     -38.266 -51.334  16.156  1.00  0.00     0.070 C 
HETATM   20  C   UNL     1     -37.472 -50.497  13.829  1.00  0.00     0.052 A 
HETATM   21  C   UNL     1     -38.120 -50.358  12.621  1.00  0.00     0.027 A 
HETATM   22  C   UNL     1     -37.622 -49.906  11.299  1.00  0.00     0.070 C 
ENDBRANCH  14  15
ENDBRANCH   2  14
TORSDOF 3
ENDMDL
MODEL 8
REMARK VINA RESULT:      -5.5      3.394      7.260
REMARK  3 active torsions:
REMARK  status: ('A' for Active; 'I' for Inactive)
REMARK       I    between atoms: C_2  and  N_4 
REMARK    1  A    between atoms: C_7  and  N_10 
REMARK       I    between atoms: N_10  and  C_11 
REMARK    2  A    between atoms: C_11  and  C_13 
REMARK    3  A    between atoms: C_13  and  N_14 
ROOT
HETATM    1  N   UNL     1     -42.302 -50.276  12.381  1.00  0.00    -0.355 N 
HETATM    2  C   UNL     1     -41.671 -49.413  11.501  1.00  0.00     0.237 C 
HETATM    3  O   UNL     1     -40.544 -49.608  11.050  1.00  0.00    -0.272 OA
HETATM    4  H   UNL     1     -43.075 -49.862  12.910  1.00  0.00     0.162 HD
ENDROOT
BRANCH   1   5
HETATM    5  C   UNL     1     -41.641 -51.459  12.921  1.00  0.00     0.087 C 
HETATM    6  C   UNL     1     -42.118 -52.746  12.237  1.00  0.00     0.045 C 
HETATM    7  C   UNL     1     -43.575 -53.038  12.569  1.00  0.00     0.127 C 
HETATM    8  N   UNL     1     -43.789 -53.099  14.014  1.00  0.00    -0.352 N 
HETATM    9  C   UNL     1     -44.727 -53.932  14.619  1.00  0.00     0.215 C 
HETATM   10  C   UNL     1     -43.301 -51.953  14.781  1.00  0.00     0.127 C 
HETATM   11  C   UNL     1     -45.423 -54.938  13.738  1.00  0.00     0.117 C 
HETATM   12  O   UNL     1     -44.998 -53.873  15.819  1.00  0.00    -0.274 OA
HETATM   13  C   UNL     1     -41.860 -51.587  14.432  1.00  0.00     0.045 C 
ENDBRANCH   1   5
BRANCH   2  14
HETATM   14  C   UNL     1     -42.508 -48.233  11.068  1.00  0.00     0.251 C 
BRANCH  14  15
HETATM   15  N   UNL     1     -41.765 -47.004  11.225  1.00  0.00    -0.288 N 
HETATM   16  N   UNL     1     -40.848 -46.681  10.285  1.00  0.00    -0.303 N 
HETATM   17  C   UNL     1     -40.401 -45.478  10.664  1.00  0.00     0.024 A 
ATOM     18  HN  UNL     1     -40.563 -47.229   9.474  1.00  0.00     0.186 HD
HETATM   19  C   UNL     1     -39.368 -44.771   9.872  1.00  0.00     0.070 C 
HETATM   20  C   UNL     1     -41.047 -45.029  11.837  1.00  0.00     0.052 A 
HETATM   21  C   UNL     1     -41.928 -46.032  12.180  1.00  0.00     0.027 A 
HETATM   22  C   UNL     1     -42.901 -46.129  13.296  1.00  0.00     0.070 C 
ENDBRANCH  14  15
ENDBRANCH   2  14
TORSDOF 3
ENDMDL
MODEL 9
REMARK VINA RESULT:      -5.4      3.634      5.156
REMARK  3 active torsions:
REMARK  status: ('A' for Active; 'I' for Inactive)
REMARK       I    between atoms: C_2  and  N_4 
REMARK    1  A    between atoms: C_7  and  N_10 
REMARK       I    between atoms: N_10  and  C_11 
REMARK    2  A    between atoms: C_11  and  C_13 
REMARK    3  A    between atoms: C_13  and  N_14 
ROOT
HETATM    1  N   UNL     1     -42.579 -49.061  11.991  1.00  0.00    -0.355 N 
HETATM    2  C   UNL     1     -42.690 -50.338  12.515  1.00  0.00     0.237 C 
HETATM    3  O   UNL     1     -41.939 -51.264  12.211  1.00  0.00    -0.272 OA
HETATM    4  H   UNL     1     -43.423 -48.487  12.075  1.00  0.00     0.162 HD
ENDROOT
BRANCH   1   5
HETATM    5  C   UNL     1     -41.607 -48.725  10.957  1.00  0.00     0.087 C 
HETATM    6  C   UNL     1     -40.302 -48.180  11.552  1.00  0.00     0.045 C 
HETATM    7  C   UNL     1     -40.521 -46.825  12.212  1.00  0.00     0.127 C 
HETATM    8  N   UNL     1     -41.114 -45.869  11.277  1.00  0.00    -0.352 N 
HETATM    9  C   UNL     1     -40.849 -44.502  11.303  1.00  0.00     0.215 C 
HETATM   10  C   UNL     1     -42.325 -46.315  10.590  1.00  0.00     0.127 C 
HETATM   11  C   UNL     1     -39.761 -44.030  12.235  1.00  0.00     0.117 C 
HETATM   12  O   UNL     1     -41.459 -43.690  10.607  1.00  0.00    -0.274 OA
HETATM   13  C   UNL     1     -42.168 -47.700   9.966  1.00  0.00     0.045 C 
ENDBRANCH   1   5
BRANCH   2  14
HETATM   14  C   UNL     1     -43.768 -50.499  13.559  1.00  0.00     0.251 C 
BRANCH  14  15
HETATM   15  N   UNL     1     -44.182 -51.881  13.648  1.00  0.00    -0.288 N 
HETATM   16  N   UNL     1     -43.351 -52.764  14.246  1.00  0.00    -0.303 N 
HETATM   17  C   UNL     1     -44.038 -53.913  14.241  1.00  0.00     0.024 A 
ATOM     18  HN  UNL     1     -42.416 -52.594  14.614  1.00  0.00     0.186 HD
HETATM   19  C   UNL     1     -43.455 -55.144  14.824  1.00  0.00     0.070 C 
HETATM   20  C   UNL     1     -45.313 -53.754  13.656  1.00  0.00     0.052 A 
HETATM   21  C   UNL     1     -45.385 -52.429  13.282  1.00  0.00     0.027 A 
HETATM   22  C   UNL     1     -46.482 -51.659  12.644  1.00  0.00     0.070 C 
ENDBRANCH  14  15
ENDBRANCH   2  14
TORSDOF 3
ENDMDL
