MODEL 1
REMARK VINA RESULT:      -6.7      0.000      0.000
REMARK  6 active torsions:
REMARK  status: ('A' for Active; 'I' for Inactive)
REMARK    1  A    between atoms: C_8  and  C_9 
REMARK    2  A    between atoms: C_9  and  N_10 
REMARK    3  A    between atoms: N_10  and  C_11 
REMARK    4  A    between atoms: C_11  and  C_12 
REMARK    5  A    between atoms: C_12  and  O_14 
REMARK    6  A    between atoms: C_12  and  C_15 
ROOT
HETATM    1  C   UNL     1     -41.593 -49.675  12.412  1.00  0.00     0.311 C 
ENDROOT
BRANCH   1   2
HETATM    2  N   UNL     1     -42.172 -50.953  11.966  1.00  0.00     0.087 N 
HETATM    3  H   UNL     1     -42.797 -50.762  11.180  1.00  0.00     0.316 HD
BRANCH   2   4
HETATM    4  C   UNL     1     -42.964 -51.583  13.022  1.00  0.00     0.279 C 
BRANCH   4   5
HETATM    5  C   UNL     1     -43.104 -53.118  12.798  1.00  0.00     0.045 C 
HETATM    6  C   UNL     1     -44.575 -53.638  12.637  1.00  0.00    -0.009 C 
HETATM    7  C   UNL     1     -45.648 -52.553  12.425  1.00  0.00     0.011 C 
HETATM    8  C   UNL     1     -45.108 -54.659  13.660  1.00  0.00     0.009 C 
HETATM    9  C   UNL     1     -44.154 -55.265  14.675  1.00  0.00     0.028 C 
HETATM   10  C   UNL     1     -42.733 -54.847  14.597  1.00  0.00    -0.024 C 
HETATM   11  C   UNL     1     -42.239 -53.908  13.778  1.00  0.00    -0.081 C 
HETATM   12  C   UNL     1     -40.765 -53.586  13.819  1.00  0.00     0.043 C 
ENDBRANCH   4   5
ENDBRANCH   2   4
ENDBRANCH   1   2
BRANCH   1  13
HETATM   13  C   UNL     1     -40.670 -49.055  11.317  1.00  0.00     0.110 C 
HETATM   14  C   UNL     1     -39.307 -48.662  11.913  1.00  0.00     0.053 C 
BRANCH  13  15
HETATM   15  O   UNL     1     -40.424 -50.072  10.321  1.00  0.00    -0.383 OA
HETATM   16  H   UNL     1     -40.540 -50.925  10.770  1.00  0.00     0.211 HD
ENDBRANCH  13  15
BRANCH  13  17
HETATM   17  C   UNL     1     -41.336 -47.870  10.675  1.00  0.00     0.011 A 
HETATM   18  C   UNL     1     -40.920 -46.518  10.675  1.00  0.00     0.119 A 
HETATM   19  N   UNL     1     -41.755 -45.713  10.017  1.00  0.00    -0.310 N 
HETATM   20  N   UNL     1     -42.712 -46.545   9.582  1.00  0.00    -0.307 N 
ATOM     21  HN  UNL     1     -41.682 -44.705   9.878  1.00  0.00     0.186 HD
HETATM   22  C   UNL     1     -43.827 -46.043   8.823  1.00  0.00     0.177 C 
HETATM   23  C   UNL     1     -42.509 -47.842   9.945  1.00  0.00     0.121 A 
ENDBRANCH  13  17
ENDBRANCH   1  13
TORSDOF 6
ENDMDL
MODEL 2
REMARK VINA RESULT:      -6.4      2.829      4.596
REMARK  6 active torsions:
REMARK  status: ('A' for Active; 'I' for Inactive)
REMARK    1  A    between atoms: C_8  and  C_9 
REMARK    2  A    between atoms: C_9  and  N_10 
REMARK    3  A    between atoms: N_10  and  C_11 
REMARK    4  A    between atoms: C_11  and  C_12 
REMARK    5  A    between atoms: C_12  and  O_14 
REMARK    6  A    between atoms: C_12  and  C_15 
ROOT
HETATM    1  C   UNL     1     -42.541 -52.368  12.355  1.00  0.00     0.311 C 
ENDROOT
BRANCH   1   2
HETATM    2  N   UNL     1     -43.298 -53.630  12.369  1.00  0.00     0.087 N 
HETATM    3  H   UNL     1     -43.776 -53.724  11.470  1.00  0.00     0.316 HD
BRANCH   2   4
HETATM    4  C   UNL     1     -44.317 -53.634  13.419  1.00  0.00     0.279 C 
BRANCH   4   5
HETATM    5  C   UNL     1     -44.625 -52.195  13.928  1.00  0.00     0.045 C 
HETATM    6  C   UNL     1     -44.136 -51.883  15.385  1.00  0.00    -0.009 C 
HETATM    7  C   UNL     1     -43.173 -52.915  16.002  1.00  0.00     0.011 C 
HETATM    8  C   UNL     1     -45.187 -51.502  16.445  1.00  0.00     0.009 C 
HETATM    9  C   UNL     1     -46.625 -51.263  16.016  1.00  0.00     0.028 C 
HETATM   10  C   UNL     1     -46.927 -51.387  14.569  1.00  0.00    -0.024 C 
HETATM   11  C   UNL     1     -46.066 -51.790  13.624  1.00  0.00    -0.081 C 
HETATM   12  C   UNL     1     -46.523 -51.874  12.189  1.00  0.00     0.043 C 
ENDBRANCH   4   5
ENDBRANCH   2   4
ENDBRANCH   1   2
BRANCH   1  13
HETATM   13  C   UNL     1     -41.002 -52.627  12.338  1.00  0.00     0.110 C 
HETATM   14  C   UNL     1     -40.588 -53.525  13.517  1.00  0.00     0.053 C 
BRANCH  13  15
HETATM   15  O   UNL     1     -40.689 -53.344  11.124  1.00  0.00    -0.383 OA
HETATM   16  H   UNL     1     -41.524 -53.738  10.820  1.00  0.00     0.211 HD
ENDBRANCH  13  15
BRANCH  13  17
HETATM   17  C   UNL     1     -40.247 -51.327  12.364  1.00  0.00     0.011 A 
HETATM   18  C   UNL     1     -40.370 -50.219  11.492  1.00  0.00     0.119 A 
HETATM   19  N   UNL     1     -39.536 -49.223  11.791  1.00  0.00    -0.310 N 
HETATM   20  N   UNL     1     -38.873 -49.681  12.864  1.00  0.00    -0.307 N 
ATOM     21  HN  UNL     1     -39.427 -48.327  11.317  1.00  0.00     0.186 HD
HETATM   22  C   UNL     1     -37.852 -48.883  13.488  1.00  0.00     0.177 C 
HETATM   23  C   UNL     1     -39.262 -50.929  13.247  1.00  0.00     0.121 A 
ENDBRANCH  13  17
ENDBRANCH   1  13
TORSDOF 6
ENDMDL
MODEL 3
REMARK VINA RESULT:      -6.4      1.268      2.616
REMARK  6 active torsions:
REMARK  status: ('A' for Active; 'I' for Inactive)
REMARK    1  A    between atoms: C_8  and  C_9 
REMARK    2  A    between atoms: C_9  and  N_10 
REMARK    3  A    between atoms: N_10  and  C_11 
REMARK    4  A    between atoms: C_11  and  C_12 
REMARK    5  A    between atoms: C_12  and  O_14 
REMARK    6  A    between atoms: C_12  and  C_15 
ROOT
HETATM    1  C   UNL     1     -41.593 -50.918  12.112  1.00  0.00     0.311 C 
ENDROOT
BRANCH   1   2
HETATM    2  N   UNL     1     -41.299 -52.140  11.347  1.00  0.00     0.087 N 
HETATM    3  H   UNL     1     -42.123 -52.373  10.790  1.00  0.00     0.316 HD
BRANCH   2   4
HETATM    4  C   UNL     1     -41.023 -53.274  12.230  1.00  0.00     0.279 C 
BRANCH   4   5
HETATM    5  C   UNL     1     -41.737 -53.119  13.605  1.00  0.00     0.045 C 
HETATM    6  C   UNL     1     -40.793 -53.160  14.857  1.00  0.00    -0.009 C 
HETATM    7  C   UNL     1     -39.286 -53.050  14.560  1.00  0.00     0.011 C 
HETATM    8  C   UNL     1     -41.005 -54.275  15.899  1.00  0.00     0.009 C 
HETATM    9  C   UNL     1     -42.218 -55.181  15.784  1.00  0.00     0.028 C 
HETATM   10  C   UNL     1     -43.158 -54.913  14.668  1.00  0.00    -0.024 C 
HETATM   11  C   UNL     1     -42.976 -54.008  13.696  1.00  0.00    -0.081 C 
HETATM   12  C   UNL     1     -44.022 -53.854  12.619  1.00  0.00     0.043 C 
ENDBRANCH   4   5
ENDBRANCH   2   4
ENDBRANCH   1   2
BRANCH   1  13
HETATM   13  C   UNL     1     -40.885 -49.673  11.490  1.00  0.00     0.110 C 
HETATM   14  C   UNL     1     -39.769 -49.161  12.416  1.00  0.00     0.053 C 
BRANCH  13  15
HETATM   15  O   UNL     1     -40.260 -50.092  10.257  1.00  0.00    -0.383 OA
HETATM   16  H   UNL     1     -39.801 -49.311   9.907  1.00  0.00     0.211 HD
ENDBRANCH  13  15
BRANCH  13  17
HETATM   17  C   UNL     1     -41.885 -48.587  11.204  1.00  0.00     0.011 A 
HETATM   18  C   UNL     1     -42.786 -47.962  12.098  1.00  0.00     0.119 A 
HETATM   19  N   UNL     1     -43.549 -47.038  11.512  1.00  0.00    -0.310 N 
HETATM   20  N   UNL     1     -43.139 -47.059  10.235  1.00  0.00    -0.307 N 
ATOM     21  HN  UNL     1     -44.272 -46.456  11.934  1.00  0.00     0.186 HD
HETATM   22  C   UNL     1     -43.744 -46.193   9.259  1.00  0.00     0.177 C 
HETATM   23  C   UNL     1     -42.147 -47.962  10.000  1.00  0.00     0.121 A 
ENDBRANCH  13  17
ENDBRANCH   1  13
TORSDOF 6
ENDMDL
MODEL 4
REMARK VINA RESULT:      -5.9      2.524      3.937
REMARK  6 active torsions:
REMARK  status: ('A' for Active; 'I' for Inactive)
REMARK    1  A    between atoms: C_8  and  C_9 
REMARK    2  A    between atoms: C_9  and  N_10 
REMARK    3  A    between atoms: N_10  and  C_11 
REMARK    4  A    between atoms: C_11  and  C_12 
REMARK    5  A    between atoms: C_12  and  O_14 
REMARK    6  A    between atoms: C_12  and  C_15 
ROOT
HETATM    1  C   UNL     1     -42.514 -52.401  12.295  1.00  0.00     0.311 C 
ENDROOT
BRANCH   1   2
HETATM    2  N   UNL     1     -43.149 -52.803  13.561  1.00  0.00     0.087 N 
HETATM    3  H   UNL     1     -42.434 -53.229  14.154  1.00  0.00     0.316 HD
BRANCH   2   4
HETATM    4  C   UNL     1     -44.199 -53.799  13.343  1.00  0.00     0.279 C 
BRANCH   4   5
HETATM    5  C   UNL     1     -45.406 -53.581  14.303  1.00  0.00     0.045 C 
HETATM    6  C   UNL     1     -46.514 -52.607  13.772  1.00  0.00    -0.009 C 
HETATM    7  C   UNL     1     -46.417 -52.233  12.282  1.00  0.00     0.011 C 
HETATM    8  C   UNL     1     -46.813 -51.328  14.578  1.00  0.00     0.009 C 
HETATM    9  C   UNL     1     -46.167 -51.137  15.939  1.00  0.00     0.028 C 
HETATM   10  C   UNL     1     -45.292 -52.229  16.430  1.00  0.00    -0.024 C 
HETATM   11  C   UNL     1     -44.942 -53.321  15.735  1.00  0.00    -0.081 C 
HETATM   12  C   UNL     1     -44.035 -54.347  16.369  1.00  0.00     0.043 C 
ENDBRANCH   4   5
ENDBRANCH   2   4
ENDBRANCH   1   2
BRANCH   1  13
HETATM   13  C   UNL     1     -40.968 -52.612  12.341  1.00  0.00     0.110 C 
HETATM   14  C   UNL     1     -40.566 -53.426  13.583  1.00  0.00     0.053 C 
BRANCH  13  15
HETATM   15  O   UNL     1     -40.595 -53.387  11.181  1.00  0.00    -0.383 OA
HETATM   16  H   UNL     1     -41.262 -53.195  10.501  1.00  0.00     0.211 HD
ENDBRANCH  13  15
BRANCH  13  17
HETATM   17  C   UNL     1     -40.254 -51.288  12.314  1.00  0.00     0.011 A 
HETATM   18  C   UNL     1     -38.954 -50.979  12.778  1.00  0.00     0.119 A 
HETATM   19  N   UNL     1     -38.631 -49.696  12.613  1.00  0.00    -0.310 N 
HETATM   20  N   UNL     1     -39.722 -49.171  12.034  1.00  0.00    -0.307 N 
ATOM     21  HN  UNL     1     -37.762 -49.226  12.867  1.00  0.00     0.186 HD
HETATM   22  C   UNL     1     -39.771 -47.772  11.702  1.00  0.00     0.177 C 
HETATM   23  C   UNL     1     -40.717 -50.079  11.832  1.00  0.00     0.121 A 
ENDBRANCH  13  17
ENDBRANCH   1  13
TORSDOF 6
ENDMDL
MODEL 5
REMARK VINA RESULT:      -5.8      3.067      4.714
REMARK  6 active torsions:
REMARK  status: ('A' for Active; 'I' for Inactive)
REMARK    1  A    between atoms: C_8  and  C_9 
REMARK    2  A    between atoms: C_9  and  N_10 
REMARK    3  A    between atoms: N_10  and  C_11 
REMARK    4  A    between atoms: C_11  and  C_12 
REMARK    5  A    between atoms: C_12  and  O_14 
REMARK    6  A    between atoms: C_12  and  C_15 
ROOT
HETATM    1  C   UNL     1     -41.828 -54.200  13.890  1.00  0.00     0.311 C 
ENDROOT
BRANCH   1   2
HETATM    2  N   UNL     1     -42.678 -53.365  14.754  1.00  0.00     0.087 N 
HETATM    3  H   UNL     1     -42.070 -52.764  15.314  1.00  0.00     0.316 HD
BRANCH   2   4
HETATM    4  C   UNL     1     -43.472 -54.178  15.676  1.00  0.00     0.279 C 
BRANCH   4   5
HETATM    5  C   UNL     1     -44.909 -53.604  15.858  1.00  0.00     0.045 C 
HETATM    6  C   UNL     1     -45.937 -54.010  14.746  1.00  0.00    -0.009 C 
HETATM    7  C   UNL     1     -45.487 -55.140  13.801  1.00  0.00     0.011 C 
HETATM    8  C   UNL     1     -46.582 -52.895  13.902  1.00  0.00     0.009 C 
HETATM    9  C   UNL     1     -46.349 -51.443  14.282  1.00  0.00     0.028 C 
HETATM   10  C   UNL     1     -45.520 -51.185  15.486  1.00  0.00    -0.024 C 
HETATM   11  C   UNL     1     -44.877 -52.117  16.204  1.00  0.00    -0.081 C 
HETATM   12  C   UNL     1     -44.063 -51.699  17.404  1.00  0.00     0.043 C 
ENDBRANCH   4   5
ENDBRANCH   2   4
ENDBRANCH   1   2
BRANCH   1  13
HETATM   13  C   UNL     1     -40.381 -53.624  13.788  1.00  0.00     0.110 C 
HETATM   14  C   UNL     1     -39.814 -53.323  15.186  1.00  0.00     0.053 C 
BRANCH  13  15
HETATM   15  O   UNL     1     -39.544 -54.641  13.196  1.00  0.00    -0.383 OA
HETATM   16  H   UNL     1     -39.901 -54.803  12.307  1.00  0.00     0.211 HD
ENDBRANCH  13  15
BRANCH  13  17
HETATM   17  C   UNL     1     -40.364 -52.392  12.926  1.00  0.00     0.011 A 
HETATM   18  C   UNL     1     -41.149 -52.104  11.785  1.00  0.00     0.119 A 
HETATM   19  N   UNL     1     -40.871 -50.918  11.244  1.00  0.00    -0.310 N 
HETATM   20  N   UNL     1     -39.907 -50.430  12.039  1.00  0.00    -0.307 N 
ATOM     21  HN  UNL     1     -41.291 -50.484  10.422  1.00  0.00     0.186 HD
HETATM   22  C   UNL     1     -39.319 -49.144  11.771  1.00  0.00     0.177 C 
HETATM   23  C   UNL     1     -39.570 -51.269  13.058  1.00  0.00     0.121 A 
ENDBRANCH  13  17
ENDBRANCH   1  13
TORSDOF 6
ENDMDL
MODEL 6
REMARK VINA RESULT:      -5.8      2.838      7.250
REMARK  6 active torsions:
REMARK  status: ('A' for Active; 'I' for Inactive)
REMARK    1  A    between atoms: C_8  and  C_9 
REMARK    2  A    between atoms: C_9  and  N_10 
REMARK    3  A    between atoms: N_10  and  C_11 
REMARK    4  A    between atoms: C_11  and  C_12 
REMARK    5  A    between atoms: C_12  and  O_14 
REMARK    6  A    between atoms: C_12  and  C_15 
ROOT
HETATM    1  C   UNL     1     -41.261 -51.547  12.625  1.00  0.00     0.311 C 
ENDROOT
BRANCH   1   2
HETATM    2  N   UNL     1     -40.820 -51.020  11.323  1.00  0.00     0.087 N 
HETATM    3  H   UNL     1     -40.278 -51.748  10.852  1.00  0.00     0.316 HD
BRANCH   2   4
HETATM    4  C   UNL     1     -39.954 -49.851  11.481  1.00  0.00     0.279 C 
BRANCH   4   5
HETATM    5  C   UNL     1     -39.702 -49.521  12.982  1.00  0.00     0.045 C 
HETATM    6  C   UNL     1     -40.442 -48.247  13.519  1.00  0.00    -0.009 C 
HETATM    7  C   UNL     1     -41.534 -47.671  12.599  1.00  0.00     0.011 C 
HETATM    8  C   UNL     1     -39.594 -47.081  14.061  1.00  0.00     0.009 C 
HETATM    9  C   UNL     1     -38.095 -47.263  14.228  1.00  0.00     0.028 C 
HETATM   10  C   UNL     1     -37.534 -48.590  13.877  1.00  0.00    -0.024 C 
HETATM   11  C   UNL     1     -38.217 -49.607  13.332  1.00  0.00    -0.081 C 
HETATM   12  C   UNL     1     -37.504 -50.901  13.023  1.00  0.00     0.043 C 
ENDBRANCH   4   5
ENDBRANCH   2   4
ENDBRANCH   1   2
BRANCH   1  13
HETATM   13  C   UNL     1     -41.115 -53.099  12.690  1.00  0.00     0.110 C 
HETATM   14  C   UNL     1     -42.488 -53.769  12.871  1.00  0.00     0.053 C 
BRANCH  13  15
HETATM   15  O   UNL     1     -40.584 -53.545  11.423  1.00  0.00    -0.383 OA
HETATM   16  H   UNL     1     -40.497 -52.750  10.871  1.00  0.00     0.211 HD
ENDBRANCH  13  15
BRANCH  13  17
HETATM   17  C   UNL     1     -40.176 -53.494  13.797  1.00  0.00     0.011 A 
HETATM   18  C   UNL     1     -39.317 -54.616  13.865  1.00  0.00     0.119 A 
HETATM   19  N   UNL     1     -38.623 -54.675  15.002  1.00  0.00    -0.310 N 
HETATM   20  N   UNL     1     -39.028 -53.585  15.672  1.00  0.00    -0.307 N 
ATOM     21  HN  UNL     1     -37.947 -55.381  15.293  1.00  0.00     0.186 HD
HETATM   22  C   UNL     1     -38.506 -53.297  16.982  1.00  0.00     0.177 C 
HETATM   23  C   UNL     1     -39.950 -52.846  14.996  1.00  0.00     0.121 A 
ENDBRANCH  13  17
ENDBRANCH   1  13
TORSDOF 6
ENDMDL
MODEL 7
REMARK VINA RESULT:      -5.6      1.601      1.947
REMARK  6 active torsions:
REMARK  status: ('A' for Active; 'I' for Inactive)
REMARK    1  A    between atoms: C_8  and  C_9 
REMARK    2  A    between atoms: C_9  and  N_10 
REMARK    3  A    between atoms: N_10  and  C_11 
REMARK    4  A    between atoms: C_11  and  C_12 
REMARK    5  A    between atoms: C_12  and  O_14 
REMARK    6  A    between atoms: C_12  and  C_15 
ROOT
HETATM    1  C   UNL     1     -42.308 -49.015  12.692  1.00  0.00     0.311 C 
ENDROOT
BRANCH   1   2
HETATM    2  N   UNL     1     -43.421 -49.903  12.319  1.00  0.00     0.087 N 
HETATM    3  H   UNL     1     -44.254 -49.328  12.181  1.00  0.00     0.316 HD
BRANCH   2   4
HETATM    4  C   UNL     1     -43.716 -50.870  13.377  1.00  0.00     0.279 C 
BRANCH   4   5
HETATM    5  C   UNL     1     -43.773 -52.326  12.826  1.00  0.00     0.045 C 
HETATM    6  C   UNL     1     -45.204 -52.964  12.773  1.00  0.00    -0.009 C 
HETATM    7  C   UNL     1     -46.379 -51.991  12.985  1.00  0.00     0.011 C 
HETATM    8  C   UNL     1     -45.470 -54.237  13.599  1.00  0.00     0.009 C 
HETATM    9  C   UNL     1     -44.309 -54.934  14.289  1.00  0.00     0.028 C 
HETATM   10  C   UNL     1     -42.960 -54.349  14.095  1.00  0.00    -0.024 C 
HETATM   11  C   UNL     1     -42.691 -53.204  13.451  1.00  0.00    -0.081 C 
HETATM   12  C   UNL     1     -41.263 -52.731  13.342  1.00  0.00     0.043 C 
ENDBRANCH   4   5
ENDBRANCH   2   4
ENDBRANCH   1   2
BRANCH   1  13
HETATM   13  C   UNL     1     -41.416 -48.670  11.459  1.00  0.00     0.110 C 
HETATM   14  C   UNL     1     -40.322 -49.734  11.263  1.00  0.00     0.053 C 
BRANCH  13  15
HETATM   15  O   UNL     1     -42.257 -48.700  10.285  1.00  0.00    -0.383 OA
HETATM   16  H   UNL     1     -41.662 -48.837   9.529  1.00  0.00     0.211 HD
ENDBRANCH  13  15
BRANCH  13  17
HETATM   17  C   UNL     1     -40.811 -47.302  11.612  1.00  0.00     0.011 A 
HETATM   18  C   UNL     1     -39.861 -46.860  12.562  1.00  0.00     0.119 A 
HETATM   19  N   UNL     1     -39.545 -45.571  12.425  1.00  0.00    -0.310 N 
HETATM   20  N   UNL     1     -40.287 -45.177  11.380  1.00  0.00    -0.307 N 
ATOM     21  HN  UNL     1     -38.895 -45.018  12.983  1.00  0.00     0.186 HD
HETATM   22  C   UNL     1     -40.235 -43.814  10.920  1.00  0.00     0.177 C 
HETATM   23  C   UNL     1     -41.057 -46.171  10.857  1.00  0.00     0.121 A 
ENDBRANCH  13  17
ENDBRANCH   1  13
TORSDOF 6
ENDMDL
MODEL 8
REMARK VINA RESULT:      -5.4      3.768      5.266
REMARK  6 active torsions:
REMARK  status: ('A' for Active; 'I' for Inactive)
REMARK    1  A    between atoms: C_8  and  C_9 
REMARK    2  A    between atoms: C_9  and  N_10 
REMARK    3  A    between atoms: N_10  and  C_11 
REMARK    4  A    between atoms: C_11  and  C_12 
REMARK    5  A    between atoms: C_12  and  O_14 
REMARK    6  A    between atoms: C_12  and  C_15 
ROOT
HETATM    1  C   UNL     1     -41.119 -53.770  12.891  1.00  0.00     0.311 C 
ENDROOT
BRANCH   1   2
HETATM    2  N   UNL     1     -42.344 -53.265  13.532  1.00  0.00     0.087 N 
HETATM    3  H   UNL     1     -42.667 -53.968  14.200  1.00  0.00     0.316 HD
BRANCH   2   4
HETATM    4  C   UNL     1     -43.413 -53.051  12.557  1.00  0.00     0.279 C 
BRANCH   4   5
HETATM    5  C   UNL     1     -44.753 -52.662  13.248  1.00  0.00     0.045 C 
HETATM    6  C   UNL     1     -44.839 -51.179  13.751  1.00  0.00    -0.009 C 
HETATM    7  C   UNL     1     -43.733 -50.236  13.244  1.00  0.00     0.011 C 
HETATM    8  C   UNL     1     -45.044 -50.928  15.257  1.00  0.00     0.009 C 
HETATM    9  C   UNL     1     -45.334 -52.101  16.177  1.00  0.00     0.028 C 
HETATM   10  C   UNL     1     -45.433 -53.442  15.549  1.00  0.00    -0.024 C 
HETATM   11  C   UNL     1     -45.189 -53.720  14.260  1.00  0.00    -0.081 C 
HETATM   12  C   UNL     1     -45.325 -55.139  13.767  1.00  0.00     0.043 C 
ENDBRANCH   4   5
ENDBRANCH   2   4
ENDBRANCH   1   2
BRANCH   1  13
HETATM   13  C   UNL     1     -39.958 -53.923  13.923  1.00  0.00     0.110 C 
HETATM   14  C   UNL     1     -40.449 -54.640  15.192  1.00  0.00     0.053 C 
BRANCH  13  15
HETATM   15  O   UNL     1     -38.944 -54.759  13.324  1.00  0.00    -0.383 OA
HETATM   16  H   UNL     1     -38.600 -55.322  14.038  1.00  0.00     0.211 HD
ENDBRANCH  13  15
BRANCH  13  17
HETATM   17  C   UNL     1     -39.370 -52.580  14.259  1.00  0.00     0.011 A 
HETATM   18  C   UNL     1     -39.067 -52.045  15.533  1.00  0.00     0.119 A 
HETATM   19  N   UNL     1     -38.564 -50.812  15.475  1.00  0.00    -0.310 N 
HETATM   20  N   UNL     1     -38.533 -50.547  14.161  1.00  0.00    -0.307 N 
ATOM     21  HN  UNL     1     -38.272 -50.212  16.248  1.00  0.00     0.186 HD
HETATM   22  C   UNL     1     -38.055 -49.277  13.682  1.00  0.00     0.177 C 
HETATM   23  C   UNL     1     -39.001 -51.569  13.392  1.00  0.00     0.121 A 
ENDBRANCH  13  17
ENDBRANCH   1  13
TORSDOF 6
ENDMDL
MODEL 9
REMARK VINA RESULT:      -5.3      2.345      3.454
REMARK  6 active torsions:
REMARK  status: ('A' for Active; 'I' for Inactive)
REMARK    1  A    between atoms: C_8  and  C_9 
REMARK    2  A    between atoms: C_9  and  N_10 
REMARK    3  A    between atoms: N_10  and  C_11 
REMARK    4  A    between atoms: C_11  and  C_12 
REMARK    5  A    between atoms: C_12  and  O_14 
REMARK    6  A    between atoms: C_12  and  C_15 
ROOT
HETATM    1  C   UNL     1     -42.139 -50.481  14.297  1.00  0.00     0.311 C 
ENDROOT
BRANCH   1   2
HETATM    2  N   UNL     1     -43.343 -50.616  15.134  1.00  0.00     0.087 N 
HETATM    3  H   UNL     1     -43.237 -50.002  15.944  1.00  0.00     0.316 HD
BRANCH   2   4
HETATM    4  C   UNL     1     -43.503 -51.984  15.629  1.00  0.00     0.279 C 
BRANCH   4   5
HETATM    5  C   UNL     1     -44.790 -52.653  15.064  1.00  0.00     0.045 C 
HETATM    6  C   UNL     1     -44.592 -53.475  13.743  1.00  0.00    -0.009 C 
HETATM    7  C   UNL     1     -43.131 -53.758  13.346  1.00  0.00     0.011 C 
HETATM    8  C   UNL     1     -45.364 -53.036  12.484  1.00  0.00     0.009 C 
HETATM    9  C   UNL     1     -46.419 -51.950  12.597  1.00  0.00     0.028 C 
HETATM   10  C   UNL     1     -46.665 -51.387  13.948  1.00  0.00    -0.024 C 
HETATM   11  C   UNL     1     -45.969 -51.681  15.054  1.00  0.00    -0.081 C 
HETATM   12  C   UNL     1     -46.334 -51.020  16.361  1.00  0.00     0.043 C 
ENDBRANCH   4   5
ENDBRANCH   2   4
ENDBRANCH   1   2
BRANCH   1  13
HETATM   13  C   UNL     1     -41.858 -48.987  13.942  1.00  0.00     0.110 C 
HETATM   14  C   UNL     1     -42.863 -48.061  14.649  1.00  0.00     0.053 C 
BRANCH  13  15
HETATM   15  O   UNL     1     -40.544 -48.656  14.442  1.00  0.00    -0.383 OA
HETATM   16  H   UNL     1     -40.423 -47.706  14.277  1.00  0.00     0.211 HD
ENDBRANCH  13  15
BRANCH  13  17
HETATM   17  C   UNL     1     -41.897 -48.784  12.452  1.00  0.00     0.011 A 
HETATM   18  C   UNL     1     -41.001 -49.273  11.473  1.00  0.00     0.119 A 
HETATM   19  N   UNL     1     -41.321 -48.893  10.235  1.00  0.00    -0.310 N 
HETATM   20  N   UNL     1     -42.431 -48.161  10.410  1.00  0.00    -0.307 N 
ATOM     21  HN  UNL     1     -40.837 -49.108   9.364  1.00  0.00     0.186 HD
HETATM   22  C   UNL     1     -43.089 -47.550   9.286  1.00  0.00     0.177 C 
HETATM   23  C   UNL     1     -42.818 -48.067  11.713  1.00  0.00     0.121 A 
ENDBRANCH  13  17
ENDBRANCH   1  13
TORSDOF 6
ENDMDL
