MODEL 1
REMARK VINA RESULT:      -5.2      0.000      0.000
REMARK  5 active torsions:
REMARK  status: ('A' for Active; 'I' for Inactive)
REMARK    1  A    between atoms: C_3  and  N_4 
REMARK    2  A    between atoms: C_7  and  N_10 
REMARK    3  A    between atoms: N_10  and  C_11 
REMARK    4  A    between atoms: C_11  and  C_12 
REMARK    5  A    between atoms: C_12  and  C_13 
ROOT
HETATM    1  C   UNL     1     -47.576 -51.234  16.412  1.00  0.00     0.013 C 
HETATM    2  C   UNL     1     -47.099 -51.987  15.461  1.00  0.00    -0.087 C 
HETATM    3  C   UNL     1     -46.542 -52.865  14.352  1.00  0.00     0.364 C 
ENDROOT
BRANCH   3   4
HETATM    4  N   UNL     1     -45.468 -53.752  14.796  1.00  0.00     0.099 N 
HETATM    5  C   UNL     1     -44.309 -53.032  15.348  1.00  0.00     0.275 C 
HETATM    6  C   UNL     1     -43.513 -52.245  14.308  1.00  0.00     0.066 C 
HETATM    7  C   UNL     1     -43.102 -53.110  13.105  1.00  0.00     0.223 C 
HETATM    8  C   UNL     1     -44.331 -53.858  12.568  1.00  0.00     0.066 C 
HETATM    9  C   UNL     1     -45.057 -54.620  13.680  1.00  0.00     0.275 C 
BRANCH   7  10
HETATM   10  N   UNL     1     -41.992 -53.999  13.490  1.00  0.00     0.088 N 
HETATM   11  H   UNL     1     -42.213 -54.962  13.231  1.00  0.00     0.316 HD
BRANCH  10  12
HETATM   12  C   UNL     1     -40.694 -53.644  12.902  1.00  0.00     0.274 C 
BRANCH  12  13
HETATM   13  C   UNL     1     -39.949 -52.568  13.699  1.00  0.00     0.068 C 
BRANCH  13  14
HETATM   14  C   UNL     1     -39.534 -51.407  12.838  1.00  0.00    -0.054 A 
HETATM   15  C   UNL     1     -38.194 -51.008  12.781  1.00  0.00     0.024 A 
HETATM   16  C   UNL     1     -37.856 -49.944  11.960  1.00  0.00     0.088 A 
HETATM   17  N   UNL     1     -38.749 -49.259  11.216  1.00  0.00    -0.375 N 
HETATM   18  C   UNL     1     -40.037 -49.654  11.295  1.00  0.00     0.088 A 
ATOM     19  HN  UNL     1     -38.463 -48.480  10.622  1.00  0.00     0.164 HD
HETATM   20  C   UNL     1     -40.475 -50.705  12.083  1.00  0.00     0.024 A 
ENDBRANCH  13  14
ENDBRANCH  12  13
ENDBRANCH  10  12
ENDBRANCH   7  10
ENDBRANCH   3   4
TORSDOF 5
ENDMDL
MODEL 2
REMARK VINA RESULT:      -5.1      2.254      6.862
REMARK  5 active torsions:
REMARK  status: ('A' for Active; 'I' for Inactive)
REMARK    1  A    between atoms: C_3  and  N_4 
REMARK    2  A    between atoms: C_7  and  N_10 
REMARK    3  A    between atoms: N_10  and  C_11 
REMARK    4  A    between atoms: C_11  and  C_12 
REMARK    5  A    between atoms: C_12  and  C_13 
ROOT
HETATM    1  C   UNL     1     -38.747 -55.299  15.486  1.00  0.00     0.013 C 
HETATM    2  C   UNL     1     -39.194 -54.315  14.758  1.00  0.00    -0.087 C 
HETATM    3  C   UNL     1     -39.716 -53.167  13.908  1.00  0.00     0.364 C 
ENDROOT
BRANCH   3   4
HETATM    4  N   UNL     1     -40.623 -53.596  12.844  1.00  0.00     0.099 N 
HETATM    5  C   UNL     1     -41.057 -52.494  11.971  1.00  0.00     0.275 C 
HETATM    6  C   UNL     1     -41.991 -51.493  12.650  1.00  0.00     0.066 C 
HETATM    7  C   UNL     1     -43.196 -52.174  13.318  1.00  0.00     0.223 C 
HETATM    8  C   UNL     1     -42.707 -53.327  14.206  1.00  0.00     0.066 C 
HETATM    9  C   UNL     1     -41.785 -54.278  13.437  1.00  0.00     0.275 C 
BRANCH   7  10
HETATM   10  N   UNL     1     -44.163 -52.593  12.288  1.00  0.00     0.088 N 
HETATM   11  H   UNL     1     -43.709 -53.216  11.618  1.00  0.00     0.316 HD
BRANCH  10  12
HETATM   12  C   UNL     1     -45.360 -53.262  12.811  1.00  0.00     0.274 C 
BRANCH  12  13
HETATM   13  C   UNL     1     -46.416 -52.282  13.334  1.00  0.00     0.068 C 
BRANCH  13  14
HETATM   14  C   UNL     1     -46.537 -52.321  14.832  1.00  0.00    -0.054 A 
HETATM   15  C   UNL     1     -46.054 -53.419  15.555  1.00  0.00     0.024 A 
HETATM   16  C   UNL     1     -46.171 -53.403  16.935  1.00  0.00     0.088 A 
HETATM   17  N   UNL     1     -46.737 -52.393  17.628  1.00  0.00    -0.375 N 
HETATM   18  C   UNL     1     -47.206 -51.352  16.910  1.00  0.00     0.088 A 
ATOM     19  HN  UNL     1     -46.807 -52.417  18.645  1.00  0.00     0.164 HD
HETATM   20  C   UNL     1     -47.135 -51.271  15.529  1.00  0.00     0.024 A 
ENDBRANCH  13  14
ENDBRANCH  12  13
ENDBRANCH  10  12
ENDBRANCH   7  10
ENDBRANCH   3   4
TORSDOF 5
ENDMDL
MODEL 3
REMARK VINA RESULT:      -5.0      2.369      3.306
REMARK  5 active torsions:
REMARK  status: ('A' for Active; 'I' for Inactive)
REMARK    1  A    between atoms: C_3  and  N_4 
REMARK    2  A    between atoms: C_7  and  N_10 
REMARK    3  A    between atoms: N_10  and  C_11 
REMARK    4  A    between atoms: C_11  and  C_12 
REMARK    5  A    between atoms: C_12  and  C_13 
ROOT
HETATM    1  C   UNL     1     -47.693 -51.175  16.781  1.00  0.00     0.013 C 
HETATM    2  C   UNL     1     -47.230 -51.871  15.781  1.00  0.00    -0.087 C 
HETATM    3  C   UNL     1     -46.690 -52.682  14.614  1.00  0.00     0.364 C 
ENDROOT
BRANCH   3   4
HETATM    4  N   UNL     1     -46.115 -51.860  13.550  1.00  0.00     0.099 N 
HETATM    5  C   UNL     1     -45.743 -52.633  12.355  1.00  0.00     0.275 C 
HETATM    6  C   UNL     1     -44.551 -53.567  12.564  1.00  0.00     0.066 C 
HETATM    7  C   UNL     1     -43.332 -52.839  13.151  1.00  0.00     0.223 C 
HETATM    8  C   UNL     1     -43.761 -52.030  14.384  1.00  0.00     0.066 C 
HETATM    9  C   UNL     1     -44.954 -51.122  14.075  1.00  0.00     0.275 C 
BRANCH   7  10
HETATM   10  N   UNL     1     -42.690 -52.022  12.105  1.00  0.00     0.088 N 
HETATM   11  H   UNL     1     -43.383 -51.416  11.664  1.00  0.00     0.316 HD
BRANCH  10  12
HETATM   12  C   UNL     1     -41.575 -51.192  12.577  1.00  0.00     0.274 C 
BRANCH  12  13
HETATM   13  C   UNL     1     -41.054 -50.222  11.511  1.00  0.00     0.068 C 
BRANCH  13  14
HETATM   14  C   UNL     1     -41.809 -48.921  11.509  1.00  0.00    -0.054 A 
HETATM   15  C   UNL     1     -41.967 -48.194  10.323  1.00  0.00     0.024 A 
HETATM   16  C   UNL     1     -42.685 -47.010  10.366  1.00  0.00     0.088 A 
HETATM   17  N   UNL     1     -43.235 -46.507  11.491  1.00  0.00    -0.375 N 
HETATM   18  C   UNL     1     -43.060 -47.219  12.624  1.00  0.00     0.088 A 
ATOM     19  HN  UNL     1     -43.757 -45.631  11.485  1.00  0.00     0.164 HD
HETATM   20  C   UNL     1     -42.362 -48.413  12.685  1.00  0.00     0.024 A 
ENDBRANCH  13  14
ENDBRANCH  12  13
ENDBRANCH  10  12
ENDBRANCH   7  10
ENDBRANCH   3   4
TORSDOF 5
ENDMDL
MODEL 4
REMARK VINA RESULT:      -4.9      2.169      3.209
REMARK  5 active torsions:
REMARK  status: ('A' for Active; 'I' for Inactive)
REMARK    1  A    between atoms: C_3  and  N_4 
REMARK    2  A    between atoms: C_7  and  N_10 
REMARK    3  A    between atoms: N_10  and  C_11 
REMARK    4  A    between atoms: C_11  and  C_12 
REMARK    5  A    between atoms: C_12  and  C_13 
ROOT
HETATM    1  C   UNL     1     -47.935 -50.866  16.982  1.00  0.00     0.013 C 
HETATM    2  C   UNL     1     -47.363 -51.646  16.108  1.00  0.00    -0.087 C 
HETATM    3  C   UNL     1     -46.695 -52.555  15.089  1.00  0.00     0.364 C 
ENDROOT
BRANCH   3   4
HETATM    4  N   UNL     1     -46.139 -51.835  13.943  1.00  0.00     0.099 N 
HETATM    5  C   UNL     1     -46.061 -52.655  12.724  1.00  0.00     0.275 C 
HETATM    6  C   UNL     1     -45.022 -53.774  12.792  1.00  0.00     0.066 C 
HETATM    7  C   UNL     1     -43.632 -53.260  13.200  1.00  0.00     0.223 C 
HETATM    8  C   UNL     1     -43.755 -52.396  14.464  1.00  0.00     0.066 C 
HETATM    9  C   UNL     1     -44.813 -51.302  14.297  1.00  0.00     0.275 C 
BRANCH   7  10
HETATM   10  N   UNL     1     -43.009 -52.557  12.064  1.00  0.00     0.088 N 
HETATM   11  H   UNL     1     -43.452 -51.647  11.934  1.00  0.00     0.316 HD
BRANCH  10  12
HETATM   12  C   UNL     1     -41.560 -52.358  12.191  1.00  0.00     0.274 C 
BRANCH  12  13
HETATM   13  C   UNL     1     -40.816 -53.625  12.629  1.00  0.00     0.068 C 
BRANCH  13  14
HETATM   14  C   UNL     1     -40.077 -53.431  13.924  1.00  0.00    -0.054 A 
HETATM   15  C   UNL     1     -39.651 -54.536  14.671  1.00  0.00     0.024 A 
HETATM   16  C   UNL     1     -38.959 -54.309  15.849  1.00  0.00     0.088 A 
HETATM   17  N   UNL     1     -38.677 -53.080  16.328  1.00  0.00    -0.375 N 
HETATM   18  C   UNL     1     -39.107 -52.030  15.597  1.00  0.00     0.088 A 
ATOM     19  HN  UNL     1     -38.164 -52.951  17.200  1.00  0.00     0.164 HD
HETATM   20  C   UNL     1     -39.804 -52.151  14.407  1.00  0.00     0.024 A 
ENDBRANCH  13  14
ENDBRANCH  12  13
ENDBRANCH  10  12
ENDBRANCH   7  10
ENDBRANCH   3   4
TORSDOF 5
ENDMDL
MODEL 5
REMARK VINA RESULT:      -4.8      2.419      3.558
REMARK  5 active torsions:
REMARK  status: ('A' for Active; 'I' for Inactive)
REMARK    1  A    between atoms: C_3  and  N_4 
REMARK    2  A    between atoms: C_7  and  N_10 
REMARK    3  A    between atoms: N_10  and  C_11 
REMARK    4  A    between atoms: C_11  and  C_12 
REMARK    5  A    between atoms: C_12  and  C_13 
ROOT
HETATM    1  C   UNL     1     -47.584 -51.256  16.592  1.00  0.00     0.013 C 
HETATM    2  C   UNL     1     -47.183 -52.013  15.610  1.00  0.00    -0.087 C 
HETATM    3  C   UNL     1     -46.715 -52.897  14.465  1.00  0.00     0.364 C 
ENDROOT
BRANCH   3   4
HETATM    4  N   UNL     1     -45.754 -53.920  14.874  1.00  0.00     0.099 N 
HETATM    5  C   UNL     1     -44.591 -53.372  15.590  1.00  0.00     0.275 C 
HETATM    6  C   UNL     1     -43.653 -52.545  14.711  1.00  0.00     0.066 C 
HETATM    7  C   UNL     1     -43.216 -53.299  13.446  1.00  0.00     0.223 C 
HETATM    8  C   UNL     1     -44.452 -53.871  12.736  1.00  0.00     0.066 C 
HETATM    9  C   UNL     1     -45.324 -54.688  13.694  1.00  0.00     0.275 C 
BRANCH   7  10
HETATM   10  N   UNL     1     -42.214 -54.322  13.799  1.00  0.00     0.088 N 
HETATM   11  H   UNL     1     -42.593 -55.254  13.624  1.00  0.00     0.316 HD
BRANCH  10  12
HETATM   12  C   UNL     1     -40.937 -54.195  13.087  1.00  0.00     0.274 C 
BRANCH  12  13
HETATM   13  C   UNL     1     -39.981 -53.190  13.740  1.00  0.00     0.068 C 
BRANCH  13  14
HETATM   14  C   UNL     1     -39.321 -53.750  14.970  1.00  0.00    -0.054 A 
HETATM   15  C   UNL     1     -39.110 -52.942  16.093  1.00  0.00     0.024 A 
HETATM   16  C   UNL     1     -38.514 -53.506  17.209  1.00  0.00     0.088 A 
HETATM   17  N   UNL     1     -38.113 -54.792  17.276  1.00  0.00    -0.375 N 
HETATM   18  C   UNL     1     -38.317 -55.550  16.177  1.00  0.00     0.088 A 
ATOM     19  HN  UNL     1     -37.677 -55.174  18.115  1.00  0.00     0.164 HD
HETATM   20  C   UNL     1     -38.905 -55.081  15.015  1.00  0.00     0.024 A 
ENDBRANCH  13  14
ENDBRANCH  12  13
ENDBRANCH  10  12
ENDBRANCH   7  10
ENDBRANCH   3   4
TORSDOF 5
ENDMDL
MODEL 6
REMARK VINA RESULT:      -4.8      1.610      2.379
REMARK  5 active torsions:
REMARK  status: ('A' for Active; 'I' for Inactive)
REMARK    1  A    between atoms: C_3  and  N_4 
REMARK    2  A    between atoms: C_7  and  N_10 
REMARK    3  A    between atoms: N_10  and  C_11 
REMARK    4  A    between atoms: C_11  and  C_12 
REMARK    5  A    between atoms: C_12  and  C_13 
ROOT
HETATM    1  C   UNL     1     -47.802 -51.113  16.616  1.00  0.00     0.013 C 
HETATM    2  C   UNL     1     -47.052 -51.844  15.842  1.00  0.00    -0.087 C 
HETATM    3  C   UNL     1     -46.176 -52.697  14.937  1.00  0.00     0.364 C 
ENDROOT
BRANCH   3   4
HETATM    4  N   UNL     1     -45.745 -52.005  13.723  1.00  0.00     0.099 N 
HETATM    5  C   UNL     1     -45.565 -52.906  12.574  1.00  0.00     0.275 C 
HETATM    6  C   UNL     1     -44.373 -53.853  12.708  1.00  0.00     0.066 C 
HETATM    7  C   UNL     1     -43.068 -53.112  13.037  1.00  0.00     0.223 C 
HETATM    8  C   UNL     1     -43.299 -52.170  14.229  1.00  0.00     0.066 C 
HETATM    9  C   UNL     1     -44.507 -51.258  13.999  1.00  0.00     0.275 C 
BRANCH   7  10
HETATM   10  N   UNL     1     -42.568 -52.426  11.832  1.00  0.00     0.088 N 
HETATM   11  H   UNL     1     -42.998 -51.503  11.755  1.00  0.00     0.316 HD
BRANCH  10  12
HETATM   12  C   UNL     1     -41.109 -52.269  11.780  1.00  0.00     0.274 C 
BRANCH  12  13
HETATM   13  C   UNL     1     -40.658 -50.808  11.886  1.00  0.00     0.068 C 
BRANCH  13  14
HETATM   14  C   UNL     1     -39.602 -50.614  12.938  1.00  0.00    -0.054 A 
HETATM   15  C   UNL     1     -39.434 -51.558  13.958  1.00  0.00     0.024 A 
HETATM   16  C   UNL     1     -38.436 -51.345  14.896  1.00  0.00     0.088 A 
HETATM   17  N   UNL     1     -37.618 -50.272  14.890  1.00  0.00    -0.375 N 
HETATM   18  C   UNL     1     -37.806 -49.370  13.904  1.00  0.00     0.088 A 
ATOM     19  HN  UNL     1     -36.893 -50.149  15.597  1.00  0.00     0.164 HD
HETATM   20  C   UNL     1     -38.773 -49.492  12.920  1.00  0.00     0.024 A 
ENDBRANCH  13  14
ENDBRANCH  12  13
ENDBRANCH  10  12
ENDBRANCH   7  10
ENDBRANCH   3   4
TORSDOF 5
ENDMDL
MODEL 7
REMARK VINA RESULT:      -4.7      1.789      2.465
REMARK  5 active torsions:
REMARK  status: ('A' for Active; 'I' for Inactive)
REMARK    1  A    between atoms: C_3  and  N_4 
REMARK    2  A    between atoms: C_7  and  N_10 
REMARK    3  A    between atoms: N_10  and  C_11 
REMARK    4  A    between atoms: C_11  and  C_12 
REMARK    5  A    between atoms: C_12  and  C_13 
ROOT
HETATM    1  C   UNL     1     -47.466 -51.274  11.143  1.00  0.00     0.013 C 
HETATM    2  C   UNL     1     -46.653 -51.988  11.869  1.00  0.00    -0.087 C 
HETATM    3  C   UNL     1     -45.704 -52.821  12.717  1.00  0.00     0.364 C 
ENDROOT
BRANCH   3   4
HETATM    4  N   UNL     1     -45.039 -52.054  13.770  1.00  0.00     0.099 N 
HETATM    5  C   UNL     1     -43.971 -51.178  13.265  1.00  0.00     0.275 C 
HETATM    6  C   UNL     1     -42.744 -51.928  12.746  1.00  0.00     0.066 C 
HETATM    7  C   UNL     1     -42.194 -52.932  13.770  1.00  0.00     0.223 C 
HETATM    8  C   UNL     1     -43.338 -53.817  14.288  1.00  0.00     0.066 C 
HETATM    9  C   UNL     1     -44.516 -52.977  14.790  1.00  0.00     0.275 C 
BRANCH   7  10
HETATM   10  N   UNL     1     -41.478 -52.211  14.838  1.00  0.00     0.088 N 
HETATM   11  H   UNL     1     -41.874 -52.455  15.747  1.00  0.00     0.316 HD
BRANCH  10  12
HETATM   12  C   UNL     1     -40.031 -52.458  14.876  1.00  0.00     0.274 C 
BRANCH  12  13
HETATM   13  C   UNL     1     -39.204 -51.171  14.967  1.00  0.00     0.068 C 
BRANCH  13  14
HETATM   14  C   UNL     1     -38.844 -50.630  13.611  1.00  0.00    -0.054 A 
HETATM   15  C   UNL     1     -39.678 -49.705  12.971  1.00  0.00     0.024 A 
HETATM   16  C   UNL     1     -39.297 -49.221  11.730  1.00  0.00     0.088 A 
HETATM   17  N   UNL     1     -38.169 -49.597  11.093  1.00  0.00    -0.375 N 
HETATM   18  C   UNL     1     -37.386 -50.498  11.724  1.00  0.00     0.088 A 
ATOM     19  HN  UNL     1     -37.920 -49.219  10.179  1.00  0.00     0.164 HD
HETATM   20  C   UNL     1     -37.678 -51.039  12.964  1.00  0.00     0.024 A 
ENDBRANCH  13  14
ENDBRANCH  12  13
ENDBRANCH  10  12
ENDBRANCH   7  10
ENDBRANCH   3   4
TORSDOF 5
ENDMDL
MODEL 8
REMARK VINA RESULT:      -4.7      2.288      7.340
REMARK  5 active torsions:
REMARK  status: ('A' for Active; 'I' for Inactive)
REMARK    1  A    between atoms: C_3  and  N_4 
REMARK    2  A    between atoms: C_7  and  N_10 
REMARK    3  A    between atoms: N_10  and  C_11 
REMARK    4  A    between atoms: C_11  and  C_12 
REMARK    5  A    between atoms: C_12  and  C_13 
ROOT
HETATM    1  C   UNL     1     -35.788 -47.937  16.525  1.00  0.00     0.013 C 
HETATM    2  C   UNL     1     -36.613 -48.110  15.531  1.00  0.00    -0.087 C 
HETATM    3  C   UNL     1     -37.577 -48.311  14.372  1.00  0.00     0.364 C 
ENDROOT
BRANCH   3   4
HETATM    4  N   UNL     1     -37.686 -49.704  13.941  1.00  0.00     0.099 N 
HETATM    5  C   UNL     1     -37.457 -49.886  12.499  1.00  0.00     0.275 C 
HETATM    6  C   UNL     1     -38.562 -49.308  11.616  1.00  0.00     0.066 C 
HETATM    7  C   UNL     1     -39.958 -49.808  12.020  1.00  0.00     0.223 C 
HETATM    8  C   UNL     1     -40.154 -49.618  13.532  1.00  0.00     0.066 C 
HETATM    9  C   UNL     1     -39.002 -50.235  14.330  1.00  0.00     0.275 C 
BRANCH   7  10
HETATM   10  N   UNL     1     -40.135 -51.201  11.573  1.00  0.00     0.088 N 
HETATM   11  H   UNL     1     -39.342 -51.767  11.879  1.00  0.00     0.316 HD
BRANCH  10  12
HETATM   12  C   UNL     1     -41.373 -51.838  12.039  1.00  0.00     0.274 C 
BRANCH  12  13
HETATM   13  C   UNL     1     -41.161 -53.276  12.528  1.00  0.00     0.068 C 
BRANCH  13  14
HETATM   14  C   UNL     1     -42.394 -53.844  13.176  1.00  0.00    -0.054 A 
HETATM   15  C   UNL     1     -43.641 -53.728  12.551  1.00  0.00     0.024 A 
HETATM   16  C   UNL     1     -44.746 -54.281  13.177  1.00  0.00     0.088 A 
HETATM   17  N   UNL     1     -44.693 -54.920  14.364  1.00  0.00    -0.375 N 
HETATM   18  C   UNL     1     -43.482 -55.010  14.953  1.00  0.00     0.088 A 
ATOM     19  HN  UNL     1     -45.529 -55.316  14.796  1.00  0.00     0.164 HD
HETATM   20  C   UNL     1     -42.319 -54.492  14.408  1.00  0.00     0.024 A 
ENDBRANCH  13  14
ENDBRANCH  12  13
ENDBRANCH  10  12
ENDBRANCH   7  10
ENDBRANCH   3   4
TORSDOF 5
ENDMDL
MODEL 9
REMARK VINA RESULT:      -4.7      2.236      6.750
REMARK  5 active torsions:
REMARK  status: ('A' for Active; 'I' for Inactive)
REMARK    1  A    between atoms: C_3  and  N_4 
REMARK    2  A    between atoms: C_7  and  N_10 
REMARK    3  A    between atoms: N_10  and  C_11 
REMARK    4  A    between atoms: C_11  and  C_12 
REMARK    5  A    between atoms: C_12  and  C_13 
ROOT
HETATM    1  C   UNL     1     -39.688 -45.059  10.555  1.00  0.00     0.013 C 
HETATM    2  C   UNL     1     -40.452 -45.996  11.043  1.00  0.00    -0.087 C 
HETATM    3  C   UNL     1     -41.344 -47.088  11.612  1.00  0.00     0.364 C 
ENDROOT
BRANCH   3   4
HETATM    4  N   UNL     1     -40.673 -47.928  12.603  1.00  0.00     0.099 N 
HETATM    5  C   UNL     1     -39.603 -48.760  12.032  1.00  0.00     0.275 C 
HETATM    6  C   UNL     1     -40.105 -49.877  11.116  1.00  0.00     0.066 C 
HETATM    7  C   UNL     1     -41.180 -50.746  11.787  1.00  0.00     0.223 C 
HETATM    8  C   UNL     1     -42.270 -49.845  12.386  1.00  0.00     0.066 C 
HETATM    9  C   UNL     1     -41.671 -48.764  13.291  1.00  0.00     0.275 C 
BRANCH   7  10
HETATM   10  N   UNL     1     -40.550 -51.644  12.772  1.00  0.00     0.088 N 
HETATM   11  H   UNL     1     -40.789 -51.343  13.718  1.00  0.00     0.316 HD
BRANCH  10  12
HETATM   12  C   UNL     1     -40.911 -53.059  12.627  1.00  0.00     0.274 C 
BRANCH  12  13
HETATM   13  C   UNL     1     -41.564 -53.645  13.884  1.00  0.00     0.068 C 
BRANCH  13  14
HETATM   14  C   UNL     1     -43.043 -53.857  13.711  1.00  0.00    -0.054 A 
HETATM   15  C   UNL     1     -43.722 -54.794  14.498  1.00  0.00     0.024 A 
HETATM   16  C   UNL     1     -45.087 -54.943  14.316  1.00  0.00     0.088 A 
HETATM   17  N   UNL     1     -45.804 -54.243  13.413  1.00  0.00    -0.375 N 
HETATM   18  C   UNL     1     -45.126 -53.353  12.657  1.00  0.00     0.088 A 
ATOM     19  HN  UNL     1     -46.809 -54.379  13.306  1.00  0.00     0.164 HD
HETATM   20  C   UNL     1     -43.763 -53.129  12.764  1.00  0.00     0.024 A 
ENDBRANCH  13  14
ENDBRANCH  12  13
ENDBRANCH  10  12
ENDBRANCH   7  10
ENDBRANCH   3   4
TORSDOF 5
ENDMDL
