MODEL 1
REMARK VINA RESULT:      -5.0      0.000      0.000
REMARK  7 active torsions:
REMARK  status: ('A' for Active; 'I' for Inactive)
REMARK    1  A    between atoms: C_4  and  C_5 
REMARK    2  A    between atoms: C_5  and  S_6 
REMARK    3  A    between atoms: S_6  and  N_9 
REMARK    4  A    between atoms: N_9  and  C_10 
REMARK    5  A    between atoms: C_10  and  C_11 
REMARK    6  A    between atoms: C_11  and  C_12 
REMARK    7  A    between atoms: C_12  and  O_13 
ROOT
HETATM    1  S   UNL     1     -44.460 -53.976  15.899  1.00  0.00     0.214 S 
HETATM    2  O   UNL     1     -43.944 -53.865  17.246  1.00  0.00    -0.211 OA
HETATM    3  O   UNL     1     -45.727 -54.629  15.630  1.00  0.00    -0.211 OA
ENDROOT
BRANCH   1   4
HETATM    4  C   UNL     1     -44.442 -52.357  15.113  1.00  0.00     0.216 C 
BRANCH   4   5
HETATM    5  C   UNL     1     -45.243 -52.384  13.865  1.00  0.00     0.050 A 
HETATM    6  C   UNL     1     -46.248 -51.484  13.441  1.00  0.00     0.062 A 
HETATM    7  C   UNL     1     -46.600 -51.932  12.191  1.00  0.00     0.074 A 
HETATM    8  C   UNL     1     -47.531 -51.453  11.157  1.00  0.00     0.079 C 
HETATM    9  O   UNL     1     -45.890 -53.053  11.902  1.00  0.00    -0.243 OA
HETATM   10  N   UNL     1     -45.047 -53.352  12.958  1.00  0.00    -0.264 N 
ATOM     11  HN  UNL     1     -44.408 -54.144  13.031  1.00  0.00     0.194 HD
ENDBRANCH   4   5
ENDBRANCH   1   4
BRANCH   1  12
HETATM   12  N   UNL     1     -43.288 -54.844  15.011  1.00  0.00    -0.220 NA
HETATM   13  H   UNL     1     -43.655 -55.217  14.132  1.00  0.00     0.139 HD
BRANCH  12  14
HETATM   14  C   UNL     1     -42.040 -54.058  14.782  1.00  0.00     0.106 C 
BRANCH  14  15
HETATM   15  C   UNL     1     -41.505 -54.293  13.372  1.00  0.00     0.041 C 
BRANCH  15  16
HETATM   16  C   UNL     1     -41.185 -53.003  12.629  1.00  0.00     0.165 C 
BRANCH  16  17
HETATM   17  O   UNL     1     -40.589 -53.275  11.369  1.00  0.00    -0.401 OA
HETATM   18  H   UNL     1     -40.195 -52.433  11.061  1.00  0.00     0.209 HD
ENDBRANCH  16  17
ENDBRANCH  15  16
ENDBRANCH  14  15
ENDBRANCH  12  14
ENDBRANCH   1  12
TORSDOF 7
ENDMDL
MODEL 2
REMARK VINA RESULT:      -5.0      3.151      4.333
REMARK  7 active torsions:
REMARK  status: ('A' for Active; 'I' for Inactive)
REMARK    1  A    between atoms: C_4  and  C_5 
REMARK    2  A    between atoms: C_5  and  S_6 
REMARK    3  A    between atoms: S_6  and  N_9 
REMARK    4  A    between atoms: N_9  and  C_10 
REMARK    5  A    between atoms: C_10  and  C_11 
REMARK    6  A    between atoms: C_11  and  C_12 
REMARK    7  A    between atoms: C_12  and  O_13 
ROOT
HETATM    1  S   UNL     1     -41.120 -52.141  13.197  1.00  0.00     0.214 S 
HETATM    2  O   UNL     1     -42.129 -51.439  12.432  1.00  0.00    -0.211 OA
HETATM    3  O   UNL     1     -40.763 -51.718  14.537  1.00  0.00    -0.211 OA
ENDROOT
BRANCH   1   4
HETATM    4  C   UNL     1     -41.490 -53.903  13.203  1.00  0.00     0.216 C 
BRANCH   4   5
HETATM    5  C   UNL     1     -42.955 -54.118  13.271  1.00  0.00     0.050 A 
HETATM    6  C   UNL     1     -43.738 -54.532  14.374  1.00  0.00     0.062 A 
HETATM    7  C   UNL     1     -45.029 -54.493  13.909  1.00  0.00     0.074 A 
HETATM    8  C   UNL     1     -46.344 -54.742  14.520  1.00  0.00     0.079 C 
HETATM    9  O   UNL     1     -45.023 -54.127  12.601  1.00  0.00    -0.243 OA
HETATM   10  N   UNL     1     -43.720 -53.905  12.190  1.00  0.00    -0.264 N 
ATOM     11  HN  UNL     1     -43.406 -53.636  11.257  1.00  0.00     0.194 HD
ENDBRANCH   4   5
ENDBRANCH   1   4
BRANCH   1  12
HETATM   12  N   UNL     1     -39.683 -52.056  12.279  1.00  0.00    -0.220 NA
HETATM   13  H   UNL     1     -39.861 -51.925  11.280  1.00  0.00     0.139 HD
BRANCH  12  14
HETATM   14  C   UNL     1     -38.730 -51.029  12.794  1.00  0.00     0.106 C 
BRANCH  14  15
HETATM   15  C   UNL     1     -38.504 -49.933  11.756  1.00  0.00     0.041 C 
BRANCH  15  16
HETATM   16  C   UNL     1     -39.790 -49.241  11.324  1.00  0.00     0.165 C 
BRANCH  16  17
HETATM   17  O   UNL     1     -40.445 -49.976  10.300  1.00  0.00    -0.401 OA
HETATM   18  H   UNL     1     -41.333 -50.203  10.647  1.00  0.00     0.209 HD
ENDBRANCH  16  17
ENDBRANCH  15  16
ENDBRANCH  14  15
ENDBRANCH  12  14
ENDBRANCH   1  12
TORSDOF 7
ENDMDL
MODEL 3
REMARK VINA RESULT:      -4.9      3.253      4.558
REMARK  7 active torsions:
REMARK  status: ('A' for Active; 'I' for Inactive)
REMARK    1  A    between atoms: C_4  and  C_5 
REMARK    2  A    between atoms: C_5  and  S_6 
REMARK    3  A    between atoms: S_6  and  N_9 
REMARK    4  A    between atoms: N_9  and  C_10 
REMARK    5  A    between atoms: C_10  and  C_11 
REMARK    6  A    between atoms: C_11  and  C_12 
REMARK    7  A    between atoms: C_12  and  O_13 
ROOT
HETATM    1  S   UNL     1     -40.122 -52.478  13.292  1.00  0.00     0.214 S 
HETATM    2  O   UNL     1     -40.954 -51.607  14.095  1.00  0.00    -0.211 OA
HETATM    3  O   UNL     1     -38.759 -52.783  13.680  1.00  0.00    -0.211 OA
ENDROOT
BRANCH   1   4
HETATM    4  C   UNL     1     -41.006 -54.009  12.953  1.00  0.00     0.216 C 
BRANCH   4   5
HETATM    5  C   UNL     1     -42.469 -53.768  12.965  1.00  0.00     0.050 A 
HETATM    6  C   UNL     1     -43.443 -54.291  13.848  1.00  0.00     0.062 A 
HETATM    7  C   UNL     1     -44.614 -53.687  13.459  1.00  0.00     0.074 A 
HETATM    8  C   UNL     1     -45.997 -53.721  13.958  1.00  0.00     0.079 C 
HETATM    9  O   UNL     1     -44.371 -52.890  12.386  1.00  0.00    -0.243 OA
HETATM   10  N   UNL     1     -43.026 -52.950  12.061  1.00  0.00    -0.264 N 
ATOM     11  HN  UNL     1     -42.557 -52.471  11.292  1.00  0.00     0.194 HD
ENDBRANCH   4   5
ENDBRANCH   1   4
BRANCH   1  12
HETATM   12  N   UNL     1     -40.018 -51.748  11.752  1.00  0.00    -0.220 NA
HETATM   13  H   UNL     1     -40.699 -52.128  11.089  1.00  0.00     0.139 HD
BRANCH  12  14
HETATM   14  C   UNL     1     -40.101 -50.258  11.813  1.00  0.00     0.106 C 
BRANCH  14  15
HETATM   15  C   UNL     1     -38.757 -49.660  12.220  1.00  0.00     0.041 C 
BRANCH  15  16
HETATM   16  C   UNL     1     -37.626 -50.021  11.266  1.00  0.00     0.165 C 
BRANCH  16  17
HETATM   17  O   UNL     1     -37.192 -51.357  11.475  1.00  0.00    -0.401 OA
HETATM   18  H   UNL     1     -36.308 -51.429  11.059  1.00  0.00     0.209 HD
ENDBRANCH  16  17
ENDBRANCH  15  16
ENDBRANCH  14  15
ENDBRANCH  12  14
ENDBRANCH   1  12
TORSDOF 7
ENDMDL
MODEL 4
REMARK VINA RESULT:      -4.9      1.624      5.020
REMARK  7 active torsions:
REMARK  status: ('A' for Active; 'I' for Inactive)
REMARK    1  A    between atoms: C_4  and  C_5 
REMARK    2  A    between atoms: C_5  and  S_6 
REMARK    3  A    between atoms: S_6  and  N_9 
REMARK    4  A    between atoms: N_9  and  C_10 
REMARK    5  A    between atoms: C_10  and  C_11 
REMARK    6  A    between atoms: C_11  and  C_12 
REMARK    7  A    between atoms: C_12  and  O_13 
ROOT
HETATM    1  S   UNL     1     -44.476 -54.382  13.931  1.00  0.00     0.214 S 
HETATM    2  O   UNL     1     -44.503 -54.570  12.497  1.00  0.00    -0.211 OA
HETATM    3  O   UNL     1     -45.512 -54.933  14.782  1.00  0.00    -0.211 OA
ENDROOT
BRANCH   1   4
HETATM    4  C   UNL     1     -42.861 -54.858  14.568  1.00  0.00     0.216 C 
BRANCH   4   5
HETATM    5  C   UNL     1     -41.805 -54.000  13.979  1.00  0.00     0.050 A 
HETATM    6  C   UNL     1     -40.873 -53.165  14.639  1.00  0.00     0.062 A 
HETATM    7  C   UNL     1     -40.088 -52.667  13.629  1.00  0.00     0.074 A 
HETATM    8  C   UNL     1     -38.907 -51.791  13.589  1.00  0.00     0.079 C 
HETATM    9  O   UNL     1     -40.543 -53.132  12.437  1.00  0.00    -0.243 OA
HETATM   10  N   UNL     1     -41.634 -53.958  12.650  1.00  0.00    -0.264 N 
ATOM     11  HN  UNL     1     -42.192 -54.435  11.941  1.00  0.00     0.194 HD
ENDBRANCH   4   5
ENDBRANCH   1   4
BRANCH   1  12
HETATM   12  N   UNL     1     -44.505 -52.694  14.189  1.00  0.00    -0.220 NA
HETATM   13  H   UNL     1     -44.437 -52.161  13.318  1.00  0.00     0.139 HD
BRANCH  12  14
HETATM   14  C   UNL     1     -45.680 -52.255  14.998  1.00  0.00     0.106 C 
BRANCH  14  15
HETATM   15  C   UNL     1     -46.667 -51.472  14.136  1.00  0.00     0.041 C 
BRANCH  15  16
HETATM   16  C   UNL     1     -46.327 -51.509  12.652  1.00  0.00     0.165 C 
BRANCH  16  17
HETATM   17  O   UNL     1     -46.815 -52.698  12.047  1.00  0.00    -0.401 OA
HETATM   18  H   UNL     1     -46.251 -53.427  12.377  1.00  0.00     0.209 HD
ENDBRANCH  16  17
ENDBRANCH  15  16
ENDBRANCH  14  15
ENDBRANCH  12  14
ENDBRANCH   1  12
TORSDOF 7
ENDMDL
MODEL 5
REMARK VINA RESULT:      -4.8      2.720      4.345
REMARK  7 active torsions:
REMARK  status: ('A' for Active; 'I' for Inactive)
REMARK    1  A    between atoms: C_4  and  C_5 
REMARK    2  A    between atoms: C_5  and  S_6 
REMARK    3  A    between atoms: S_6  and  N_9 
REMARK    4  A    between atoms: N_9  and  C_10 
REMARK    5  A    between atoms: C_10  and  C_11 
REMARK    6  A    between atoms: C_11  and  C_12 
REMARK    7  A    between atoms: C_12  and  O_13 
ROOT
HETATM    1  S   UNL     1     -40.996 -52.387  13.191  1.00  0.00     0.214 S 
HETATM    2  O   UNL     1     -41.164 -51.918  14.550  1.00  0.00    -0.211 OA
HETATM    3  O   UNL     1     -39.744 -52.209  12.482  1.00  0.00    -0.211 OA
ENDROOT
BRANCH   1   4
HETATM    4  C   UNL     1     -41.504 -54.111  13.085  1.00  0.00     0.216 C 
BRANCH   4   5
HETATM    5  C   UNL     1     -42.975 -54.222  13.239  1.00  0.00     0.050 A 
HETATM    6  C   UNL     1     -43.721 -54.534  14.400  1.00  0.00     0.062 A 
HETATM    7  C   UNL     1     -45.031 -54.426  14.002  1.00  0.00     0.074 A 
HETATM    8  C   UNL     1     -46.324 -54.557  14.691  1.00  0.00     0.079 C 
HETATM    9  O   UNL     1     -45.072 -54.116  12.680  1.00  0.00    -0.243 OA
HETATM   10  N   UNL     1     -43.782 -54.003  12.191  1.00  0.00    -0.264 N 
ATOM     11  HN  UNL     1     -43.503 -53.796  11.232  1.00  0.00     0.194 HD
ENDBRANCH   4   5
ENDBRANCH   1   4
BRANCH   1  12
HETATM   12  N   UNL     1     -42.181 -51.583  12.262  1.00  0.00    -0.220 NA
HETATM   13  H   UNL     1     -43.125 -51.937  12.434  1.00  0.00     0.139 HD
BRANCH  12  14
HETATM   14  C   UNL     1     -42.127 -50.099  12.418  1.00  0.00     0.106 C 
BRANCH  14  15
HETATM   15  C   UNL     1     -43.410 -49.577  13.059  1.00  0.00     0.041 C 
BRANCH  15  16
HETATM   16  C   UNL     1     -44.306 -50.685  13.595  1.00  0.00     0.165 C 
BRANCH  16  17
HETATM   17  O   UNL     1     -45.134 -51.213  12.569  1.00  0.00    -0.401 OA
HETATM   18  H   UNL     1     -44.630 -51.125  11.734  1.00  0.00     0.209 HD
ENDBRANCH  16  17
ENDBRANCH  15  16
ENDBRANCH  14  15
ENDBRANCH  12  14
ENDBRANCH   1  12
TORSDOF 7
ENDMDL
MODEL 6
REMARK VINA RESULT:      -4.7      2.118      3.579
REMARK  7 active torsions:
REMARK  status: ('A' for Active; 'I' for Inactive)
REMARK    1  A    between atoms: C_4  and  C_5 
REMARK    2  A    between atoms: C_5  and  S_6 
REMARK    3  A    between atoms: S_6  and  N_9 
REMARK    4  A    between atoms: N_9  and  C_10 
REMARK    5  A    between atoms: C_10  and  C_11 
REMARK    6  A    between atoms: C_11  and  C_12 
REMARK    7  A    between atoms: C_12  and  O_13 
ROOT
HETATM    1  S   UNL     1     -40.694 -52.865  13.619  1.00  0.00     0.214 S 
HETATM    2  O   UNL     1     -39.392 -53.284  13.149  1.00  0.00    -0.211 OA
HETATM    3  O   UNL     1     -40.835 -52.001  14.775  1.00  0.00    -0.211 OA
ENDROOT
BRANCH   1   4
HETATM    4  C   UNL     1     -41.638 -52.186  12.245  1.00  0.00     0.216 C 
BRANCH   4   5
HETATM    5  C   UNL     1     -43.091 -52.315  12.508  1.00  0.00     0.050 A 
HETATM    6  C   UNL     1     -43.934 -51.459  13.256  1.00  0.00     0.062 A 
HETATM    7  C   UNL     1     -45.186 -52.004  13.113  1.00  0.00     0.074 A 
HETATM    8  C   UNL     1     -46.530 -51.615  13.568  1.00  0.00     0.079 C 
HETATM    9  O   UNL     1     -45.098 -53.138  12.369  1.00  0.00    -0.243 OA
HETATM   10  N   UNL     1     -43.780 -53.347  12.000  1.00  0.00    -0.264 N 
ATOM     11  HN  UNL     1     -43.410 -54.126  11.454  1.00  0.00     0.194 HD
ENDBRANCH   4   5
ENDBRANCH   1   4
BRANCH   1  12
HETATM   12  N   UNL     1     -41.546 -54.296  13.996  1.00  0.00    -0.220 NA
HETATM   13  H   UNL     1     -41.345 -55.058  13.344  1.00  0.00     0.139 HD
BRANCH  12  14
HETATM   14  C   UNL     1     -41.344 -54.731  15.410  1.00  0.00     0.106 C 
BRANCH  14  15
HETATM   15  C   UNL     1     -42.651 -55.245  16.008  1.00  0.00     0.041 C 
BRANCH  15  16
HETATM   16  C   UNL     1     -43.879 -54.510  15.488  1.00  0.00     0.165 C 
BRANCH  16  17
HETATM   17  O   UNL     1     -44.496 -55.232  14.432  1.00  0.00    -0.401 OA
HETATM   18  H   UNL     1     -45.414 -54.898  14.368  1.00  0.00     0.209 HD
ENDBRANCH  16  17
ENDBRANCH  15  16
ENDBRANCH  14  15
ENDBRANCH  12  14
ENDBRANCH   1  12
TORSDOF 7
ENDMDL
MODEL 7
REMARK VINA RESULT:      -4.7      2.427      3.340
REMARK  7 active torsions:
REMARK  status: ('A' for Active; 'I' for Inactive)
REMARK    1  A    between atoms: C_4  and  C_5 
REMARK    2  A    between atoms: C_5  and  S_6 
REMARK    3  A    between atoms: S_6  and  N_9 
REMARK    4  A    between atoms: N_9  and  C_10 
REMARK    5  A    between atoms: C_10  and  C_11 
REMARK    6  A    between atoms: C_11  and  C_12 
REMARK    7  A    between atoms: C_12  and  O_13 
ROOT
HETATM    1  S   UNL     1     -44.679 -53.178  12.880  1.00  0.00     0.214 S 
HETATM    2  O   UNL     1     -44.551 -54.374  13.684  1.00  0.00    -0.211 OA
HETATM    3  O   UNL     1     -45.750 -53.031  11.914  1.00  0.00    -0.211 OA
ENDROOT
BRANCH   1   4
HETATM    4  C   UNL     1     -44.632 -51.729  13.948  1.00  0.00     0.216 C 
BRANCH   4   5
HETATM    5  C   UNL     1     -45.774 -51.753  14.893  1.00  0.00     0.050 A 
HETATM    6  C   UNL     1     -45.987 -50.957  16.043  1.00  0.00     0.062 A 
HETATM    7  C   UNL     1     -47.225 -51.338  16.497  1.00  0.00     0.074 A 
HETATM    8  C   UNL     1     -48.091 -50.898  17.602  1.00  0.00     0.079 C 
HETATM    9  O   UNL     1     -47.706 -52.330  15.703  1.00  0.00    -0.243 OA
HETATM   10  N   UNL     1     -46.790 -52.607  14.703  1.00  0.00    -0.264 N 
ATOM     11  HN  UNL     1     -46.872 -53.314  13.972  1.00  0.00     0.194 HD
ENDBRANCH   4   5
ENDBRANCH   1   4
BRANCH   1  12
HETATM   12  N   UNL     1     -43.226 -53.044  11.993  1.00  0.00    -0.220 NA
HETATM   13  H   UNL     1     -43.279 -52.340  11.253  1.00  0.00     0.139 HD
BRANCH  12  14
HETATM   14  C   UNL     1     -42.036 -52.819  12.866  1.00  0.00     0.106 C 
BRANCH  14  15
HETATM   15  C   UNL     1     -41.121 -54.041  12.857  1.00  0.00     0.041 C 
BRANCH  15  16
HETATM   16  C   UNL     1     -39.901 -53.884  13.754  1.00  0.00     0.165 C 
BRANCH  16  17
HETATM   17  O   UNL     1     -38.862 -54.767  13.360  1.00  0.00    -0.401 OA
HETATM   18  H   UNL     1     -39.192 -55.249  12.574  1.00  0.00     0.209 HD
ENDBRANCH  16  17
ENDBRANCH  15  16
ENDBRANCH  14  15
ENDBRANCH  12  14
ENDBRANCH   1  12
TORSDOF 7
ENDMDL
MODEL 8
REMARK VINA RESULT:      -4.6      6.520      7.540
REMARK  7 active torsions:
REMARK  status: ('A' for Active; 'I' for Inactive)
REMARK    1  A    between atoms: C_4  and  C_5 
REMARK    2  A    between atoms: C_5  and  S_6 
REMARK    3  A    between atoms: S_6  and  N_9 
REMARK    4  A    between atoms: N_9  and  C_10 
REMARK    5  A    between atoms: C_10  and  C_11 
REMARK    6  A    between atoms: C_11  and  C_12 
REMARK    7  A    between atoms: C_12  and  O_13 
ROOT
HETATM    1  S   UNL     1     -40.816 -49.277  11.750  1.00  0.00     0.214 S 
HETATM    2  O   UNL     1     -40.350 -48.464  12.853  1.00  0.00    -0.211 OA
HETATM    3  O   UNL     1     -41.606 -50.472  11.977  1.00  0.00    -0.211 OA
ENDROOT
BRANCH   1   4
HETATM    4  C   UNL     1     -41.644 -48.232  10.541  1.00  0.00     0.216 C 
BRANCH   4   5
HETATM    5  C   UNL     1     -41.158 -46.836  10.654  1.00  0.00     0.050 A 
HETATM    6  C   UNL     1     -41.900 -45.661  10.919  1.00  0.00     0.062 A 
HETATM    7  C   UNL     1     -40.953 -44.669  10.989  1.00  0.00     0.074 A 
HETATM    8  C   UNL     1     -41.000 -43.228  11.282  1.00  0.00     0.079 C 
HETATM    9  O   UNL     1     -39.729 -45.201  10.737  1.00  0.00    -0.243 OA
HETATM   10  N   UNL     1     -39.854 -46.561  10.509  1.00  0.00    -0.264 N 
ATOM     11  HN  UNL     1     -39.108 -47.217  10.278  1.00  0.00     0.194 HD
ENDBRANCH   4   5
ENDBRANCH   1   4
BRANCH   1  12
HETATM   12  N   UNL     1     -39.417 -49.791  10.916  1.00  0.00    -0.220 NA
HETATM   13  H   UNL     1     -39.386 -49.451   9.952  1.00  0.00     0.139 HD
BRANCH  12  14
HETATM   14  C   UNL     1     -38.157 -49.459  11.645  1.00  0.00     0.106 C 
BRANCH  14  15
HETATM   15  C   UNL     1     -37.468 -50.730  12.137  1.00  0.00     0.041 C 
BRANCH  15  16
HETATM   16  C   UNL     1     -38.137 -51.338  13.363  1.00  0.00     0.165 C 
BRANCH  16  17
HETATM   17  O   UNL     1     -39.227 -52.169  12.988  1.00  0.00    -0.401 OA
HETATM   18  H   UNL     1     -39.960 -51.956  13.601  1.00  0.00     0.209 HD
ENDBRANCH  16  17
ENDBRANCH  15  16
ENDBRANCH  14  15
ENDBRANCH  12  14
ENDBRANCH   1  12
TORSDOF 7
ENDMDL
MODEL 9
REMARK VINA RESULT:      -4.5      4.455      5.637
REMARK  7 active torsions:
REMARK  status: ('A' for Active; 'I' for Inactive)
REMARK    1  A    between atoms: C_4  and  C_5 
REMARK    2  A    between atoms: C_5  and  S_6 
REMARK    3  A    between atoms: S_6  and  N_9 
REMARK    4  A    between atoms: N_9  and  C_10 
REMARK    5  A    between atoms: C_10  and  C_11 
REMARK    6  A    between atoms: C_11  and  C_12 
REMARK    7  A    between atoms: C_12  and  O_13 
ROOT
HETATM    1  S   UNL     1     -39.642 -51.294  12.835  1.00  0.00     0.214 S 
HETATM    2  O   UNL     1     -38.415 -51.945  13.240  1.00  0.00    -0.211 OA
HETATM    3  O   UNL     1     -40.562 -50.747  13.814  1.00  0.00    -0.211 OA
ENDROOT
BRANCH   1   4
HETATM    4  C   UNL     1     -39.277 -50.044  11.592  1.00  0.00     0.216 C 
BRANCH   4   5
HETATM    5  C   UNL     1     -40.434 -49.131  11.429  1.00  0.00     0.050 A 
HETATM    6  C   UNL     1     -40.462 -47.719  11.508  1.00  0.00     0.062 A 
HETATM    7  C   UNL     1     -41.760 -47.388  11.205  1.00  0.00     0.074 A 
HETATM    8  C   UNL     1     -42.482 -46.115  11.049  1.00  0.00     0.079 C 
HETATM    9  O   UNL     1     -42.477 -48.524  11.004  1.00  0.00    -0.243 OA
HETATM   10  N   UNL     1     -41.651 -49.625  11.160  1.00  0.00    -0.264 N 
ATOM     11  HN  UNL     1     -41.914 -50.607  11.086  1.00  0.00     0.194 HD
ENDBRANCH   4   5
ENDBRANCH   1   4
BRANCH   1  12
HETATM   12  N   UNL     1     -40.530 -52.458  11.956  1.00  0.00    -0.220 NA
HETATM   13  H   UNL     1     -40.092 -52.696  11.063  1.00  0.00     0.139 HD
BRANCH  12  14
HETATM   14  C   UNL     1     -40.820 -53.685  12.755  1.00  0.00     0.106 C 
BRANCH  14  15
HETATM   15  C   UNL     1     -42.289 -53.723  13.172  1.00  0.00     0.041 C 
BRANCH  15  16
HETATM   16  C   UNL     1     -43.190 -52.894  12.267  1.00  0.00     0.165 C 
BRANCH  16  17
HETATM   17  O   UNL     1     -43.246 -51.543  12.703  1.00  0.00    -0.401 OA
HETATM   18  H   UNL     1     -43.349 -51.571  13.677  1.00  0.00     0.209 HD
ENDBRANCH  16  17
ENDBRANCH  15  16
ENDBRANCH  14  15
ENDBRANCH  12  14
ENDBRANCH   1  12
TORSDOF 7
ENDMDL
