MODEL 1
REMARK VINA RESULT:      -6.2      0.000      0.000
REMARK  5 active torsions:
REMARK  status: ('A' for Active; 'I' for Inactive)
REMARK    1  A    between atoms: N_6  and  C_7 
REMARK    2  A    between atoms: C_7  and  C_8 
REMARK       I    between atoms: C_8  and  N_10 
REMARK    3  A    between atoms: N_10  and  C_11 
REMARK    4  A    between atoms: C_11  and  C_17 
REMARK    5  A    between atoms: C_17  and  O_19 
ROOT
HETATM    1  C   UNL     1     -41.979 -49.652  11.963  1.00  0.00     0.238 C 
HETATM    2  O   UNL     1     -42.875 -49.345  12.743  1.00  0.00    -0.272 OA
HETATM    3  N   UNL     1     -41.342 -50.878  11.972  1.00  0.00    -0.341 N 
HETATM    4  H   UNL     1     -40.961 -51.114  11.053  1.00  0.00     0.163 HD
ENDROOT
BRANCH   3   5
HETATM    5  C   UNL     1     -41.736 -52.051  12.787  1.00  0.00     0.118 C 
HETATM    6  C   UNL     1     -41.847 -51.772  14.307  1.00  0.00     0.042 C 
HETATM    7  C   UNL     1     -42.203 -53.042  15.094  1.00  0.00     0.003 C 
HETATM    8  C   UNL     1     -43.497 -53.677  14.592  1.00  0.00     0.000 C 
HETATM    9  C   UNL     1     -43.488 -53.899  13.083  1.00  0.00     0.003 C 
HETATM   10  C   UNL     1     -43.079 -52.642  12.306  1.00  0.00     0.042 C 
BRANCH   5  11
HETATM   11  C   UNL     1     -40.568 -53.035  12.484  1.00  0.00     0.169 C 
HETATM   12  O   UNL     1     -39.744 -53.412  13.304  1.00  0.00    -0.648 OA
BRANCH  11  13
HETATM   13  O   UNL     1     -40.590 -53.566  11.237  1.00  0.00    -0.775 OA
HETATM   14  H   UNL     1     -41.475 -53.852  10.946  1.00  0.00     0.167 HD
ENDBRANCH  11  13
ENDBRANCH   5  11
ENDBRANCH   3   5
BRANCH   1  15
HETATM   15  C   UNL     1     -41.407 -48.667  10.957  1.00  0.00     0.251 C 
BRANCH  15  16
HETATM   16  N   UNL     1     -42.384 -47.707  10.467  1.00  0.00    -0.288 N 
HETATM   17  C   UNL     1     -42.186 -46.377  10.184  1.00  0.00     0.027 A 
HETATM   18  C   UNL     1     -43.362 -45.937   9.614  1.00  0.00     0.052 A 
HETATM   19  C   UNL     1     -40.930 -45.638  10.454  1.00  0.00     0.070 C 
HETATM   20  C   UNL     1     -44.194 -47.074   9.552  1.00  0.00     0.024 A 
HETATM   21  C   UNL     1     -45.572 -47.150   9.003  1.00  0.00     0.070 C 
HETATM   22  N   UNL     1     -43.589 -48.160  10.048  1.00  0.00    -0.303 N 
ATOM     23  HN  UNL     1     -43.953 -49.112  10.098  1.00  0.00     0.186 HD
ENDBRANCH  15  16
ENDBRANCH   1  15
TORSDOF 5
ENDMDL
MODEL 2
REMARK VINA RESULT:      -6.2      2.526      3.332
REMARK  5 active torsions:
REMARK  status: ('A' for Active; 'I' for Inactive)
REMARK    1  A    between atoms: N_6  and  C_7 
REMARK    2  A    between atoms: C_7  and  C_8 
REMARK       I    between atoms: C_8  and  N_10 
REMARK    3  A    between atoms: N_10  and  C_11 
REMARK    4  A    between atoms: C_11  and  C_17 
REMARK    5  A    between atoms: C_17  and  O_19 
ROOT
HETATM    1  C   UNL     1     -42.414 -50.932  13.081  1.00  0.00     0.238 C 
HETATM    2  O   UNL     1     -42.320 -50.473  14.216  1.00  0.00    -0.272 OA
HETATM    3  N   UNL     1     -43.389 -51.832  12.697  1.00  0.00    -0.341 N 
HETATM    4  H   UNL     1     -43.580 -51.778  11.694  1.00  0.00     0.163 HD
ENDROOT
BRANCH   3   5
HETATM    5  C   UNL     1     -44.549 -52.252  13.517  1.00  0.00     0.118 C 
HETATM    6  C   UNL     1     -44.178 -52.909  14.870  1.00  0.00     0.042 C 
HETATM    7  C   UNL     1     -45.426 -53.369  15.640  1.00  0.00     0.003 C 
HETATM    8  C   UNL     1     -46.403 -52.221  15.876  1.00  0.00     0.000 C 
HETATM    9  C   UNL     1     -46.743 -51.474  14.591  1.00  0.00     0.003 C 
HETATM   10  C   UNL     1     -45.495 -51.064  13.800  1.00  0.00     0.042 C 
BRANCH   5  11
HETATM   11  C   UNL     1     -45.234 -53.279  12.567  1.00  0.00     0.169 C 
HETATM   12  O   UNL     1     -45.055 -54.487  12.603  1.00  0.00    -0.648 OA
BRANCH  11  13
HETATM   13  O   UNL     1     -46.170 -52.745  11.745  1.00  0.00    -0.775 OA
HETATM   14  H   UNL     1     -46.104 -51.779  11.647  1.00  0.00     0.167 HD
ENDBRANCH  11  13
ENDBRANCH   5  11
ENDBRANCH   3   5
BRANCH   1  15
HETATM   15  C   UNL     1     -41.396 -50.624  11.996  1.00  0.00     0.251 C 
BRANCH  15  16
HETATM   16  N   UNL     1     -41.415 -49.237  11.561  1.00  0.00    -0.288 N 
HETATM   17  C   UNL     1     -40.383 -48.330  11.597  1.00  0.00     0.027 A 
HETATM   18  C   UNL     1     -40.847 -47.208  10.943  1.00  0.00     0.052 A 
HETATM   19  C   UNL     1     -39.061 -48.585  12.220  1.00  0.00     0.070 C 
HETATM   20  C   UNL     1     -42.147 -47.540  10.510  1.00  0.00     0.024 A 
HETATM   21  C   UNL     1     -43.082 -46.685   9.736  1.00  0.00     0.070 C 
HETATM   22  N   UNL     1     -42.485 -48.787  10.863  1.00  0.00    -0.303 N 
ATOM     23  HN  UNL     1     -43.350 -49.285  10.653  1.00  0.00     0.186 HD
ENDBRANCH  15  16
ENDBRANCH   1  15
TORSDOF 5
ENDMDL
MODEL 3
REMARK VINA RESULT:      -6.0      3.885      5.640
REMARK  5 active torsions:
REMARK  status: ('A' for Active; 'I' for Inactive)
REMARK    1  A    between atoms: N_6  and  C_7 
REMARK    2  A    between atoms: C_7  and  C_8 
REMARK       I    between atoms: C_8  and  N_10 
REMARK    3  A    between atoms: N_10  and  C_11 
REMARK    4  A    between atoms: C_11  and  C_17 
REMARK    5  A    between atoms: C_17  and  O_19 
ROOT
HETATM    1  C   UNL     1     -42.527 -53.088  13.107  1.00  0.00     0.238 C 
HETATM    2  O   UNL     1     -43.037 -52.550  12.129  1.00  0.00    -0.272 OA
HETATM    3  N   UNL     1     -43.180 -53.262  14.312  1.00  0.00    -0.341 N 
HETATM    4  H   UNL     1     -42.803 -54.056  14.836  1.00  0.00     0.163 HD
ENDROOT
BRANCH   3   5
HETATM    5  C   UNL     1     -44.615 -52.992  14.565  1.00  0.00     0.118 C 
HETATM    6  C   UNL     1     -45.011 -52.960  16.062  1.00  0.00     0.042 C 
HETATM    7  C   UNL     1     -46.518 -52.732  16.247  1.00  0.00     0.003 C 
HETATM    8  C   UNL     1     -46.986 -51.450  15.564  1.00  0.00     0.000 C 
HETATM    9  C   UNL     1     -46.552 -51.377  14.104  1.00  0.00     0.003 C 
HETATM   10  C   UNL     1     -45.057 -51.660  13.920  1.00  0.00     0.042 C 
BRANCH   5  11
HETATM   11  C   UNL     1     -45.282 -54.197  13.837  1.00  0.00     0.169 C 
HETATM   12  O   UNL     1     -45.469 -55.295  14.336  1.00  0.00    -0.648 OA
BRANCH  11  13
HETATM   13  O   UNL     1     -45.774 -53.906  12.607  1.00  0.00    -0.775 OA
HETATM   14  H   UNL     1     -46.735 -53.750  12.593  1.00  0.00     0.167 HD
ENDBRANCH  11  13
ENDBRANCH   5  11
ENDBRANCH   3   5
BRANCH   1  15
HETATM   15  C   UNL     1     -41.076 -53.536  13.121  1.00  0.00     0.251 C 
BRANCH  15  16
HETATM   16  N   UNL     1     -40.131 -52.436  13.218  1.00  0.00    -0.288 N 
HETATM   17  C   UNL     1     -39.209 -52.204  14.211  1.00  0.00     0.027 A 
HETATM   18  C   UNL     1     -38.456 -51.132  13.779  1.00  0.00     0.052 A 
HETATM   19  C   UNL     1     -39.099 -52.997  15.458  1.00  0.00     0.070 C 
HETATM   20  C   UNL     1     -38.963 -50.810  12.504  1.00  0.00     0.024 A 
HETATM   21  C   UNL     1     -38.488 -49.737  11.593  1.00  0.00     0.070 C 
HETATM   22  N   UNL     1     -39.967 -51.621  12.148  1.00  0.00    -0.303 N 
ATOM     23  HN  UNL     1     -40.489 -51.626  11.272  1.00  0.00     0.186 HD
ENDBRANCH  15  16
ENDBRANCH   1  15
TORSDOF 5
ENDMDL
MODEL 4
REMARK VINA RESULT:      -6.0      3.668      5.808
REMARK  5 active torsions:
REMARK  status: ('A' for Active; 'I' for Inactive)
REMARK    1  A    between atoms: N_6  and  C_7 
REMARK    2  A    between atoms: C_7  and  C_8 
REMARK       I    between atoms: C_8  and  N_10 
REMARK    3  A    between atoms: N_10  and  C_11 
REMARK    4  A    between atoms: C_11  and  C_17 
REMARK    5  A    between atoms: C_17  and  O_19 
ROOT
HETATM    1  C   UNL     1     -41.098 -51.410  12.826  1.00  0.00     0.238 C 
HETATM    2  O   UNL     1     -41.530 -50.670  13.705  1.00  0.00    -0.272 OA
HETATM    3  N   UNL     1     -39.805 -51.351  12.343  1.00  0.00    -0.341 N 
HETATM    4  H   UNL     1     -39.502 -52.251  11.961  1.00  0.00     0.163 HD
ENDROOT
BRANCH   3   5
HETATM    5  C   UNL     1     -38.709 -50.528  12.905  1.00  0.00     0.118 C 
HETATM    6  C   UNL     1     -39.020 -49.012  12.990  1.00  0.00     0.042 C 
HETATM    7  C   UNL     1     -37.822 -48.215  13.527  1.00  0.00     0.003 C 
HETATM    8  C   UNL     1     -37.368 -48.725  14.892  1.00  0.00     0.000 C 
HETATM    9  C   UNL     1     -37.127 -50.231  14.901  1.00  0.00     0.003 C 
HETATM   10  C   UNL     1     -38.305 -51.017  14.313  1.00  0.00     0.042 C 
BRANCH   5  11
HETATM   11  C   UNL     1     -37.567 -50.807  11.883  1.00  0.00     0.169 C 
HETATM   12  O   UNL     1     -36.724 -51.682  12.002  1.00  0.00    -0.648 OA
BRANCH  11  13
HETATM   13  O   UNL     1     -37.639 -50.070  10.747  1.00  0.00    -0.775 OA
HETATM   14  H   UNL     1     -37.010 -49.327  10.718  1.00  0.00     0.167 HD
ENDBRANCH  11  13
ENDBRANCH   5  11
ENDBRANCH   3   5
BRANCH   1  15
HETATM   15  C   UNL     1     -41.982 -52.413  12.104  1.00  0.00     0.251 C 
BRANCH  15  16
HETATM   16  N   UNL     1     -43.243 -52.666  12.781  1.00  0.00    -0.288 N 
HETATM   17  C   UNL     1     -43.495 -53.578  13.778  1.00  0.00     0.027 A 
HETATM   18  C   UNL     1     -44.788 -53.335  14.189  1.00  0.00     0.052 A 
HETATM   19  C   UNL     1     -42.518 -54.579  14.267  1.00  0.00     0.070 C 
HETATM   20  C   UNL     1     -45.224 -52.237  13.420  1.00  0.00     0.024 A 
HETATM   21  C   UNL     1     -46.546 -51.562  13.486  1.00  0.00     0.070 C 
HETATM   22  N   UNL     1     -44.274 -51.810  12.580  1.00  0.00    -0.303 N 
ATOM     23  HN  UNL     1     -44.315 -51.021  11.935  1.00  0.00     0.186 HD
ENDBRANCH  15  16
ENDBRANCH   1  15
TORSDOF 5
ENDMDL
MODEL 5
REMARK VINA RESULT:      -5.8      2.087      6.455
REMARK  5 active torsions:
REMARK  status: ('A' for Active; 'I' for Inactive)
REMARK    1  A    between atoms: N_6  and  C_7 
REMARK    2  A    between atoms: C_7  and  C_8 
REMARK       I    between atoms: C_8  and  N_10 
REMARK    3  A    between atoms: N_10  and  C_11 
REMARK    4  A    between atoms: C_11  and  C_17 
REMARK    5  A    between atoms: C_17  and  O_19 
ROOT
HETATM    1  C   UNL     1     -41.187 -50.645  12.213  1.00  0.00     0.238 C 
HETATM    2  O   UNL     1     -40.722 -50.320  13.301  1.00  0.00    -0.272 OA
HETATM    3  N   UNL     1     -41.891 -49.785  11.393  1.00  0.00    -0.341 N 
HETATM    4  H   UNL     1     -41.832 -50.063  10.411  1.00  0.00     0.163 HD
ENDROOT
BRANCH   3   5
HETATM    5  C   UNL     1     -42.051 -48.326  11.604  1.00  0.00     0.118 C 
HETATM    6  C   UNL     1     -42.733 -47.940  12.941  1.00  0.00     0.042 C 
HETATM    7  C   UNL     1     -42.917 -46.420  13.067  1.00  0.00     0.003 C 
HETATM    8  C   UNL     1     -41.592 -45.675  12.930  1.00  0.00     0.000 C 
HETATM    9  C   UNL     1     -40.826 -46.076  11.674  1.00  0.00     0.003 C 
HETATM   10  C   UNL     1     -40.693 -47.596  11.526  1.00  0.00     0.042 C 
BRANCH   5  11
HETATM   11  C   UNL     1     -42.948 -47.942  10.390  1.00  0.00     0.169 C 
HETATM   12  O   UNL     1     -44.074 -47.476  10.475  1.00  0.00    -0.648 OA
BRANCH  11  13
HETATM   13  O   UNL     1     -42.334 -48.046   9.185  1.00  0.00    -0.775 OA
HETATM   14  H   UNL     1     -41.903 -47.224   8.890  1.00  0.00     0.167 HD
ENDBRANCH  11  13
ENDBRANCH   5  11
ENDBRANCH   3   5
BRANCH   1  15
HETATM   15  C   UNL     1     -41.117 -52.072  11.695  1.00  0.00     0.251 C 
BRANCH  15  16
HETATM   16  N   UNL     1     -41.974 -52.994  12.422  1.00  0.00    -0.288 N 
HETATM   17  C   UNL     1     -41.625 -53.828  13.457  1.00  0.00     0.027 A 
HETATM   18  C   UNL     1     -42.805 -54.385  13.903  1.00  0.00     0.052 A 
HETATM   19  C   UNL     1     -40.240 -54.026  13.947  1.00  0.00     0.070 C 
HETATM   20  C   UNL     1     -43.816 -53.801  13.112  1.00  0.00     0.024 A 
HETATM   21  C   UNL     1     -45.278 -54.043  13.199  1.00  0.00     0.070 C 
HETATM   22  N   UNL     1     -43.313 -52.931  12.226  1.00  0.00    -0.303 N 
ATOM     23  HN  UNL     1     -43.822 -52.354  11.557  1.00  0.00     0.186 HD
ENDBRANCH  15  16
ENDBRANCH   1  15
TORSDOF 5
ENDMDL
MODEL 6
REMARK VINA RESULT:      -5.7      3.245      7.286
REMARK  5 active torsions:
REMARK  status: ('A' for Active; 'I' for Inactive)
REMARK    1  A    between atoms: N_6  and  C_7 
REMARK    2  A    between atoms: C_7  and  C_8 
REMARK       I    between atoms: C_8  and  N_10 
REMARK    3  A    between atoms: N_10  and  C_11 
REMARK    4  A    between atoms: C_11  and  C_17 
REMARK    5  A    between atoms: C_17  and  O_19 
ROOT
HETATM    1  C   UNL     1     -40.909 -48.621  11.662  1.00  0.00     0.238 C 
HETATM    2  O   UNL     1     -41.712 -48.553  12.587  1.00  0.00    -0.272 OA
HETATM    3  N   UNL     1     -40.497 -47.528  10.923  1.00  0.00    -0.341 N 
HETATM    4  H   UNL     1     -39.570 -47.673  10.516  1.00  0.00     0.163 HD
ENDROOT
BRANCH   3   5
HETATM    5  C   UNL     1     -40.815 -46.112  11.225  1.00  0.00     0.118 C 
HETATM    6  C   UNL     1     -40.846 -45.766  12.735  1.00  0.00     0.042 C 
HETATM    7  C   UNL     1     -41.236 -44.299  12.973  1.00  0.00     0.003 C 
HETATM    8  C   UNL     1     -40.302 -43.338  12.244  1.00  0.00     0.000 C 
HETATM    9  C   UNL     1     -40.158 -43.677  10.764  1.00  0.00     0.003 C 
HETATM   10  C   UNL     1     -39.822 -45.155  10.530  1.00  0.00     0.042 C 
BRANCH   5  11
HETATM   11  C   UNL     1     -42.232 -45.979  10.592  1.00  0.00     0.169 C 
HETATM   12  O   UNL     1     -42.450 -45.742   9.414  1.00  0.00    -0.648 OA
BRANCH  11  13
HETATM   13  O   UNL     1     -43.252 -46.275  11.436  1.00  0.00    -0.775 OA
HETATM   14  H   UNL     1     -43.256 -47.200  11.740  1.00  0.00     0.167 HD
ENDBRANCH  11  13
ENDBRANCH   5  11
ENDBRANCH   3   5
BRANCH   1  15
HETATM   15  C   UNL     1     -40.353 -49.945  11.166  1.00  0.00     0.251 C 
BRANCH  15  16
HETATM   16  N   UNL     1     -39.420 -50.564  12.094  1.00  0.00    -0.288 N 
HETATM   17  C   UNL     1     -38.047 -50.530  12.054  1.00  0.00     0.027 A 
HETATM   18  C   UNL     1     -37.624 -51.131  13.221  1.00  0.00     0.052 A 
HETATM   19  C   UNL     1     -37.252 -49.937  10.952  1.00  0.00     0.070 C 
HETATM   20  C   UNL     1     -38.803 -51.457  13.921  1.00  0.00     0.024 A 
HETATM   21  C   UNL     1     -38.907 -52.107  15.253  1.00  0.00     0.070 C 
HETATM   22  N   UNL     1     -39.899 -51.087  13.248  1.00  0.00    -0.303 N 
ATOM     23  HN  UNL     1     -40.873 -51.178  13.537  1.00  0.00     0.186 HD
ENDBRANCH  15  16
ENDBRANCH   1  15
TORSDOF 5
ENDMDL
MODEL 7
REMARK VINA RESULT:      -5.6      3.172      5.803
REMARK  5 active torsions:
REMARK  status: ('A' for Active; 'I' for Inactive)
REMARK    1  A    between atoms: N_6  and  C_7 
REMARK    2  A    between atoms: C_7  and  C_8 
REMARK       I    between atoms: C_8  and  N_10 
REMARK    3  A    between atoms: N_10  and  C_11 
REMARK    4  A    between atoms: C_11  and  C_17 
REMARK    5  A    between atoms: C_17  and  O_19 
ROOT
HETATM    1  C   UNL     1     -42.317 -51.699  13.439  1.00  0.00     0.238 C 
HETATM    2  O   UNL     1     -41.706 -51.901  14.485  1.00  0.00    -0.272 OA
HETATM    3  N   UNL     1     -41.919 -50.780  12.487  1.00  0.00    -0.341 N 
HETATM    4  H   UNL     1     -42.260 -51.028  11.555  1.00  0.00     0.163 HD
ENDROOT
BRANCH   3   5
HETATM    5  C   UNL     1     -40.641 -50.031  12.488  1.00  0.00     0.118 C 
HETATM    6  C   UNL     1     -40.453 -49.079  13.697  1.00  0.00     0.042 C 
HETATM    7  C   UNL     1     -39.135 -48.296  13.603  1.00  0.00     0.003 C 
HETATM    8  C   UNL     1     -37.930 -49.225  13.487  1.00  0.00     0.000 C 
HETATM    9  C   UNL     1     -38.089 -50.248  12.368  1.00  0.00     0.003 C 
HETATM   10  C   UNL     1     -39.430 -50.988  12.435  1.00  0.00     0.042 C 
BRANCH   5  11
HETATM   11  C   UNL     1     -40.760 -49.228  11.159  1.00  0.00     0.169 C 
HETATM   12  O   UNL     1     -41.027 -48.038  11.085  1.00  0.00    -0.648 OA
BRANCH  11  13
HETATM   13  O   UNL     1     -40.416 -49.927  10.049  1.00  0.00    -0.775 OA
HETATM   14  H   UNL     1     -40.087 -50.825  10.234  1.00  0.00     0.167 HD
ENDBRANCH  11  13
ENDBRANCH   5  11
ENDBRANCH   3   5
BRANCH   1  15
HETATM   15  C   UNL     1     -43.639 -52.379  13.127  1.00  0.00     0.251 C 
BRANCH  15  16
HETATM   16  N   UNL     1     -44.757 -51.847  13.889  1.00  0.00    -0.288 N 
HETATM   17  C   UNL     1     -46.069 -51.740  13.494  1.00  0.00     0.027 A 
HETATM   18  C   UNL     1     -46.763 -51.319  14.608  1.00  0.00     0.052 A 
HETATM   19  C   UNL     1     -46.564 -52.046  12.130  1.00  0.00     0.070 C 
HETATM   20  C   UNL     1     -45.802 -51.240  15.637  1.00  0.00     0.024 A 
HETATM   21  C   UNL     1     -46.031 -50.851  17.052  1.00  0.00     0.070 C 
HETATM   22  N   UNL     1     -44.583 -51.588  15.207  1.00  0.00    -0.303 N 
ATOM     23  HN  UNL     1     -43.720 -51.645  15.748  1.00  0.00     0.186 HD
ENDBRANCH  15  16
ENDBRANCH   1  15
TORSDOF 5
ENDMDL
MODEL 8
REMARK VINA RESULT:      -5.6      3.221      5.736
REMARK  5 active torsions:
REMARK  status: ('A' for Active; 'I' for Inactive)
REMARK    1  A    between atoms: N_6  and  C_7 
REMARK    2  A    between atoms: C_7  and  C_8 
REMARK       I    between atoms: C_8  and  N_10 
REMARK    3  A    between atoms: N_10  and  C_11 
REMARK    4  A    between atoms: C_11  and  C_17 
REMARK    5  A    between atoms: C_17  and  O_19 
ROOT
HETATM    1  C   UNL     1     -42.257 -51.547  13.336  1.00  0.00     0.238 C 
HETATM    2  O   UNL     1     -42.828 -50.541  13.749  1.00  0.00    -0.272 OA
HETATM    3  N   UNL     1     -41.001 -51.532  12.760  1.00  0.00    -0.341 N 
HETATM    4  H   UNL     1     -40.526 -52.432  12.866  1.00  0.00     0.163 HD
ENDROOT
BRANCH   3   5
HETATM    5  C   UNL     1     -40.091 -50.365  12.700  1.00  0.00     0.118 C 
HETATM    6  C   UNL     1     -40.074 -49.494  13.982  1.00  0.00     0.042 C 
HETATM    7  C   UNL     1     -39.154 -48.274  13.829  1.00  0.00     0.003 C 
HETATM    8  C   UNL     1     -37.729 -48.681  13.464  1.00  0.00     0.000 C 
HETATM    9  C   UNL     1     -37.680 -49.613  12.258  1.00  0.00     0.003 C 
HETATM   10  C   UNL     1     -38.641 -50.800  12.393  1.00  0.00     0.042 C 
BRANCH   5  11
HETATM   11  C   UNL     1     -40.689 -49.576  11.498  1.00  0.00     0.169 C 
HETATM   12  O   UNL     1     -41.280 -48.511  11.589  1.00  0.00    -0.648 OA
BRANCH  11  13
HETATM   13  O   UNL     1     -40.399 -50.103  10.282  1.00  0.00    -0.775 OA
HETATM   14  H   UNL     1     -39.557 -50.591  10.254  1.00  0.00     0.167 HD
ENDBRANCH  11  13
ENDBRANCH   5  11
ENDBRANCH   3   5
BRANCH   1  15
HETATM   15  C   UNL     1     -42.924 -52.911  13.330  1.00  0.00     0.251 C 
BRANCH  15  16
HETATM   16  N   UNL     1     -44.375 -52.847  13.282  1.00  0.00    -0.288 N 
HETATM   17  C   UNL     1     -45.263 -53.105  14.299  1.00  0.00     0.027 A 
HETATM   18  C   UNL     1     -46.505 -52.765  13.807  1.00  0.00     0.052 A 
HETATM   19  C   UNL     1     -44.884 -53.632  15.632  1.00  0.00     0.070 C 
HETATM   20  C   UNL     1     -46.269 -52.271  12.508  1.00  0.00     0.024 A 
HETATM   21  C   UNL     1     -47.276 -51.749  11.548  1.00  0.00     0.070 C 
HETATM   22  N   UNL     1     -44.968 -52.295  12.196  1.00  0.00    -0.303 N 
ATOM     23  HN  UNL     1     -44.523 -51.972  11.337  1.00  0.00     0.186 HD
ENDBRANCH  15  16
ENDBRANCH   1  15
TORSDOF 5
ENDMDL
MODEL 9
REMARK VINA RESULT:      -5.6      3.534      5.312
REMARK  5 active torsions:
REMARK  status: ('A' for Active; 'I' for Inactive)
REMARK    1  A    between atoms: N_6  and  C_7 
REMARK    2  A    between atoms: C_7  and  C_8 
REMARK       I    between atoms: C_8  and  N_10 
REMARK    3  A    between atoms: N_10  and  C_11 
REMARK    4  A    between atoms: C_11  and  C_17 
REMARK    5  A    between atoms: C_17  and  O_19 
ROOT
HETATM    1  C   UNL     1     -42.343 -52.250  13.330  1.00  0.00     0.238 C 
HETATM    2  O   UNL     1     -42.234 -51.920  12.153  1.00  0.00    -0.272 OA
HETATM    3  N   UNL     1     -41.417 -51.929  14.304  1.00  0.00    -0.341 N 
HETATM    4  H   UNL     1     -41.840 -51.898  15.234  1.00  0.00     0.163 HD
ENDROOT
BRANCH   3   5
HETATM    5  C   UNL     1     -40.260 -51.018  14.130  1.00  0.00     0.118 C 
HETATM    6  C   UNL     1     -40.599 -49.669  13.447  1.00  0.00     0.042 C 
HETATM    7  C   UNL     1     -39.347 -48.802  13.249  1.00  0.00     0.003 C 
HETATM    8  C   UNL     1     -38.622 -48.544  14.567  1.00  0.00     0.000 C 
HETATM    9  C   UNL     1     -38.335 -49.830  15.335  1.00  0.00     0.003 C 
HETATM   10  C   UNL     1     -39.577 -50.716  15.481  1.00  0.00     0.042 C 
BRANCH   5  11
HETATM   11  C   UNL     1     -39.329 -51.881  13.229  1.00  0.00     0.169 C 
HETATM   12  O   UNL     1     -38.691 -52.850  13.612  1.00  0.00    -0.648 OA
BRANCH  11  13
HETATM   13  O   UNL     1     -39.362 -51.555  11.913  1.00  0.00    -0.775 OA
HETATM   14  H   UNL     1     -38.483 -51.397  11.523  1.00  0.00     0.167 HD
ENDBRANCH  11  13
ENDBRANCH   5  11
ENDBRANCH   3   5
BRANCH   1  15
HETATM   15  C   UNL     1     -43.474 -53.136  13.823  1.00  0.00     0.251 C 
BRANCH  15  16
HETATM   16  N   UNL     1     -44.794 -52.576  13.585  1.00  0.00    -0.288 N 
HETATM   17  C   UNL     1     -45.565 -51.841  14.453  1.00  0.00     0.027 A 
HETATM   18  C   UNL     1     -46.654 -51.418  13.721  1.00  0.00     0.052 A 
HETATM   19  C   UNL     1     -45.222 -51.587  15.873  1.00  0.00     0.070 C 
HETATM   20  C   UNL     1     -46.437 -51.905  12.415  1.00  0.00     0.024 A 
HETATM   21  C   UNL     1     -47.308 -51.711  11.228  1.00  0.00     0.070 C 
HETATM   22  N   UNL     1     -45.290 -52.589  12.324  1.00  0.00    -0.303 N 
ATOM     23  HN  UNL     1     -44.882 -53.020  11.495  1.00  0.00     0.186 HD
ENDBRANCH  15  16
ENDBRANCH   1  15
TORSDOF 5
ENDMDL
