MODEL 1
REMARK VINA RESULT:      -5.7      0.000      0.000
REMARK  5 active torsions:
REMARK  status: ('A' for Active; 'I' for Inactive)
REMARK    1  A    between atoms: C_2  and  C_3 
REMARK    2  A    between atoms: C_2  and  N_10 
REMARK    3  A    between atoms: C_3  and  N_4 
REMARK       I    between atoms: N_10  and  C_11 
REMARK    4  A    between atoms: C_11  and  C_13 
REMARK    5  A    between atoms: C_13  and  N_14 
ROOT
HETATM    1  N   UNL     1     -42.240 -48.485  10.199  1.00  0.00    -0.354 N 
HETATM    2  C   UNL     1     -42.698 -47.235   9.839  1.00  0.00     0.237 C 
HETATM    3  O   UNL     1     -42.595 -46.247  10.557  1.00  0.00    -0.272 OA
HETATM    4  H   UNL     1     -42.426 -49.265   9.577  1.00  0.00     0.162 HD
ENDROOT
BRANCH   1   5
HETATM    5  C   UNL     1     -41.602 -48.757  11.493  1.00  0.00     0.108 C 
HETATM    6  C   UNL     1     -42.609 -49.465  12.404  1.00  0.00     0.034 C 
BRANCH   5   7
HETATM    7  C   UNL     1     -40.291 -49.588  11.327  1.00  0.00     0.297 C 
BRANCH   7   8
HETATM    8  N   UNL     1     -39.028 -48.907  11.680  1.00  0.00     0.094 N 
HETATM    9  C   UNL     1     -37.826 -49.750  11.486  1.00  0.00     0.298 C 
HETATM   10  C   UNL     1     -37.583 -50.824  12.566  1.00  0.00     0.198 C 
HETATM   11  O   UNL     1     -37.617 -50.273  13.888  1.00  0.00    -0.388 OA
HETATM   12  C   UNL     1     -38.858 -49.599  14.116  1.00  0.00     0.198 C 
HETATM   13  C   UNL     1     -39.052 -48.463  13.096  1.00  0.00     0.298 C 
ENDBRANCH   7   8
ENDBRANCH   5   7
ENDBRANCH   1   5
BRANCH   2  14
HETATM   14  C   UNL     1     -43.346 -47.158   8.479  1.00  0.00     0.250 C 
BRANCH  14  15
HETATM   15  N   UNL     1     -44.699 -47.671   8.507  1.00  0.00    -0.295 N 
HETATM   16  C   UNL     1     -45.659 -47.416   9.447  1.00  0.00     0.112 A 
HETATM   17  C   UNL     1     -46.770 -48.128   9.061  1.00  0.00     0.037 A 
HETATM   18  C   UNL     1     -46.375 -48.795   7.887  1.00  0.00     0.108 A 
HETATM   19  N   UNL     1     -45.115 -48.517   7.541  1.00  0.00    -0.310 N 
ATOM     20  HN  UNL     1     -44.591 -48.862   6.737  1.00  0.00     0.186 HD
ENDBRANCH  14  15
ENDBRANCH   2  14
TORSDOF 5
ENDMDL
MODEL 2
REMARK VINA RESULT:      -5.4      3.333      6.231
REMARK  5 active torsions:
REMARK  status: ('A' for Active; 'I' for Inactive)
REMARK    1  A    between atoms: C_2  and  C_3 
REMARK    2  A    between atoms: C_2  and  N_10 
REMARK    3  A    between atoms: C_3  and  N_4 
REMARK       I    between atoms: N_10  and  C_11 
REMARK    4  A    between atoms: C_11  and  C_13 
REMARK    5  A    between atoms: C_13  and  N_14 
ROOT
HETATM    1  N   UNL     1     -40.846 -50.284  11.563  1.00  0.00    -0.354 N 
HETATM    2  C   UNL     1     -41.783 -51.061  12.209  1.00  0.00     0.237 C 
HETATM    3  O   UNL     1     -42.725 -50.595  12.840  1.00  0.00    -0.272 OA
HETATM    4  H   UNL     1     -40.057 -50.745  11.121  1.00  0.00     0.162 HD
ENDROOT
BRANCH   1   5
HETATM    5  C   UNL     1     -40.874 -48.816  11.588  1.00  0.00     0.108 C 
HETATM    6  C   UNL     1     -39.436 -48.292  11.629  1.00  0.00     0.034 C 
BRANCH   5   7
HETATM    7  C   UNL     1     -41.666 -48.234  10.375  1.00  0.00     0.297 C 
BRANCH   7   8
HETATM    8  N   UNL     1     -43.016 -47.703  10.659  1.00  0.00     0.094 N 
HETATM    9  C   UNL     1     -43.827 -47.465   9.444  1.00  0.00     0.298 C 
HETATM   10  C   UNL     1     -43.468 -46.199   8.639  1.00  0.00     0.198 C 
HETATM   11  O   UNL     1     -43.426 -45.031   9.467  1.00  0.00    -0.388 OA
HETATM   12  C   UNL     1     -42.509 -45.218  10.550  1.00  0.00     0.198 C 
HETATM   13  C   UNL     1     -42.926 -46.425  11.409  1.00  0.00     0.298 C 
ENDBRANCH   7   8
ENDBRANCH   5   7
ENDBRANCH   1   5
BRANCH   2  14
HETATM   14  C   UNL     1     -41.574 -52.550  12.088  1.00  0.00     0.250 C 
BRANCH  14  15
HETATM   15  N   UNL     1     -42.663 -53.289  12.692  1.00  0.00    -0.295 N 
HETATM   16  C   UNL     1     -42.616 -54.044  13.830  1.00  0.00     0.112 A 
HETATM   17  C   UNL     1     -43.880 -54.558  13.999  1.00  0.00     0.037 A 
HETATM   18  C   UNL     1     -44.613 -54.071  12.901  1.00  0.00     0.108 A 
HETATM   19  N   UNL     1     -43.877 -53.293  12.103  1.00  0.00    -0.310 N 
ATOM     20  HN  UNL     1     -44.165 -52.814  11.249  1.00  0.00     0.186 HD
ENDBRANCH  14  15
ENDBRANCH   2  14
TORSDOF 5
ENDMDL
MODEL 3
REMARK VINA RESULT:      -5.4      3.857      4.905
REMARK  5 active torsions:
REMARK  status: ('A' for Active; 'I' for Inactive)
REMARK    1  A    between atoms: C_2  and  C_3 
REMARK    2  A    between atoms: C_2  and  N_10 
REMARK    3  A    between atoms: C_3  and  N_4 
REMARK       I    between atoms: N_10  and  C_11 
REMARK    4  A    between atoms: C_11  and  C_13 
REMARK    5  A    between atoms: C_13  and  N_14 
ROOT
HETATM    1  N   UNL     1     -42.314 -50.371  12.056  1.00  0.00    -0.354 N 
HETATM    2  C   UNL     1     -41.788 -49.265  11.424  1.00  0.00     0.237 C 
HETATM    3  O   UNL     1     -40.694 -49.263  10.870  1.00  0.00    -0.272 OA
HETATM    4  H   UNL     1     -43.195 -50.271  12.552  1.00  0.00     0.162 HD
ENDROOT
BRANCH   1   5
HETATM    5  C   UNL     1     -41.602 -51.652  12.148  1.00  0.00     0.108 C 
HETATM    6  C   UNL     1     -40.463 -51.515  13.162  1.00  0.00     0.034 C 
BRANCH   5   7
HETATM    7  C   UNL     1     -42.565 -52.823  12.516  1.00  0.00     0.297 C 
BRANCH   7   8
HETATM    8  N   UNL     1     -43.362 -52.660  13.750  1.00  0.00     0.094 N 
HETATM    9  C   UNL     1     -42.860 -53.462  14.890  1.00  0.00     0.298 C 
HETATM   10  C   UNL     1     -43.188 -54.968  14.842  1.00  0.00     0.198 C 
HETATM   11  O   UNL     1     -44.583 -55.207  14.621  1.00  0.00    -0.388 OA
HETATM   12  C   UNL     1     -45.017 -54.557  13.421  1.00  0.00     0.198 C 
HETATM   13  C   UNL     1     -44.777 -53.040  13.512  1.00  0.00     0.298 C 
ENDBRANCH   7   8
ENDBRANCH   5   7
ENDBRANCH   1   5
BRANCH   2  14
HETATM   14  C   UNL     1     -42.659 -48.035  11.455  1.00  0.00     0.250 C 
BRANCH  14  15
HETATM   15  N   UNL     1     -43.319 -47.821  10.184  1.00  0.00    -0.295 N 
HETATM   16  C   UNL     1     -44.615 -47.436   9.982  1.00  0.00     0.112 A 
HETATM   17  C   UNL     1     -44.788 -47.377   8.620  1.00  0.00     0.037 A 
HETATM   18  C   UNL     1     -43.545 -47.762   8.086  1.00  0.00     0.108 A 
HETATM   19  N   UNL     1     -42.644 -48.029   9.035  1.00  0.00    -0.310 N 
ATOM     20  HN  UNL     1     -41.673 -48.323   8.918  1.00  0.00     0.186 HD
ENDBRANCH  14  15
ENDBRANCH   2  14
TORSDOF 5
ENDMDL
MODEL 4
REMARK VINA RESULT:      -5.2      4.199      6.194
REMARK  5 active torsions:
REMARK  status: ('A' for Active; 'I' for Inactive)
REMARK    1  A    between atoms: C_2  and  C_3 
REMARK    2  A    between atoms: C_2  and  N_10 
REMARK    3  A    between atoms: C_3  and  N_4 
REMARK       I    between atoms: N_10  and  C_11 
REMARK    4  A    between atoms: C_11  and  C_13 
REMARK    5  A    between atoms: C_13  and  N_14 
ROOT
HETATM    1  N   UNL     1     -43.903 -50.397  12.546  1.00  0.00    -0.354 N 
HETATM    2  C   UNL     1     -44.642 -50.869  13.609  1.00  0.00     0.237 C 
HETATM    3  O   UNL     1     -44.303 -50.733  14.779  1.00  0.00    -0.272 OA
HETATM    4  H   UNL     1     -44.217 -50.612  11.605  1.00  0.00     0.162 HD
ENDROOT
BRANCH   1   5
HETATM    5  C   UNL     1     -42.621 -49.701  12.714  1.00  0.00     0.108 C 
HETATM    6  C   UNL     1     -41.502 -50.577  12.144  1.00  0.00     0.034 C 
BRANCH   5   7
HETATM    7  C   UNL     1     -42.640 -48.288  12.050  1.00  0.00     0.297 C 
BRANCH   7   8
HETATM    8  N   UNL     1     -41.816 -48.116  10.835  1.00  0.00     0.094 N 
HETATM    9  C   UNL     1     -40.779 -47.068  10.965  1.00  0.00     0.298 C 
HETATM   10  C   UNL     1     -41.283 -45.614  10.864  1.00  0.00     0.198 C 
HETATM   11  O   UNL     1     -42.082 -45.404   9.693  1.00  0.00    -0.388 OA
HETATM   12  C   UNL     1     -43.180 -46.322   9.667  1.00  0.00     0.198 C 
HETATM   13  C   UNL     1     -42.670 -47.774   9.670  1.00  0.00     0.298 C 
ENDBRANCH   7   8
ENDBRANCH   5   7
ENDBRANCH   1   5
BRANCH   2  14
HETATM   14  C   UNL     1     -45.920 -51.578  13.235  1.00  0.00     0.250 C 
BRANCH  14  15
HETATM   15  N   UNL     1     -45.876 -52.978  13.603  1.00  0.00    -0.295 N 
HETATM   16  C   UNL     1     -44.929 -53.896  13.242  1.00  0.00     0.112 A 
HETATM   17  C   UNL     1     -45.314 -55.085  13.815  1.00  0.00     0.037 A 
HETATM   18  C   UNL     1     -46.514 -54.786  14.485  1.00  0.00     0.108 A 
HETATM   19  N   UNL     1     -46.859 -53.502  14.363  1.00  0.00    -0.310 N 
ATOM     20  HN  UNL     1     -47.675 -53.029  14.753  1.00  0.00     0.186 HD
ENDBRANCH  14  15
ENDBRANCH   2  14
TORSDOF 5
ENDMDL
MODEL 5
REMARK VINA RESULT:      -5.1      4.878      8.159
REMARK  5 active torsions:
REMARK  status: ('A' for Active; 'I' for Inactive)
REMARK    1  A    between atoms: C_2  and  C_3 
REMARK    2  A    between atoms: C_2  and  N_10 
REMARK    3  A    between atoms: C_3  and  N_4 
REMARK       I    between atoms: N_10  and  C_11 
REMARK    4  A    between atoms: C_11  and  C_13 
REMARK    5  A    between atoms: C_13  and  N_14 
ROOT
HETATM    1  N   UNL     1     -40.946 -53.439  14.638  1.00  0.00    -0.354 N 
HETATM    2  C   UNL     1     -40.149 -53.030  13.591  1.00  0.00     0.237 C 
HETATM    3  O   UNL     1     -40.392 -53.291  12.418  1.00  0.00    -0.272 OA
HETATM    4  H   UNL     1     -40.638 -53.242  15.585  1.00  0.00     0.162 HD
ENDROOT
BRANCH   1   5
HETATM    5  C   UNL     1     -42.155 -54.250  14.450  1.00  0.00     0.108 C 
HETATM    6  C   UNL     1     -42.263 -55.256  15.599  1.00  0.00     0.034 C 
BRANCH   5   7
HETATM    7  C   UNL     1     -43.434 -53.362  14.340  1.00  0.00     0.297 C 
BRANCH   7   8
HETATM    8  N   UNL     1     -44.452 -53.787  13.356  1.00  0.00     0.094 N 
HETATM    9  C   UNL     1     -45.334 -52.687  12.902  1.00  0.00     0.298 C 
HETATM   10  C   UNL     1     -46.432 -52.259  13.896  1.00  0.00     0.198 C 
HETATM   11  O   UNL     1     -47.200 -53.375  14.361  1.00  0.00    -0.388 OA
HETATM   12  C   UNL     1     -46.344 -54.361  14.948  1.00  0.00     0.198 C 
HETATM   13  C   UNL     1     -45.310 -54.858  13.922  1.00  0.00     0.298 C 
ENDBRANCH   7   8
ENDBRANCH   5   7
ENDBRANCH   1   5
BRANCH   2  14
HETATM   14  C   UNL     1     -38.937 -52.225  13.985  1.00  0.00     0.250 C 
BRANCH  14  15
HETATM   15  N   UNL     1     -38.621 -51.221  12.990  1.00  0.00    -0.295 N 
HETATM   16  C   UNL     1     -37.386 -50.909  12.496  1.00  0.00     0.112 A 
HETATM   17  C   UNL     1     -37.582 -49.893  11.591  1.00  0.00     0.037 A 
HETATM   18  C   UNL     1     -38.967 -49.649  11.624  1.00  0.00     0.108 A 
HETATM   19  N   UNL     1     -39.607 -50.458  12.472  1.00  0.00    -0.310 N 
ATOM     20  HN  UNL     1     -40.605 -50.492  12.680  1.00  0.00     0.186 HD
ENDBRANCH  14  15
ENDBRANCH   2  14
TORSDOF 5
ENDMDL
MODEL 6
REMARK VINA RESULT:      -5.1      4.807      7.935
REMARK  5 active torsions:
REMARK  status: ('A' for Active; 'I' for Inactive)
REMARK    1  A    between atoms: C_2  and  C_3 
REMARK    2  A    between atoms: C_2  and  N_10 
REMARK    3  A    between atoms: C_3  and  N_4 
REMARK       I    between atoms: N_10  and  C_11 
REMARK    4  A    between atoms: C_11  and  C_13 
REMARK    5  A    between atoms: C_13  and  N_14 
ROOT
HETATM    1  N   UNL     1     -41.660 -52.839  14.157  1.00  0.00    -0.354 N 
HETATM    2  C   UNL     1     -40.952 -52.425  13.049  1.00  0.00     0.237 C 
HETATM    3  O   UNL     1     -40.566 -53.190  12.172  1.00  0.00    -0.272 OA
HETATM    4  H   UNL     1     -41.882 -52.153  14.872  1.00  0.00     0.162 HD
ENDROOT
BRANCH   1   5
HETATM    5  C   UNL     1     -42.001 -54.245  14.405  1.00  0.00     0.108 C 
HETATM    6  C   UNL     1     -41.077 -54.795  15.495  1.00  0.00     0.034 C 
BRANCH   5   7
HETATM    7  C   UNL     1     -43.506 -54.415  14.786  1.00  0.00     0.297 C 
BRANCH   7   8
HETATM    8  N   UNL     1     -44.436 -54.727  13.681  1.00  0.00     0.094 N 
HETATM    9  C   UNL     1     -44.444 -53.708  12.607  1.00  0.00     0.298 C 
HETATM   10  C   UNL     1     -45.213 -52.409  12.926  1.00  0.00     0.198 C 
HETATM   11  O   UNL     1     -46.541 -52.673  13.394  1.00  0.00    -0.388 OA
HETATM   12  C   UNL     1     -46.505 -53.533  14.538  1.00  0.00     0.198 C 
HETATM   13  C   UNL     1     -45.823 -54.868  14.190  1.00  0.00     0.298 C 
ENDBRANCH   7   8
ENDBRANCH   5   7
ENDBRANCH   1   5
BRANCH   2  14
HETATM   14  C   UNL     1     -40.677 -50.944  12.980  1.00  0.00     0.250 C 
BRANCH  14  15
HETATM   15  N   UNL     1     -39.316 -50.676  12.564  1.00  0.00    -0.295 N 
HETATM   16  C   UNL     1     -38.904 -49.782  11.616  1.00  0.00     0.112 A 
HETATM   17  C   UNL     1     -37.535 -49.889  11.560  1.00  0.00     0.037 A 
HETATM   18  C   UNL     1     -37.217 -50.887  12.499  1.00  0.00     0.108 A 
HETATM   19  N   UNL     1     -38.298 -51.368  13.118  1.00  0.00    -0.310 N 
ATOM     20  HN  UNL     1     -38.344 -52.088  13.839  1.00  0.00     0.186 HD
ENDBRANCH  14  15
ENDBRANCH   2  14
TORSDOF 5
ENDMDL
MODEL 7
REMARK VINA RESULT:      -4.8      4.176      6.184
REMARK  5 active torsions:
REMARK  status: ('A' for Active; 'I' for Inactive)
REMARK    1  A    between atoms: C_2  and  C_3 
REMARK    2  A    between atoms: C_2  and  N_10 
REMARK    3  A    between atoms: C_3  and  N_4 
REMARK       I    between atoms: N_10  and  C_11 
REMARK    4  A    between atoms: C_11  and  C_13 
REMARK    5  A    between atoms: C_13  and  N_14 
ROOT
HETATM    1  N   UNL     1     -41.367 -51.979  11.597  1.00  0.00    -0.354 N 
HETATM    2  C   UNL     1     -41.169 -50.694  12.056  1.00  0.00     0.237 C 
HETATM    3  O   UNL     1     -41.552 -50.304  13.153  1.00  0.00    -0.272 OA
HETATM    4  H   UNL     1     -41.081 -52.203  10.649  1.00  0.00     0.162 HD
ENDROOT
BRANCH   1   5
HETATM    5  C   UNL     1     -42.078 -53.002  12.374  1.00  0.00     0.108 C 
HETATM    6  C   UNL     1     -41.188 -53.452  13.535  1.00  0.00     0.034 C 
BRANCH   5   7
HETATM    7  C   UNL     1     -43.463 -52.484  12.876  1.00  0.00     0.297 C 
BRANCH   7   8
HETATM    8  N   UNL     1     -44.649 -53.268  12.470  1.00  0.00     0.094 N 
HETATM    9  C   UNL     1     -45.911 -52.496  12.509  1.00  0.00     0.298 C 
HETATM   10  C   UNL     1     -46.509 -52.265  13.912  1.00  0.00     0.198 C 
HETATM   11  O   UNL     1     -46.630 -53.485  14.652  1.00  0.00    -0.388 OA
HETATM   12  C   UNL     1     -45.361 -54.140  14.745  1.00  0.00     0.198 C 
HETATM   13  C   UNL     1     -44.812 -54.457  13.343  1.00  0.00     0.298 C 
ENDBRANCH   7   8
ENDBRANCH   5   7
ENDBRANCH   1   5
BRANCH   2  14
HETATM   14  C   UNL     1     -40.437 -49.780  11.106  1.00  0.00     0.250 C 
BRANCH  14  15
HETATM   15  N   UNL     1     -41.161 -48.544  10.896  1.00  0.00    -0.295 N 
HETATM   16  C   UNL     1     -40.678 -47.272  11.033  1.00  0.00     0.112 A 
HETATM   17  C   UNL     1     -41.727 -46.432  10.745  1.00  0.00     0.037 A 
HETATM   18  C   UNL     1     -42.805 -47.292  10.464  1.00  0.00     0.108 A 
HETATM   19  N   UNL     1     -42.464 -48.581  10.551  1.00  0.00    -0.310 N 
ATOM     20  HN  UNL     1     -43.052 -49.400  10.394  1.00  0.00     0.186 HD
ENDBRANCH  14  15
ENDBRANCH   2  14
TORSDOF 5
ENDMDL
MODEL 8
REMARK VINA RESULT:      -4.8      4.524      5.788
REMARK  5 active torsions:
REMARK  status: ('A' for Active; 'I' for Inactive)
REMARK    1  A    between atoms: C_2  and  C_3 
REMARK    2  A    between atoms: C_2  and  N_10 
REMARK    3  A    between atoms: C_3  and  N_4 
REMARK       I    between atoms: N_10  and  C_11 
REMARK    4  A    between atoms: C_11  and  C_13 
REMARK    5  A    between atoms: C_13  and  N_14 
ROOT
HETATM    1  N   UNL     1     -42.753 -53.486  13.451  1.00  0.00    -0.354 N 
HETATM    2  C   UNL     1     -43.587 -54.425  14.019  1.00  0.00     0.237 C 
HETATM    3  O   UNL     1     -43.261 -55.129  14.968  1.00  0.00    -0.272 OA
HETATM    4  H   UNL     1     -43.073 -52.992  12.624  1.00  0.00     0.162 HD
ENDROOT
BRANCH   1   5
HETATM    5  C   UNL     1     -41.380 -53.255  13.917  1.00  0.00     0.108 C 
HETATM    6  C   UNL     1     -40.440 -54.220  13.190  1.00  0.00     0.034 C 
BRANCH   5   7
HETATM    7  C   UNL     1     -40.946 -51.768  13.717  1.00  0.00     0.297 C 
BRANCH   7   8
HETATM    8  N   UNL     1     -39.977 -51.502  12.634  1.00  0.00     0.094 N 
HETATM    9  C   UNL     1     -38.661 -51.027  13.119  1.00  0.00     0.298 C 
HETATM   10  C   UNL     1     -38.608 -49.552  13.568  1.00  0.00     0.198 C 
HETATM   11  O   UNL     1     -39.139 -48.669  12.572  1.00  0.00    -0.388 OA
HETATM   12  C   UNL     1     -40.477 -49.046  12.232  1.00  0.00     0.198 C 
HETATM   13  C   UNL     1     -40.512 -50.486  11.693  1.00  0.00     0.298 C 
ENDBRANCH   7   8
ENDBRANCH   5   7
ENDBRANCH   1   5
BRANCH   2  14
HETATM   14  C   UNL     1     -44.953 -54.533  13.388  1.00  0.00     0.250 C 
BRANCH  14  15
HETATM   15  N   UNL     1     -45.646 -53.262  13.405  1.00  0.00    -0.295 N 
HETATM   16  C   UNL     1     -46.165 -52.620  14.494  1.00  0.00     0.112 A 
HETATM   17  C   UNL     1     -46.735 -51.463  14.019  1.00  0.00     0.037 A 
HETATM   18  C   UNL     1     -46.524 -51.506  12.629  1.00  0.00     0.108 A 
HETATM   19  N   UNL     1     -45.856 -52.599  12.249  1.00  0.00    -0.310 N 
ATOM     20  HN  UNL     1     -45.573 -52.869  11.307  1.00  0.00     0.186 HD
ENDBRANCH  14  15
ENDBRANCH   2  14
TORSDOF 5
ENDMDL
MODEL 9
REMARK VINA RESULT:      -4.7      5.295      6.334
REMARK  5 active torsions:
REMARK  status: ('A' for Active; 'I' for Inactive)
REMARK    1  A    between atoms: C_2  and  C_3 
REMARK    2  A    between atoms: C_2  and  N_10 
REMARK    3  A    between atoms: C_3  and  N_4 
REMARK       I    between atoms: N_10  and  C_11 
REMARK    4  A    between atoms: C_11  and  C_13 
REMARK    5  A    between atoms: C_13  and  N_14 
ROOT
HETATM    1  N   UNL     1     -43.371 -52.462  12.868  1.00  0.00    -0.354 N 
HETATM    2  C   UNL     1     -44.512 -53.198  12.629  1.00  0.00     0.237 C 
HETATM    3  O   UNL     1     -44.496 -54.387  12.331  1.00  0.00    -0.272 OA
HETATM    4  H   UNL     1     -43.466 -51.466  13.041  1.00  0.00     0.162 HD
ENDROOT
BRANCH   1   5
HETATM    5  C   UNL     1     -42.021 -53.030  12.765  1.00  0.00     0.108 C 
HETATM    6  C   UNL     1     -41.217 -52.217  11.747  1.00  0.00     0.034 C 
BRANCH   5   7
HETATM    7  C   UNL     1     -41.309 -53.080  14.154  1.00  0.00     0.297 C 
BRANCH   7   8
HETATM    8  N   UNL     1     -39.832 -53.036  14.141  1.00  0.00     0.094 N 
HETATM    9  C   UNL     1     -39.200 -54.374  14.095  1.00  0.00     0.298 C 
HETATM   10  C   UNL     1     -39.194 -55.156  15.424  1.00  0.00     0.198 C 
HETATM   11  O   UNL     1     -38.667 -54.376  16.503  1.00  0.00    -0.388 OA
HETATM   12  C   UNL     1     -39.398 -53.153  16.640  1.00  0.00     0.198 C 
HETATM   13  C   UNL     1     -39.320 -52.330  15.342  1.00  0.00     0.298 C 
ENDBRANCH   7   8
ENDBRANCH   5   7
ENDBRANCH   1   5
BRANCH   2  14
HETATM   14  C   UNL     1     -45.806 -52.435  12.761  1.00  0.00     0.250 C 
BRANCH  14  15
HETATM   15  N   UNL     1     -46.229 -52.345  14.143  1.00  0.00    -0.295 N 
HETATM   16  C   UNL     1     -46.869 -51.297  14.743  1.00  0.00     0.112 A 
HETATM   17  C   UNL     1     -47.053 -51.662  16.055  1.00  0.00     0.037 A 
HETATM   18  C   UNL     1     -46.472 -52.940  16.154  1.00  0.00     0.108 A 
HETATM   19  N   UNL     1     -45.972 -53.363  14.990  1.00  0.00    -0.310 N 
ATOM     20  HN  UNL     1     -45.506 -54.248  14.789  1.00  0.00     0.186 HD
ENDBRANCH  14  15
ENDBRANCH   2  14
TORSDOF 5
ENDMDL
