MODEL 1
REMARK VINA RESULT:      -6.6      0.000      0.000
REMARK  8 active torsions:
REMARK  status: ('A' for Active; 'I' for Inactive)
REMARK    1  A    between atoms: N_2  and  C_14 
REMARK    2  A    between atoms: C_3  and  N_7 
REMARK    3  A    between atoms: N_7  and  C_15 
REMARK    4  A    between atoms: N_7  and  C_21 
REMARK    5  A    between atoms: C_13  and  C_14 
REMARK    6  A    between atoms: C_13  and  C_24 
REMARK    7  A    between atoms: C_15  and  C_17 
REMARK    8  A    between atoms: C_24  and  O_25 
ROOT
HETATM    1  C   UNL     1     -42.192 -49.152  12.378  1.00  0.00     0.122 C 
HETATM    2  N   UNL     1     -42.662 -51.242  12.797  1.00  0.00    -0.326 N 
HETATM    3  C   UNL     1     -41.606 -48.156  11.560  1.00  0.00     0.135 C 
HETATM    4  C   UNL     1     -41.734 -50.443  12.195  1.00  0.00     0.140 C 
HETATM    5  N   UNL     1     -43.260 -49.158  13.264  1.00  0.00    -0.346 N 
ATOM      6  HN  UNL     1     -43.738 -48.350  13.664  1.00  0.00     0.167 HD
HETATM    7  C   UNL     1     -43.524 -50.429  13.476  1.00  0.00     0.185 C 
HETATM    8  N   UNL     1     -40.469 -48.515  10.890  1.00  0.00    -0.337 N 
ATOM      9  HN  UNL     1     -39.922 -47.810  10.396  1.00  0.00     0.168 HD
HETATM   10  N   UNL     1     -40.687 -50.847  11.455  1.00  0.00    -0.336 N 
ATOM     11  HN  UNL     1     -40.398 -51.819  11.342  1.00  0.00     0.168 HD
HETATM   12  C   UNL     1     -40.074 -49.800  10.885  1.00  0.00     0.183 C 
ENDROOT
BRANCH   3  13
HETATM   13  N   UNL     1     -42.165 -46.918  11.268  1.00  0.00    -0.360 N 
BRANCH  13  14
HETATM   14  C   UNL     1     -42.714 -46.782   9.915  1.00  0.00     0.129 C 
BRANCH  14  15
HETATM   15  C   UNL     1     -44.112 -47.323   9.729  1.00  0.00     0.004 A 
HETATM   16  C   UNL     1     -44.582 -47.757   8.356  1.00  0.00     0.007 A 
HETATM   17  C   UNL     1     -45.247 -46.601   9.042  1.00  0.00     0.007 A 
ENDBRANCH  14  15
ENDBRANCH  13  14
BRANCH  13  18
HETATM   18  C   UNL     1     -42.209 -45.826  12.279  1.00  0.00     0.086 C 
HETATM   19  C   UNL     1     -42.282 -44.366  11.735  1.00  0.00     0.025 C 
HETATM   20  C   UNL     1     -40.997 -43.808  11.127  1.00  0.00     0.002 C 
HETATM   21  C   UNL     1     -39.817 -43.961  12.070  1.00  0.00     0.000 C 
HETATM   22  C   UNL     1     -39.699 -45.400  12.550  1.00  0.00     0.002 C 
HETATM   23  C   UNL     1     -40.993 -45.860  13.232  1.00  0.00     0.025 C 
ENDBRANCH  13  18
ENDBRANCH   3  13
BRANCH   2  24
HETATM   24  C   UNL     1     -42.844 -52.657  12.521  1.00  0.00     0.147 C 
BRANCH  24  25
HETATM   25  C   UNL     1     -42.095 -53.575  13.468  1.00  0.00     0.040 C 
HETATM   26  C   UNL     1     -42.945 -54.519  14.342  1.00  0.00     0.183 C 
HETATM   27  O   UNL     1     -42.372 -53.976  15.555  1.00  0.00    -0.389 OA
HETATM   28  C   UNL     1     -41.769 -52.892  14.812  1.00  0.00     0.183 C 
BRANCH  25  29
HETATM   29  C   UNL     1     -40.902 -54.277  12.834  1.00  0.00     0.179 C 
BRANCH  29  30
HETATM   30  O   UNL     1     -40.585 -53.645  11.598  1.00  0.00    -0.400 OA
HETATM   31  H   UNL     1     -41.333 -53.761  10.987  1.00  0.00     0.209 HD
ENDBRANCH  29  30
ENDBRANCH  25  29
ENDBRANCH  24  25
ENDBRANCH   2  24
TORSDOF 8
ENDMDL
MODEL 2
REMARK VINA RESULT:      -6.2      3.356      7.308
REMARK  8 active torsions:
REMARK  status: ('A' for Active; 'I' for Inactive)
REMARK    1  A    between atoms: N_2  and  C_14 
REMARK    2  A    between atoms: C_3  and  N_7 
REMARK    3  A    between atoms: N_7  and  C_15 
REMARK    4  A    between atoms: N_7  and  C_21 
REMARK    5  A    between atoms: C_13  and  C_14 
REMARK    6  A    between atoms: C_13  and  C_24 
REMARK    7  A    between atoms: C_15  and  C_17 
REMARK    8  A    between atoms: C_24  and  O_25 
ROOT
HETATM    1  C   UNL     1     -41.926 -48.978  12.292  1.00  0.00     0.122 C 
HETATM    2  N   UNL     1     -41.896 -46.901  11.623  1.00  0.00    -0.326 N 
HETATM    3  C   UNL     1     -42.005 -49.945  13.324  1.00  0.00     0.135 C 
HETATM    4  C   UNL     1     -41.557 -47.703  12.675  1.00  0.00     0.140 C 
HETATM    5  N   UNL     1     -42.279 -48.979  10.950  1.00  0.00    -0.346 N 
ATOM      6  HN  UNL     1     -42.500 -49.787  10.367  1.00  0.00     0.167 HD
HETATM    7  C   UNL     1     -42.267 -47.713  10.591  1.00  0.00     0.185 C 
HETATM    8  N   UNL     1     -41.442 -49.599  14.521  1.00  0.00    -0.337 N 
ATOM      9  HN  UNL     1     -41.342 -50.296  15.260  1.00  0.00     0.168 HD
HETATM   10  N   UNL     1     -41.104 -47.303  13.876  1.00  0.00    -0.336 N 
ATOM     11  HN  UNL     1     -40.856 -46.342  14.111  1.00  0.00     0.168 HD
HETATM   12  C   UNL     1     -41.021 -48.339  14.722  1.00  0.00     0.183 C 
ENDROOT
BRANCH   3  13
HETATM   13  N   UNL     1     -42.728 -51.131  13.266  1.00  0.00    -0.360 N 
BRANCH  13  14
HETATM   14  C   UNL     1     -43.942 -51.165  14.089  1.00  0.00     0.129 C 
BRANCH  14  15
HETATM   15  C   UNL     1     -45.239 -51.015  13.331  1.00  0.00     0.004 A 
HETATM   16  C   UNL     1     -46.548 -51.420  13.977  1.00  0.00     0.007 A 
HETATM   17  C   UNL     1     -46.057 -52.149  12.761  1.00  0.00     0.007 A 
ENDBRANCH  14  15
ENDBRANCH  13  14
BRANCH  13  18
HETATM   18  C   UNL     1     -42.291 -52.267  12.410  1.00  0.00     0.086 C 
HETATM   19  C   UNL     1     -42.749 -53.693  12.847  1.00  0.00     0.025 C 
HETATM   20  C   UNL     1     -42.041 -54.285  14.064  1.00  0.00     0.002 C 
HETATM   21  C   UNL     1     -40.531 -54.238  13.913  1.00  0.00     0.000 C 
HETATM   22  C   UNL     1     -40.072 -52.833  13.554  1.00  0.00     0.002 C 
HETATM   23  C   UNL     1     -40.754 -52.341  12.271  1.00  0.00     0.025 C 
ENDBRANCH  13  18
ENDBRANCH   3  13
BRANCH   2  24
HETATM   24  C   UNL     1     -42.090 -45.463  11.706  1.00  0.00     0.147 C 
BRANCH  24  25
HETATM   25  C   UNL     1     -40.847 -44.652  11.391  1.00  0.00     0.040 C 
HETATM   26  C   UNL     1     -39.977 -44.217  12.587  1.00  0.00     0.183 C 
HETATM   27  O   UNL     1     -40.110 -42.822  12.227  1.00  0.00    -0.389 OA
HETATM   28  C   UNL     1     -41.146 -43.144  11.271  1.00  0.00     0.183 C 
BRANCH  25  29
HETATM   29  C   UNL     1     -40.023 -45.206  10.237  1.00  0.00     0.179 C 
BRANCH  29  30
HETATM   30  O   UNL     1     -39.547 -44.129   9.436  1.00  0.00    -0.400 OA
HETATM   31  H   UNL     1     -38.671 -43.862   9.762  1.00  0.00     0.209 HD
ENDBRANCH  29  30
ENDBRANCH  25  29
ENDBRANCH  24  25
ENDBRANCH   2  24
TORSDOF 8
ENDMDL
MODEL 3
REMARK VINA RESULT:      -6.2      3.191      6.926
REMARK  8 active torsions:
REMARK  status: ('A' for Active; 'I' for Inactive)
REMARK    1  A    between atoms: N_2  and  C_14 
REMARK    2  A    between atoms: C_3  and  N_7 
REMARK    3  A    between atoms: N_7  and  C_15 
REMARK    4  A    between atoms: N_7  and  C_21 
REMARK    5  A    between atoms: C_13  and  C_14 
REMARK    6  A    between atoms: C_13  and  C_24 
REMARK    7  A    between atoms: C_15  and  C_17 
REMARK    8  A    between atoms: C_24  and  O_25 
ROOT
HETATM    1  C   UNL     1     -42.611 -51.044  12.984  1.00  0.00     0.122 C 
HETATM    2  N   UNL     1     -41.395 -49.398  12.228  1.00  0.00    -0.326 N 
HETATM    3  C   UNL     1     -42.771 -52.410  13.324  1.00  0.00     0.135 C 
HETATM    4  C   UNL     1     -41.576 -50.746  12.118  1.00  0.00     0.140 C 
HETATM    5  N   UNL     1     -43.190 -49.869  13.441  1.00  0.00    -0.346 N 
ATOM      6  HN  UNL     1     -44.031 -49.774  14.011  1.00  0.00     0.167 HD
HETATM    7  C   UNL     1     -42.421 -48.906  12.982  1.00  0.00     0.185 C 
HETATM    8  N   UNL     1     -42.084 -53.309  12.556  1.00  0.00    -0.337 N 
ATOM      9  HN  UNL     1     -42.261 -54.309  12.657  1.00  0.00     0.168 HD
HETATM   10  N   UNL     1     -40.805 -51.606  11.431  1.00  0.00    -0.336 N 
ATOM     11  HN  UNL     1     -40.041 -51.333  10.812  1.00  0.00     0.168 HD
HETATM   12  C   UNL     1     -41.176 -52.872  11.667  1.00  0.00     0.183 C 
ENDROOT
BRANCH   3  13
HETATM   13  N   UNL     1     -43.434 -52.891  14.447  1.00  0.00    -0.360 N 
BRANCH  13  14
HETATM   14  C   UNL     1     -42.701 -52.759  15.711  1.00  0.00     0.129 C 
BRANCH  14  15
HETATM   15  C   UNL     1     -42.260 -54.059  16.339  1.00  0.00     0.004 A 
HETATM   16  C   UNL     1     -40.891 -54.629  16.027  1.00  0.00     0.007 A 
HETATM   17  C   UNL     1     -42.123 -55.379  15.617  1.00  0.00     0.007 A 
ENDBRANCH  14  15
ENDBRANCH  13  14
BRANCH  13  18
HETATM   18  C   UNL     1     -44.798 -53.479  14.353  1.00  0.00     0.086 C 
HETATM   19  C   UNL     1     -45.626 -53.134  13.076  1.00  0.00     0.025 C 
HETATM   20  C   UNL     1     -46.187 -51.716  12.999  1.00  0.00     0.002 C 
HETATM   21  C   UNL     1     -46.969 -51.353  14.249  1.00  0.00     0.000 C 
HETATM   22  C   UNL     1     -46.140 -51.622  15.496  1.00  0.00     0.002 C 
HETATM   23  C   UNL     1     -45.690 -53.087  15.553  1.00  0.00     0.025 C 
ENDBRANCH  13  18
ENDBRANCH   3  13
BRANCH   2  24
HETATM   24  C   UNL     1     -40.184 -48.690  11.847  1.00  0.00     0.147 C 
BRANCH  24  25
HETATM   25  C   UNL     1     -39.000 -48.953  12.759  1.00  0.00     0.040 C 
HETATM   26  C   UNL     1     -39.311 -49.517  14.160  1.00  0.00     0.183 C 
HETATM   27  O   UNL     1     -38.643 -48.404  14.799  1.00  0.00    -0.389 OA
HETATM   28  C   UNL     1     -38.570 -47.695  13.540  1.00  0.00     0.183 C 
BRANCH  25  29
HETATM   29  C   UNL     1     -37.846 -49.676  12.079  1.00  0.00     0.179 C 
BRANCH  29  30
HETATM   30  O   UNL     1     -38.213 -49.997  10.740  1.00  0.00    -0.400 OA
HETATM   31  H   UNL     1     -39.178 -50.116  10.702  1.00  0.00     0.209 HD
ENDBRANCH  29  30
ENDBRANCH  25  29
ENDBRANCH  24  25
ENDBRANCH   2  24
TORSDOF 8
ENDMDL
MODEL 4
REMARK VINA RESULT:      -6.1      3.038      7.466
REMARK  8 active torsions:
REMARK  status: ('A' for Active; 'I' for Inactive)
REMARK    1  A    between atoms: N_2  and  C_14 
REMARK    2  A    between atoms: C_3  and  N_7 
REMARK    3  A    between atoms: N_7  and  C_15 
REMARK    4  A    between atoms: N_7  and  C_21 
REMARK    5  A    between atoms: C_13  and  C_14 
REMARK    6  A    between atoms: C_13  and  C_24 
REMARK    7  A    between atoms: C_15  and  C_17 
REMARK    8  A    between atoms: C_24  and  O_25 
ROOT
HETATM    1  C   UNL     1     -42.722 -50.659  12.998  1.00  0.00     0.122 C 
HETATM    2  N   UNL     1     -41.720 -48.821  12.382  1.00  0.00    -0.326 N 
HETATM    3  C   UNL     1     -42.723 -52.062  13.194  1.00  0.00     0.135 C 
HETATM    4  C   UNL     1     -41.764 -50.162  12.134  1.00  0.00     0.140 C 
HETATM    5  N   UNL     1     -43.398 -49.607  13.600  1.00  0.00    -0.346 N 
ATOM      6  HN  UNL     1     -44.217 -49.663  14.205  1.00  0.00     0.167 HD
HETATM    7  C   UNL     1     -42.755 -48.524  13.220  1.00  0.00     0.185 C 
HETATM    8  N   UNL     1     -41.983 -52.797  12.310  1.00  0.00    -0.337 N 
ATOM      9  HN  UNL     1     -42.050 -53.815  12.309  1.00  0.00     0.168 HD
HETATM   10  N   UNL     1     -40.941 -50.858  11.331  1.00  0.00    -0.336 N 
ATOM     11  HN  UNL     1     -40.239 -50.441  10.720  1.00  0.00     0.168 HD
HETATM   12  C   UNL     1     -41.167 -52.174  11.442  1.00  0.00     0.183 C 
ENDROOT
BRANCH   3  13
HETATM   13  N   UNL     1     -43.280 -52.725  14.281  1.00  0.00    -0.360 N 
BRANCH  13  14
HETATM   14  C   UNL     1     -42.477 -52.699  15.509  1.00  0.00     0.129 C 
BRANCH  14  15
HETATM   15  C   UNL     1     -41.779 -53.994  15.850  1.00  0.00     0.004 A 
HETATM   16  C   UNL     1     -40.410 -53.972  16.498  1.00  0.00     0.007 A 
HETATM   17  C   UNL     1     -40.579 -54.559  15.128  1.00  0.00     0.007 A 
ENDBRANCH  14  15
ENDBRANCH  13  14
BRANCH  13  18
HETATM   18  C   UNL     1     -44.606 -53.394  14.189  1.00  0.00     0.086 C 
HETATM   19  C   UNL     1     -45.505 -53.008  12.973  1.00  0.00     0.025 C 
HETATM   20  C   UNL     1     -46.158 -51.629  13.030  1.00  0.00     0.002 C 
HETATM   21  C   UNL     1     -46.911 -51.416  14.331  1.00  0.00     0.000 C 
HETATM   22  C   UNL     1     -46.016 -51.725  15.523  1.00  0.00     0.002 C 
HETATM   23  C   UNL     1     -45.472 -53.157  15.446  1.00  0.00     0.025 C 
ENDBRANCH  13  18
ENDBRANCH   3  13
BRANCH   2  24
HETATM   24  C   UNL     1     -40.608 -47.951  12.038  1.00  0.00     0.147 C 
BRANCH  24  25
HETATM   25  C   UNL     1     -41.001 -46.743  11.208  1.00  0.00     0.040 C 
HETATM   26  C   UNL     1     -39.854 -45.861  10.675  1.00  0.00     0.183 C 
HETATM   27  O   UNL     1     -40.395 -44.691  11.332  1.00  0.00    -0.389 OA
HETATM   28  C   UNL     1     -41.323 -45.512  12.079  1.00  0.00     0.183 C 
BRANCH  25  29
HETATM   29  C   UNL     1     -42.055 -47.037  10.150  1.00  0.00     0.179 C 
BRANCH  29  30
HETATM   30  O   UNL     1     -42.115 -45.952   9.229  1.00  0.00    -0.400 OA
HETATM   31  H   UNL     1     -41.818 -45.143   9.680  1.00  0.00     0.209 HD
ENDBRANCH  29  30
ENDBRANCH  25  29
ENDBRANCH  24  25
ENDBRANCH   2  24
TORSDOF 8
ENDMDL
MODEL 5
REMARK VINA RESULT:      -6.1      3.092      7.636
REMARK  8 active torsions:
REMARK  status: ('A' for Active; 'I' for Inactive)
REMARK    1  A    between atoms: N_2  and  C_14 
REMARK    2  A    between atoms: C_3  and  N_7 
REMARK    3  A    between atoms: N_7  and  C_15 
REMARK    4  A    between atoms: N_7  and  C_21 
REMARK    5  A    between atoms: C_13  and  C_14 
REMARK    6  A    between atoms: C_13  and  C_24 
REMARK    7  A    between atoms: C_15  and  C_17 
REMARK    8  A    between atoms: C_24  and  O_25 
ROOT
HETATM    1  C   UNL     1     -42.548 -49.999  13.072  1.00  0.00     0.122 C 
HETATM    2  N   UNL     1     -42.498 -47.944  12.340  1.00  0.00    -0.326 N 
HETATM    3  C   UNL     1     -43.009 -50.975  13.990  1.00  0.00     0.135 C 
HETATM    4  C   UNL     1     -42.645 -48.682  13.479  1.00  0.00     0.140 C 
HETATM    5  N   UNL     1     -42.131 -50.050  11.749  1.00  0.00    -0.346 N 
ATOM      6  HN  UNL     1     -41.879 -50.878  11.210  1.00  0.00     0.167 HD
HETATM    7  C   UNL     1     -42.132 -48.799  11.341  1.00  0.00     0.185 C 
HETATM    8  N   UNL     1     -43.229 -50.546  15.269  1.00  0.00    -0.337 N 
ATOM      9  HN  UNL     1     -43.427 -51.220  16.008  1.00  0.00     0.168 HD
HETATM   10  N   UNL     1     -42.968 -48.220  14.699  1.00  0.00    -0.336 N 
ATOM     11  HN  UNL     1     -43.038 -47.232  14.944  1.00  0.00     0.168 HD
HETATM   12  C   UNL     1     -43.184 -49.232  15.550  1.00  0.00     0.183 C 
ENDROOT
BRANCH   3  13
HETATM   13  N   UNL     1     -43.393 -52.271  13.666  1.00  0.00    -0.360 N 
BRANCH  13  14
HETATM   14  C   UNL     1     -42.469 -53.325  14.098  1.00  0.00     0.129 C 
BRANCH  14  15
HETATM   15  C   UNL     1     -41.198 -53.438  13.290  1.00  0.00     0.004 A 
HETATM   16  C   UNL     1     -40.064 -54.316  13.777  1.00  0.00     0.007 A 
HETATM   17  C   UNL     1     -39.866 -52.834  13.665  1.00  0.00     0.007 A 
ENDBRANCH  14  15
ENDBRANCH  13  14
BRANCH  13  18
HETATM   18  C   UNL     1     -44.666 -52.547  12.946  1.00  0.00     0.086 C 
HETATM   19  C   UNL     1     -45.800 -51.485  13.090  1.00  0.00     0.025 C 
HETATM   20  C   UNL     1     -46.522 -51.448  14.435  1.00  0.00     0.002 C 
HETATM   21  C   UNL     1     -47.029 -52.821  14.839  1.00  0.00     0.000 C 
HETATM   22  C   UNL     1     -45.910 -53.847  14.767  1.00  0.00     0.002 C 
HETATM   23  C   UNL     1     -45.295 -53.896  13.363  1.00  0.00     0.025 C 
ENDBRANCH  13  18
ENDBRANCH   3  13
BRANCH   2  24
HETATM   24  C   UNL     1     -42.930 -46.565  12.184  1.00  0.00     0.147 C 
BRANCH  24  25
HETATM   25  C   UNL     1     -42.491 -45.922  10.882  1.00  0.00     0.040 C 
HETATM   26  C   UNL     1     -40.976 -45.888  10.596  1.00  0.00     0.183 C 
HETATM   27  O   UNL     1     -40.993 -44.446  10.473  1.00  0.00    -0.389 OA
HETATM   28  C   UNL     1     -42.337 -44.393  11.005  1.00  0.00     0.183 C 
BRANCH  25  29
HETATM   29  C   UNL     1     -43.306 -46.360   9.672  1.00  0.00     0.179 C 
BRANCH  29  30
HETATM   30  O   UNL     1     -42.640 -45.952   8.481  1.00  0.00    -0.400 OA
HETATM   31  H   UNL     1     -42.225 -45.085   8.637  1.00  0.00     0.209 HD
ENDBRANCH  29  30
ENDBRANCH  25  29
ENDBRANCH  24  25
ENDBRANCH   2  24
TORSDOF 8
ENDMDL
MODEL 6
REMARK VINA RESULT:      -6.0      2.946      6.834
REMARK  8 active torsions:
REMARK  status: ('A' for Active; 'I' for Inactive)
REMARK    1  A    between atoms: N_2  and  C_14 
REMARK    2  A    between atoms: C_3  and  N_7 
REMARK    3  A    between atoms: N_7  and  C_15 
REMARK    4  A    between atoms: N_7  and  C_21 
REMARK    5  A    between atoms: C_13  and  C_14 
REMARK    6  A    between atoms: C_13  and  C_24 
REMARK    7  A    between atoms: C_15  and  C_17 
REMARK    8  A    between atoms: C_24  and  O_25 
ROOT
HETATM    1  C   UNL     1     -42.210 -49.445  12.704  1.00  0.00     0.122 C 
HETATM    2  N   UNL     1     -41.606 -47.357  12.893  1.00  0.00    -0.326 N 
HETATM    3  C   UNL     1     -41.916 -50.795  12.392  1.00  0.00     0.135 C 
HETATM    4  C   UNL     1     -41.350 -48.496  12.185  1.00  0.00     0.140 C 
HETATM    5  N   UNL     1     -43.119 -48.836  13.557  1.00  0.00    -0.346 N 
ATOM      6  HN  UNL     1     -43.929 -49.262  14.007  1.00  0.00     0.167 HD
HETATM    7  C   UNL     1     -42.711 -47.589  13.658  1.00  0.00     0.185 C 
HETATM    8  N   UNL     1     -41.002 -51.001  11.395  1.00  0.00    -0.337 N 
ATOM      9  HN  UNL     1     -40.848 -51.940  11.028  1.00  0.00     0.168 HD
HETATM   10  N   UNL     1     -40.367 -48.679  11.287  1.00  0.00    -0.336 N 
ATOM     11  HN  UNL     1     -39.750 -47.943  10.946  1.00  0.00     0.168 HD
HETATM   12  C   UNL     1     -40.308 -49.961  10.901  1.00  0.00     0.183 C 
ENDROOT
BRANCH   3  13
HETATM   13  N   UNL     1     -42.356 -51.903  13.105  1.00  0.00    -0.360 N 
BRANCH  13  14
HETATM   14  C   UNL     1     -43.416 -52.685  12.458  1.00  0.00     0.129 C 
BRANCH  14  15
HETATM   15  C   UNL     1     -44.748 -52.679  13.170  1.00  0.00     0.004 A 
HETATM   16  C   UNL     1     -46.021 -52.402  12.399  1.00  0.00     0.007 A 
HETATM   17  C   UNL     1     -45.575 -51.451  13.470  1.00  0.00     0.007 A 
ENDBRANCH  14  15
ENDBRANCH  13  14
BRANCH  13  18
HETATM   18  C   UNL     1     -41.768 -52.263  14.424  1.00  0.00     0.086 C 
HETATM   19  C   UNL     1     -40.409 -51.593  14.794  1.00  0.00     0.025 C 
HETATM   20  C   UNL     1     -39.178 -52.115  14.057  1.00  0.00     0.002 C 
HETATM   21  C   UNL     1     -39.064 -53.626  14.151  1.00  0.00     0.000 C 
HETATM   22  C   UNL     1     -40.366 -54.288  13.725  1.00  0.00     0.002 C 
HETATM   23  C   UNL     1     -41.542 -53.785  14.571  1.00  0.00     0.025 C 
ENDBRANCH  13  18
ENDBRANCH   3  13
BRANCH   2  24
HETATM   24  C   UNL     1     -40.696 -46.229  13.006  1.00  0.00     0.147 C 
BRANCH  24  25
HETATM   25  C   UNL     1     -40.923 -45.144  11.970  1.00  0.00     0.040 C 
HETATM   26  C   UNL     1     -41.514 -43.812  12.474  1.00  0.00     0.183 C 
HETATM   27  O   UNL     1     -42.633 -43.920  11.563  1.00  0.00    -0.389 OA
HETATM   28  C   UNL     1     -42.281 -45.289  11.256  1.00  0.00     0.183 C 
BRANCH  25  29
HETATM   29  C   UNL     1     -39.750 -44.943  11.020  1.00  0.00     0.179 C 
BRANCH  29  30
HETATM   30  O   UNL     1     -39.710 -46.017  10.086  1.00  0.00    -0.400 OA
HETATM   31  H   UNL     1     -39.503 -45.657   9.206  1.00  0.00     0.209 HD
ENDBRANCH  29  30
ENDBRANCH  25  29
ENDBRANCH  24  25
ENDBRANCH   2  24
TORSDOF 8
ENDMDL
MODEL 7
REMARK VINA RESULT:      -6.0      1.177      2.204
REMARK  8 active torsions:
REMARK  status: ('A' for Active; 'I' for Inactive)
REMARK    1  A    between atoms: N_2  and  C_14 
REMARK    2  A    between atoms: C_3  and  N_7 
REMARK    3  A    between atoms: N_7  and  C_15 
REMARK    4  A    between atoms: N_7  and  C_21 
REMARK    5  A    between atoms: C_13  and  C_14 
REMARK    6  A    between atoms: C_13  and  C_24 
REMARK    7  A    between atoms: C_15  and  C_17 
REMARK    8  A    between atoms: C_24  and  O_25 
ROOT
HETATM    1  C   UNL     1     -41.643 -49.208  11.983  1.00  0.00     0.122 C 
HETATM    2  N   UNL     1     -41.093 -51.015  13.077  1.00  0.00    -0.326 N 
HETATM    3  C   UNL     1     -42.008 -47.840  11.958  1.00  0.00     0.135 C 
HETATM    4  C   UNL     1     -41.826 -49.869  13.183  1.00  0.00     0.140 C 
HETATM    5  N   UNL     1     -40.989 -50.041  11.086  1.00  0.00    -0.346 N 
ATOM      6  HN  UNL     1     -40.805 -49.866  10.099  1.00  0.00     0.167 HD
HETATM    7  C   UNL     1     -40.659 -51.106  11.785  1.00  0.00     0.185 C 
HETATM    8  N   UNL     1     -42.756 -47.394  13.012  1.00  0.00    -0.337 N 
ATOM      9  HN  UNL     1     -43.167 -46.461  12.990  1.00  0.00     0.168 HD
HETATM   10  N   UNL     1     -42.460 -49.421  14.280  1.00  0.00    -0.336 N 
ATOM     11  HN  UNL     1     -42.557 -49.947  15.149  1.00  0.00     0.168 HD
HETATM   12  C   UNL     1     -42.949 -48.190  14.078  1.00  0.00     0.183 C 
ENDROOT
BRANCH   3  13
HETATM   13  N   UNL     1     -41.547 -46.897  11.047  1.00  0.00    -0.360 N 
BRANCH  13  14
HETATM   14  C   UNL     1     -42.547 -46.408  10.091  1.00  0.00     0.129 C 
BRANCH  14  15
HETATM   15  C   UNL     1     -43.433 -47.471   9.486  1.00  0.00     0.004 A 
HETATM   16  C   UNL     1     -43.563 -47.585   7.982  1.00  0.00     0.007 A 
HETATM   17  C   UNL     1     -44.760 -47.223   8.809  1.00  0.00     0.007 A 
ENDBRANCH  14  15
ENDBRANCH  13  14
BRANCH  13  18
HETATM   18  C   UNL     1     -40.137 -46.419  11.068  1.00  0.00     0.086 C 
HETATM   19  C   UNL     1     -39.488 -46.206  12.470  1.00  0.00     0.025 C 
HETATM   20  C   UNL     1     -39.958 -44.981  13.251  1.00  0.00     0.002 C 
HETATM   21  C   UNL     1     -39.854 -43.713  12.423  1.00  0.00     0.000 C 
HETATM   22  C   UNL     1     -40.547 -43.893  11.081  1.00  0.00     0.002 C 
HETATM   23  C   UNL     1     -39.959 -45.083  10.313  1.00  0.00     0.025 C 
ENDBRANCH  13  18
ENDBRANCH   3  13
BRANCH   2  24
HETATM   24  C   UNL     1     -40.638 -51.816  14.200  1.00  0.00     0.147 C 
BRANCH  24  25
HETATM   25  C   UNL     1     -41.197 -53.226  14.223  1.00  0.00     0.040 C 
HETATM   26  C   UNL     1     -42.681 -53.394  13.840  1.00  0.00     0.183 C 
HETATM   27  O   UNL     1     -42.979 -54.021  15.109  1.00  0.00    -0.389 OA
HETATM   28  C   UNL     1     -41.682 -53.642  15.627  1.00  0.00     0.183 C 
BRANCH  25  29
HETATM   29  C   UNL     1     -40.299 -54.258  13.555  1.00  0.00     0.179 C 
BRANCH  29  30
HETATM   30  O   UNL     1     -40.826 -54.584  12.273  1.00  0.00    -0.400 OA
HETATM   31  H   UNL     1     -41.730 -54.230  12.209  1.00  0.00     0.209 HD
ENDBRANCH  29  30
ENDBRANCH  25  29
ENDBRANCH  24  25
ENDBRANCH   2  24
TORSDOF 8
ENDMDL
MODEL 8
REMARK VINA RESULT:      -5.9      2.897      7.376
REMARK  8 active torsions:
REMARK  status: ('A' for Active; 'I' for Inactive)
REMARK    1  A    between atoms: N_2  and  C_14 
REMARK    2  A    between atoms: C_3  and  N_7 
REMARK    3  A    between atoms: N_7  and  C_15 
REMARK    4  A    between atoms: N_7  and  C_21 
REMARK    5  A    between atoms: C_13  and  C_14 
REMARK    6  A    between atoms: C_13  and  C_24 
REMARK    7  A    between atoms: C_15  and  C_17 
REMARK    8  A    between atoms: C_24  and  O_25 
ROOT
HETATM    1  C   UNL     1     -41.631 -50.305  12.690  1.00  0.00     0.122 C 
HETATM    2  N   UNL     1     -40.513 -48.552  12.026  1.00  0.00    -0.326 N 
HETATM    3  C   UNL     1     -42.482 -50.951  13.620  1.00  0.00     0.135 C 
HETATM    4  C   UNL     1     -40.957 -49.189  13.149  1.00  0.00     0.140 C 
HETATM    5  N   UNL     1     -41.411 -50.456  11.328  1.00  0.00    -0.346 N 
ATOM      6  HN  UNL     1     -41.697 -51.237  10.737  1.00  0.00     0.167 HD
HETATM    7  C   UNL     1     -40.754 -49.376  10.965  1.00  0.00     0.185 C 
HETATM    8  N   UNL     1     -42.334 -50.586  14.930  1.00  0.00    -0.337 N 
ATOM      9  HN  UNL     1     -42.814 -51.107  15.663  1.00  0.00     0.168 HD
HETATM   10  N   UNL     1     -40.880 -48.737  14.412  1.00  0.00    -0.336 N 
ATOM     11  HN  UNL     1     -40.377 -47.896  14.696  1.00  0.00     0.168 HD
HETATM   12  C   UNL     1     -41.553 -49.540  15.247  1.00  0.00     0.183 C 
ENDROOT
BRANCH   3  13
HETATM   13  N   UNL     1     -43.539 -51.794  13.298  1.00  0.00    -0.360 N 
BRANCH  13  14
HETATM   14  C   UNL     1     -44.876 -51.255  13.568  1.00  0.00     0.129 C 
BRANCH  14  15
HETATM   15  C   UNL     1     -45.517 -51.733  14.849  1.00  0.00     0.004 A 
HETATM   16  C   UNL     1     -46.961 -51.392  15.151  1.00  0.00     0.007 A 
HETATM   17  C   UNL     1     -45.869 -50.861  16.031  1.00  0.00     0.007 A 
ENDBRANCH  14  15
ENDBRANCH  13  14
BRANCH  13  18
HETATM   18  C   UNL     1     -43.307 -53.140  12.706  1.00  0.00     0.086 C 
HETATM   19  C   UNL     1     -44.471 -54.172  12.829  1.00  0.00     0.025 C 
HETATM   20  C   UNL     1     -44.694 -54.775  14.214  1.00  0.00     0.002 C 
HETATM   21  C   UNL     1     -43.413 -55.353  14.788  1.00  0.00     0.000 C 
HETATM   22  C   UNL     1     -42.291 -54.326  14.734  1.00  0.00     0.002 C 
HETATM   23  C   UNL     1     -42.062 -53.836  13.300  1.00  0.00     0.025 C 
ENDBRANCH  13  18
ENDBRANCH   3  13
BRANCH   2  24
HETATM   24  C   UNL     1     -40.127 -47.153  11.965  1.00  0.00     0.147 C 
BRANCH  24  25
HETATM   25  C   UNL     1     -41.280 -46.202  11.708  1.00  0.00     0.040 C 
HETATM   26  C   UNL     1     -42.292 -46.611  10.618  1.00  0.00     0.183 C 
HETATM   27  O   UNL     1     -42.055 -45.387   9.883  1.00  0.00    -0.389 OA
HETATM   28  C   UNL     1     -40.909 -45.084  10.712  1.00  0.00     0.183 C 
BRANCH  25  29
HETATM   29  C   UNL     1     -41.956 -45.693  12.974  1.00  0.00     0.179 C 
BRANCH  29  30
HETATM   30  O   UNL     1     -43.364 -45.875  12.863  1.00  0.00    -0.400 OA
HETATM   31  H   UNL     1     -43.761 -45.046  12.543  1.00  0.00     0.209 HD
ENDBRANCH  29  30
ENDBRANCH  25  29
ENDBRANCH  24  25
ENDBRANCH   2  24
TORSDOF 8
ENDMDL
MODEL 9
REMARK VINA RESULT:      -5.9      1.821      2.841
REMARK  8 active torsions:
REMARK  status: ('A' for Active; 'I' for Inactive)
REMARK    1  A    between atoms: N_2  and  C_14 
REMARK    2  A    between atoms: C_3  and  N_7 
REMARK    3  A    between atoms: N_7  and  C_15 
REMARK    4  A    between atoms: N_7  and  C_21 
REMARK    5  A    between atoms: C_13  and  C_14 
REMARK    6  A    between atoms: C_13  and  C_24 
REMARK    7  A    between atoms: C_15  and  C_17 
REMARK    8  A    between atoms: C_24  and  O_25 
ROOT
HETATM    1  C   UNL     1     -42.588 -50.365  12.994  1.00  0.00     0.122 C 
HETATM    2  N   UNL     1     -44.189 -51.772  13.463  1.00  0.00    -0.326 N 
HETATM    3  C   UNL     1     -41.556 -49.905  12.141  1.00  0.00     0.135 C 
HETATM    4  C   UNL     1     -42.991 -51.675  12.817  1.00  0.00     0.140 C 
HETATM    5  N   UNL     1     -43.419 -49.742  13.914  1.00  0.00    -0.346 N 
ATOM      6  HN  UNL     1     -43.311 -48.811  14.316  1.00  0.00     0.167 HD
HETATM    7  C   UNL     1     -44.377 -50.611  14.156  1.00  0.00     0.185 C 
HETATM    8  N   UNL     1     -40.878 -50.864  11.440  1.00  0.00    -0.337 N 
ATOM      9  HN  UNL     1     -40.038 -50.617  10.916  1.00  0.00     0.168 HD
HETATM   10  N   UNL     1     -42.414 -52.616  12.050  1.00  0.00    -0.336 N 
ATOM     11  HN  UNL     1     -42.761 -53.569  11.943  1.00  0.00     0.168 HD
HETATM   12  C   UNL     1     -41.321 -52.132  11.443  1.00  0.00     0.183 C 
ENDROOT
BRANCH   3  13
HETATM   13  N   UNL     1     -41.283 -48.574  11.847  1.00  0.00    -0.360 N 
BRANCH  13  14
HETATM   14  C   UNL     1     -41.601 -48.157  10.477  1.00  0.00     0.129 C 
BRANCH  14  15
HETATM   15  C   UNL     1     -43.055 -47.843  10.219  1.00  0.00     0.004 A 
HETATM   16  C   UNL     1     -43.559 -47.684   8.800  1.00  0.00     0.007 A 
HETATM   17  C   UNL     1     -43.594 -46.516   9.740  1.00  0.00     0.007 A 
ENDBRANCH  14  15
ENDBRANCH  13  14
BRANCH  13  18
HETATM   18  C   UNL     1     -40.725 -47.650  12.872  1.00  0.00     0.086 C 
HETATM   19  C   UNL     1     -41.750 -46.819  13.704  1.00  0.00     0.025 C 
HETATM   20  C   UNL     1     -42.431 -45.664  12.974  1.00  0.00     0.002 C 
HETATM   21  C   UNL     1     -41.421 -44.744  12.312  1.00  0.00     0.000 C 
HETATM   22  C   UNL     1     -40.460 -45.542  11.444  1.00  0.00     0.002 C 
HETATM   23  C   UNL     1     -39.744 -46.622  12.264  1.00  0.00     0.025 C 
ENDBRANCH  13  18
ENDBRANCH   3  13
BRANCH   2  24
HETATM   24  C   UNL     1     -45.183 -52.802  13.215  1.00  0.00     0.147 C 
BRANCH  24  25
HETATM   25  C   UNL     1     -45.279 -53.848  14.311  1.00  0.00     0.040 C 
HETATM   26  C   UNL     1     -43.951 -54.424  14.843  1.00  0.00     0.183 C 
HETATM   27  O   UNL     1     -44.356 -55.771  14.507  1.00  0.00    -0.389 OA
HETATM   28  C   UNL     1     -45.481 -55.269  13.750  1.00  0.00     0.183 C 
BRANCH  25  29
HETATM   29  C   UNL     1     -46.249 -53.486  15.427  1.00  0.00     0.179 C 
BRANCH  29  30
HETATM   30  O   UNL     1     -46.057 -54.371  16.526  1.00  0.00    -0.400 OA
HETATM   31  H   UNL     1     -45.845 -55.256  16.180  1.00  0.00     0.209 HD
ENDBRANCH  29  30
ENDBRANCH  25  29
ENDBRANCH  24  25
ENDBRANCH   2  24
TORSDOF 8
ENDMDL
