MODEL 1
REMARK VINA RESULT:      -6.6      0.000      0.000
REMARK  7 active torsions:
REMARK  status: ('A' for Active; 'I' for Inactive)
REMARK    1  A    between atoms: N_1  and  C_9 
REMARK    2  A    between atoms: C_6  and  N_7 
REMARK    3  A    between atoms: C_14  and  O_23 
REMARK    4  A    between atoms: C_16  and  C_24 
REMARK    5  A    between atoms: C_16  and  C_25 
REMARK    6  A    between atoms: C_24  and  O_28 
REMARK    7  A    between atoms: C_25  and  O_27 
ROOT
HETATM    1  N   UNL     1     -42.689 -50.708  13.203  1.00  0.00    -0.322 N 
HETATM    2  C   UNL     1     -41.920 -48.805  12.456  1.00  0.00     0.117 A 
HETATM    3  C   UNL     1     -41.758 -50.186  12.337  1.00  0.00     0.140 A 
HETATM    4  N   UNL     1     -42.948 -48.506  13.331  1.00  0.00    -0.346 N 
ATOM      5  HN  UNL     1     -43.298 -47.582  13.584  1.00  0.00     0.167 HD
HETATM    6  C   UNL     1     -41.056 -47.952  11.718  1.00  0.00     0.114 A 
HETATM    7  C   UNL     1     -43.375 -49.662  13.764  1.00  0.00     0.185 A 
HETATM    8  N   UNL     1     -40.869 -50.817  11.551  1.00  0.00    -0.336 N 
ATOM      9  HN  UNL     1     -40.760 -51.830  11.494  1.00  0.00     0.168 HD
HETATM   10  N   UNL     1     -40.175 -48.570  10.878  1.00  0.00    -0.341 N 
ATOM     11  HN  UNL     1     -39.556 -48.021  10.282  1.00  0.00     0.167 HD
HETATM   12  C   UNL     1     -40.137 -49.923  10.847  1.00  0.00     0.183 A 
ENDROOT
BRANCH   6  13
HETATM   13  N   UNL     1     -41.111 -46.545  11.821  1.00  0.00    -0.267 NA
HETATM   14  C   UNL     1     -42.069 -45.852  10.946  1.00  0.00     0.104 C 
HETATM   15  C   UNL     1     -42.205 -44.386  11.425  1.00  0.00     0.034 C 
HETATM   16  C   UNL     1     -40.830 -43.681  11.464  1.00  0.00     0.064 C 
HETATM   17  C   UNL     1     -43.214 -43.578  10.595  1.00  0.00     0.009 C 
HETATM   18  C   UNL     1     -40.969 -42.250  12.010  1.00  0.00     0.038 C 
HETATM   19  C   UNL     1     -39.867 -44.490  12.333  1.00  0.00     0.053 C 
HETATM   20  C   UNL     1     -41.996 -41.427  11.231  1.00  0.00     0.003 C 
HETATM   21  C   UNL     1     -43.340 -42.144  11.123  1.00  0.00     0.001 C 
HETATM   22  C   UNL     1     -39.770 -45.929  11.833  1.00  0.00     0.100 C 
BRANCH  16  23
HETATM   23  O   UNL     1     -40.246 -43.613  10.155  1.00  0.00    -0.389 OA
HETATM   24  H   UNL     1     -39.278 -43.604  10.234  1.00  0.00     0.210 HD
ENDBRANCH  16  23
ENDBRANCH   6  13
BRANCH   1  25
HETATM   25  C   UNL     1     -43.001 -52.050  13.607  1.00  0.00     0.094 C 
HETATM   26  C   UNL     1     -44.002 -52.824  12.702  1.00  0.00     0.039 C 
HETATM   27  C   UNL     1     -44.422 -53.604  14.000  1.00  0.00     0.006 C 
HETATM   28  C   UNL     1     -44.051 -52.253  14.729  1.00  0.00     0.039 C 
BRANCH  27  29
HETATM   29  C   UNL     1     -45.899 -53.999  14.041  1.00  0.00     0.175 C 
BRANCH  29  30
HETATM   30  O   UNL     1     -46.032 -55.412  13.931  1.00  0.00    -0.400 OA
HETATM   31  H   UNL     1     -46.064 -55.769  14.843  1.00  0.00     0.209 HD
ENDBRANCH  29  30
ENDBRANCH  27  29
BRANCH  27  32
HETATM   32  C   UNL     1     -43.528 -54.825  14.286  1.00  0.00     0.175 C 
BRANCH  32  33
HETATM   33  O   UNL     1     -43.780 -55.309  15.606  1.00  0.00    -0.400 OA
HETATM   34  H   UNL     1     -44.419 -56.043  15.526  1.00  0.00     0.209 HD
ENDBRANCH  32  33
ENDBRANCH  27  32
ENDBRANCH   1  25
TORSDOF 7
ENDMDL
MODEL 2
REMARK VINA RESULT:      -6.5      3.190      4.066
REMARK  7 active torsions:
REMARK  status: ('A' for Active; 'I' for Inactive)
REMARK    1  A    between atoms: N_1  and  C_9 
REMARK    2  A    between atoms: C_6  and  N_7 
REMARK    3  A    between atoms: C_14  and  O_23 
REMARK    4  A    between atoms: C_16  and  C_24 
REMARK    5  A    between atoms: C_16  and  C_25 
REMARK    6  A    between atoms: C_24  and  O_28 
REMARK    7  A    between atoms: C_25  and  O_27 
ROOT
HETATM    1  N   UNL     1     -39.489 -52.089  14.069  1.00  0.00    -0.322 N 
HETATM    2  C   UNL     1     -39.904 -50.331  12.842  1.00  0.00     0.117 A 
HETATM    3  C   UNL     1     -38.896 -51.240  13.165  1.00  0.00     0.140 A 
HETATM    4  N   UNL     1     -41.080 -50.650  13.495  1.00  0.00    -0.346 N 
ATOM      5  HN  UNL     1     -41.979 -50.173  13.423  1.00  0.00     0.167 HD
HETATM    6  C   UNL     1     -39.599 -49.265  11.953  1.00  0.00     0.114 A 
HETATM    7  C   UNL     1     -40.792 -51.696  14.224  1.00  0.00     0.185 A 
HETATM    8  N   UNL     1     -37.640 -51.237  12.687  1.00  0.00    -0.336 N 
ATOM      9  HN  UNL     1     -36.916 -51.906  12.952  1.00  0.00     0.168 HD
HETATM   10  N   UNL     1     -38.343 -49.268  11.418  1.00  0.00    -0.341 N 
ATOM     11  HN  UNL     1     -38.069 -48.561  10.737  1.00  0.00     0.167 HD
HETATM   12  C   UNL     1     -37.467 -50.225  11.807  1.00  0.00     0.183 A 
ENDROOT
BRANCH   6  13
HETATM   13  N   UNL     1     -40.540 -48.267  11.615  1.00  0.00    -0.267 NA
HETATM   14  C   UNL     1     -41.252 -48.431  10.338  1.00  0.00     0.104 C 
HETATM   15  C   UNL     1     -42.437 -47.436  10.302  1.00  0.00     0.034 C 
HETATM   16  C   UNL     1     -41.956 -45.985  10.524  1.00  0.00     0.064 C 
HETATM   17  C   UNL     1     -43.272 -47.549   9.018  1.00  0.00     0.009 C 
HETATM   18  C   UNL     1     -43.151 -45.017  10.559  1.00  0.00     0.038 C 
HETATM   19  C   UNL     1     -41.168 -45.904  11.832  1.00  0.00     0.053 C 
HETATM   20  C   UNL     1     -44.027 -45.129   9.311  1.00  0.00     0.003 C 
HETATM   21  C   UNL     1     -44.453 -46.570   9.039  1.00  0.00     0.001 C 
HETATM   22  C   UNL     1     -40.017 -46.905  11.829  1.00  0.00     0.100 C 
BRANCH  16  23
HETATM   23  O   UNL     1     -41.065 -45.569   9.479  1.00  0.00    -0.389 OA
HETATM   24  H   UNL     1     -40.934 -46.304   8.857  1.00  0.00     0.210 HD
ENDBRANCH  16  23
ENDBRANCH   6  13
BRANCH   1  25
HETATM   25  C   UNL     1     -38.994 -53.196  14.837  1.00  0.00     0.094 C 
HETATM   26  C   UNL     1     -39.585 -54.593  14.488  1.00  0.00     0.039 C 
HETATM   27  C   UNL     1     -39.324 -54.972  15.991  1.00  0.00     0.006 C 
HETATM   28  C   UNL     1     -39.590 -53.436  16.247  1.00  0.00     0.039 C 
BRANCH  27  29
HETATM   29  C   UNL     1     -40.357 -55.934  16.580  1.00  0.00     0.175 C 
BRANCH  29  30
HETATM   30  O   UNL     1     -39.812 -57.246  16.664  1.00  0.00    -0.400 OA
HETATM   31  H   UNL     1     -39.334 -57.413  15.825  1.00  0.00     0.209 HD
ENDBRANCH  29  30
ENDBRANCH  27  29
BRANCH  27  32
HETATM   32  C   UNL     1     -37.897 -55.489  16.244  1.00  0.00     0.175 C 
BRANCH  32  33
HETATM   33  O   UNL     1     -37.700 -55.697  17.643  1.00  0.00    -0.400 OA
HETATM   34  H   UNL     1     -37.917 -56.631  17.829  1.00  0.00     0.209 HD
ENDBRANCH  32  33
ENDBRANCH  27  32
ENDBRANCH   1  25
TORSDOF 7
ENDMDL
MODEL 3
REMARK VINA RESULT:      -6.5      2.683      3.641
REMARK  7 active torsions:
REMARK  status: ('A' for Active; 'I' for Inactive)
REMARK    1  A    between atoms: N_1  and  C_9 
REMARK    2  A    between atoms: C_6  and  N_7 
REMARK    3  A    between atoms: C_14  and  O_23 
REMARK    4  A    between atoms: C_16  and  C_24 
REMARK    5  A    between atoms: C_16  and  C_25 
REMARK    6  A    between atoms: C_24  and  O_28 
REMARK    7  A    between atoms: C_25  and  O_27 
ROOT
HETATM    1  N   UNL     1     -41.472 -48.863  12.317  1.00  0.00    -0.322 N 
HETATM    2  C   UNL     1     -41.848 -46.769  11.824  1.00  0.00     0.117 A 
HETATM    3  C   UNL     1     -41.987 -48.064  11.324  1.00  0.00     0.140 A 
HETATM    4  N   UNL     1     -41.309 -46.790  13.097  1.00  0.00    -0.346 N 
ATOM      5  HN  UNL     1     -41.123 -45.993  13.706  1.00  0.00     0.167 HD
HETATM    6  C   UNL     1     -42.242 -45.677  11.004  1.00  0.00     0.114 A 
HETATM    7  C   UNL     1     -41.089 -48.052  13.353  1.00  0.00     0.185 A 
HETATM    8  N   UNL     1     -42.500 -48.404  10.129  1.00  0.00    -0.336 N 
ATOM      9  HN  UNL     1     -42.577 -49.360   9.781  1.00  0.00     0.168 HD
HETATM   10  N   UNL     1     -42.810 -46.000   9.806  1.00  0.00    -0.341 N 
ATOM     11  HN  UNL     1     -43.160 -45.270   9.186  1.00  0.00     0.167 HD
HETATM   12  C   UNL     1     -42.901 -47.304   9.452  1.00  0.00     0.183 A 
ENDROOT
BRANCH   6  13
HETATM   13  N   UNL     1     -42.085 -44.332  11.406  1.00  0.00    -0.267 NA
HETATM   14  C   UNL     1     -43.204 -43.420  11.127  1.00  0.00     0.104 C 
HETATM   15  C   UNL     1     -42.976 -42.104  11.909  1.00  0.00     0.034 C 
HETATM   16  C   UNL     1     -41.608 -41.477  11.562  1.00  0.00     0.064 C 
HETATM   17  C   UNL     1     -44.113 -41.089  11.714  1.00  0.00     0.009 C 
HETATM   18  C   UNL     1     -41.363 -40.210  12.399  1.00  0.00     0.038 C 
HETATM   19  C   UNL     1     -40.500 -42.501  11.810  1.00  0.00     0.053 C 
HETATM   20  C   UNL     1     -42.495 -39.192  12.259  1.00  0.00     0.003 C 
HETATM   21  C   UNL     1     -43.862 -39.816  12.531  1.00  0.00     0.001 C 
HETATM   22  C   UNL     1     -40.768 -43.784  11.029  1.00  0.00     0.100 C 
BRANCH  16  23
HETATM   23  O   UNL     1     -41.538 -41.123  10.173  1.00  0.00    -0.389 OA
HETATM   24  H   UNL     1     -41.666 -40.165  10.078  1.00  0.00     0.210 HD
ENDBRANCH  16  23
ENDBRANCH   6  13
BRANCH   1  25
HETATM   25  C   UNL     1     -41.255 -50.279  12.416  1.00  0.00     0.094 C 
HETATM   26  C   UNL     1     -40.995 -50.835  13.846  1.00  0.00     0.039 C 
HETATM   27  C   UNL     1     -40.140 -51.955  13.150  1.00  0.00     0.006 C 
HETATM   28  C   UNL     1     -39.845 -50.829  12.082  1.00  0.00     0.039 C 
BRANCH  27  29
HETATM   29  C   UNL     1     -38.938 -52.424  13.972  1.00  0.00     0.175 C 
BRANCH  29  30
HETATM   30  O   UNL     1     -38.574 -53.748  13.596  1.00  0.00    -0.400 OA
HETATM   31  H   UNL     1     -37.889 -53.671  12.901  1.00  0.00     0.209 HD
ENDBRANCH  29  30
ENDBRANCH  27  29
BRANCH  27  32
HETATM   32  C   UNL     1     -40.982 -53.158  12.688  1.00  0.00     0.175 C 
BRANCH  32  33
HETATM   33  O   UNL     1     -40.515 -53.615  11.418  1.00  0.00    -0.400 OA
HETATM   34  H   UNL     1     -39.696 -54.122  11.578  1.00  0.00     0.209 HD
ENDBRANCH  32  33
ENDBRANCH  27  32
ENDBRANCH   1  25
TORSDOF 7
ENDMDL
MODEL 4
REMARK VINA RESULT:      -6.3      3.446      9.255
REMARK  7 active torsions:
REMARK  status: ('A' for Active; 'I' for Inactive)
REMARK    1  A    between atoms: N_1  and  C_9 
REMARK    2  A    between atoms: C_6  and  N_7 
REMARK    3  A    between atoms: C_14  and  O_23 
REMARK    4  A    between atoms: C_16  and  C_24 
REMARK    5  A    between atoms: C_16  and  C_25 
REMARK    6  A    between atoms: C_24  and  O_28 
REMARK    7  A    between atoms: C_25  and  O_27 
ROOT
HETATM    1  N   UNL     1     -41.300 -48.371  12.659  1.00  0.00    -0.322 N 
HETATM    2  C   UNL     1     -40.413 -50.195  13.469  1.00  0.00     0.117 A 
HETATM    3  C   UNL     1     -40.145 -49.116  12.626  1.00  0.00     0.140 A 
HETATM    4  N   UNL     1     -41.672 -50.078  14.030  1.00  0.00    -0.346 N 
ATOM      5  HN  UNL     1     -42.113 -50.708  14.699  1.00  0.00     0.167 HD
HETATM    6  C   UNL     1     -39.424 -51.204  13.618  1.00  0.00     0.114 A 
HETATM    7  C   UNL     1     -42.174 -48.987  13.517  1.00  0.00     0.185 A 
HETATM    8  N   UNL     1     -39.007 -48.904  11.944  1.00  0.00    -0.336 N 
ATOM      9  HN  UNL     1     -38.842 -48.113  11.321  1.00  0.00     0.168 HD
HETATM   10  N   UNL     1     -38.241 -50.987  12.972  1.00  0.00    -0.341 N 
ATOM     11  HN  UNL     1     -37.469 -51.645  13.071  1.00  0.00     0.167 HD
HETATM   12  C   UNL     1     -38.109 -49.883  12.198  1.00  0.00     0.183 A 
ENDROOT
BRANCH   6  13
HETATM   13  N   UNL     1     -39.631 -52.358  14.406  1.00  0.00    -0.267 NA
HETATM   14  C   UNL     1     -38.579 -52.697  15.377  1.00  0.00     0.104 C 
HETATM   15  C   UNL     1     -39.125 -53.779  16.339  1.00  0.00     0.034 C 
HETATM   16  C   UNL     1     -39.628 -55.017  15.562  1.00  0.00     0.064 C 
HETATM   17  C   UNL     1     -38.112 -54.183  17.421  1.00  0.00     0.009 C 
HETATM   18  C   UNL     1     -40.234 -56.052  16.525  1.00  0.00     0.038 C 
HETATM   19  C   UNL     1     -40.665 -54.581  14.527  1.00  0.00     0.053 C 
HETATM   20  C   UNL     1     -39.265 -56.449  17.639  1.00  0.00     0.003 C 
HETATM   21  C   UNL     1     -38.705 -55.231  18.370  1.00  0.00     0.001 C 
HETATM   22  C   UNL     1     -40.090 -53.509  13.606  1.00  0.00     0.100 C 
BRANCH  16  23
HETATM   23  O   UNL     1     -38.559 -55.642  14.837  1.00  0.00    -0.389 OA
HETATM   24  H   UNL     1     -38.461 -56.561  15.138  1.00  0.00     0.210 HD
ENDBRANCH  16  23
ENDBRANCH   6  13
BRANCH   1  25
HETATM   25  C   UNL     1     -41.713 -47.181  11.970  1.00  0.00     0.094 C 
HETATM   26  C   UNL     1     -43.200 -47.135  11.512  1.00  0.00     0.039 C 
HETATM   27  C   UNL     1     -42.709 -46.213  10.338  1.00  0.00     0.006 C 
HETATM   28  C   UNL     1     -41.376 -47.052  10.463  1.00  0.00     0.039 C 
BRANCH  27  29
HETATM   29  C   UNL     1     -43.489 -46.393   9.035  1.00  0.00     0.175 C 
BRANCH  29  30
HETATM   30  O   UNL     1     -42.704 -45.959   7.930  1.00  0.00    -0.400 OA
HETATM   31  H   UNL     1     -42.387 -45.056   8.140  1.00  0.00     0.209 HD
ENDBRANCH  29  30
ENDBRANCH  27  29
BRANCH  27  32
HETATM   32  C   UNL     1     -42.641 -44.725  10.727  1.00  0.00     0.175 C 
BRANCH  32  33
HETATM   33  O   UNL     1     -43.513 -43.967   9.888  1.00  0.00    -0.400 OA
HETATM   34  H   UNL     1     -44.417 -44.307  10.031  1.00  0.00     0.209 HD
ENDBRANCH  32  33
ENDBRANCH  27  32
ENDBRANCH   1  25
TORSDOF 7
ENDMDL
MODEL 5
REMARK VINA RESULT:      -6.3      5.347      8.373
REMARK  7 active torsions:
REMARK  status: ('A' for Active; 'I' for Inactive)
REMARK    1  A    between atoms: N_1  and  C_9 
REMARK    2  A    between atoms: C_6  and  N_7 
REMARK    3  A    between atoms: C_14  and  O_23 
REMARK    4  A    between atoms: C_16  and  C_24 
REMARK    5  A    between atoms: C_16  and  C_25 
REMARK    6  A    between atoms: C_24  and  O_28 
REMARK    7  A    between atoms: C_25  and  O_27 
ROOT
HETATM    1  N   UNL     1     -40.504 -47.558  12.368  1.00  0.00    -0.322 N 
HETATM    2  C   UNL     1     -39.025 -48.368  13.756  1.00  0.00     0.117 A 
HETATM    3  C   UNL     1     -39.481 -48.474  12.442  1.00  0.00     0.140 A 
HETATM    4  N   UNL     1     -39.720 -47.386  14.439  1.00  0.00    -0.346 N 
ATOM      5  HN  UNL     1     -39.578 -47.081  15.401  1.00  0.00     0.167 HD
HETATM    6  C   UNL     1     -37.985 -49.234  14.188  1.00  0.00     0.114 A 
HETATM    7  C   UNL     1     -40.599 -46.934  13.584  1.00  0.00     0.185 A 
HETATM    8  N   UNL     1     -39.006 -49.308  11.501  1.00  0.00    -0.336 N 
ATOM      9  HN  UNL     1     -39.368 -49.376  10.550  1.00  0.00     0.168 HD
HETATM   10  N   UNL     1     -37.455 -50.057  13.237  1.00  0.00    -0.341 N 
ATOM     11  HN  UNL     1     -36.673 -50.673  13.462  1.00  0.00     0.167 HD
HETATM   12  C   UNL     1     -37.982 -50.045  11.990  1.00  0.00     0.183 A 
ENDROOT
BRANCH   6  13
HETATM   13  N   UNL     1     -37.501 -49.235  15.515  1.00  0.00    -0.267 NA
HETATM   14  C   UNL     1     -36.382 -48.328  15.815  1.00  0.00     0.104 C 
HETATM   15  C   UNL     1     -36.214 -48.243  17.351  1.00  0.00     0.034 C 
HETATM   16  C   UNL     1     -36.015 -49.644  17.971  1.00  0.00     0.064 C 
HETATM   17  C   UNL     1     -35.088 -47.288  17.776  1.00  0.00     0.009 C 
HETATM   18  C   UNL     1     -35.922 -49.551  19.503  1.00  0.00     0.038 C 
HETATM   19  C   UNL     1     -37.176 -50.551  17.563  1.00  0.00     0.053 C 
HETATM   20  C   UNL     1     -34.836 -48.579  19.963  1.00  0.00     0.003 C 
HETATM   21  C   UNL     1     -34.978 -47.209  19.304  1.00  0.00     0.001 C 
HETATM   22  C   UNL     1     -37.313 -50.600  16.043  1.00  0.00     0.100 C 
BRANCH  16  23
HETATM   23  O   UNL     1     -34.817 -50.262  17.480  1.00  0.00    -0.389 OA
HETATM   24  H   UNL     1     -34.332 -50.659  18.222  1.00  0.00     0.210 HD
ENDBRANCH  16  23
ENDBRANCH   6  13
BRANCH   1  25
HETATM   25  C   UNL     1     -41.430 -47.213  11.327  1.00  0.00     0.094 C 
HETATM   26  C   UNL     1     -41.090 -45.939  10.501  1.00  0.00     0.039 C 
HETATM   27  C   UNL     1     -42.640 -45.774  10.299  1.00  0.00     0.006 C 
HETATM   28  C   UNL     1     -42.727 -46.461  11.718  1.00  0.00     0.039 C 
BRANCH  27  29
HETATM   29  C   UNL     1     -43.109 -44.320  10.232  1.00  0.00     0.175 C 
BRANCH  29  30
HETATM   30  O   UNL     1     -44.267 -44.216   9.410  1.00  0.00    -0.400 OA
HETATM   31  H   UNL     1     -44.965 -43.790   9.950  1.00  0.00     0.209 HD
ENDBRANCH  29  30
ENDBRANCH  27  29
BRANCH  27  32
HETATM   32  C   UNL     1     -43.180 -46.573   9.098  1.00  0.00     0.175 C 
BRANCH  32  33
HETATM   33  O   UNL     1     -42.730 -45.978   7.880  1.00  0.00    -0.400 OA
HETATM   34  H   UNL     1     -43.494 -45.514   7.487  1.00  0.00     0.209 HD
ENDBRANCH  32  33
ENDBRANCH  27  32
ENDBRANCH   1  25
TORSDOF 7
ENDMDL
MODEL 6
REMARK VINA RESULT:      -6.2      3.599      9.905
REMARK  7 active torsions:
REMARK  status: ('A' for Active; 'I' for Inactive)
REMARK    1  A    between atoms: N_1  and  C_9 
REMARK    2  A    between atoms: C_6  and  N_7 
REMARK    3  A    between atoms: C_14  and  O_23 
REMARK    4  A    between atoms: C_16  and  C_24 
REMARK    5  A    between atoms: C_16  and  C_25 
REMARK    6  A    between atoms: C_24  and  O_28 
REMARK    7  A    between atoms: C_25  and  O_27 
ROOT
HETATM    1  N   UNL     1     -41.812 -50.499  12.647  1.00  0.00    -0.322 N 
HETATM    2  C   UNL     1     -41.594 -52.312  13.844  1.00  0.00     0.117 A 
HETATM    3  C   UNL     1     -42.348 -51.754  12.812  1.00  0.00     0.140 A 
HETATM    4  N   UNL     1     -40.604 -51.438  14.257  1.00  0.00    -0.346 N 
ATOM      5  HN  UNL     1     -39.897 -51.597  14.974  1.00  0.00     0.167 HD
HETATM    6  C   UNL     1     -41.931 -53.612  14.307  1.00  0.00     0.114 A 
HETATM    7  C   UNL     1     -40.771 -50.367  13.529  1.00  0.00     0.185 A 
HETATM    8  N   UNL     1     -43.368 -52.342  12.165  1.00  0.00    -0.336 N 
ATOM      9  HN  UNL     1     -43.914 -51.905  11.422  1.00  0.00     0.168 HD
HETATM   10  N   UNL     1     -42.934 -54.249  13.635  1.00  0.00    -0.341 N 
ATOM     11  HN  UNL     1     -43.199 -55.202  13.881  1.00  0.00     0.167 HD
HETATM   12  C   UNL     1     -43.572 -53.594  12.635  1.00  0.00     0.183 A 
ENDROOT
BRANCH   6  13
HETATM   13  N   UNL     1     -41.260 -54.232  15.384  1.00  0.00    -0.267 NA
HETATM   14  C   UNL     1     -39.932 -54.800  15.101  1.00  0.00     0.104 C 
HETATM   15  C   UNL     1     -39.242 -55.137  16.445  1.00  0.00     0.034 C 
HETATM   16  C   UNL     1     -40.115 -56.083  17.300  1.00  0.00     0.064 C 
HETATM   17  C   UNL     1     -37.828 -55.708  16.263  1.00  0.00     0.009 C 
HETATM   18  C   UNL     1     -39.452 -56.351  18.661  1.00  0.00     0.038 C 
HETATM   19  C   UNL     1     -41.498 -55.462  17.496  1.00  0.00     0.053 C 
HETATM   20  C   UNL     1     -38.026 -56.885  18.519  1.00  0.00     0.003 C 
HETATM   21  C   UNL     1     -37.170 -55.997  17.618  1.00  0.00     0.001 C 
HETATM   22  C   UNL     1     -42.138 -55.136  16.149  1.00  0.00     0.100 C 
BRANCH  16  23
HETATM   23  O   UNL     1     -40.318 -57.340  16.638  1.00  0.00    -0.389 OA
HETATM   24  H   UNL     1     -39.684 -57.424  15.907  1.00  0.00     0.210 HD
ENDBRANCH  16  23
ENDBRANCH   6  13
BRANCH   1  25
HETATM   25  C   UNL     1     -42.162 -49.391  11.803  1.00  0.00     0.094 C 
HETATM   26  C   UNL     1     -41.054 -48.891  10.832  1.00  0.00     0.039 C 
HETATM   27  C   UNL     1     -41.725 -47.474  10.952  1.00  0.00     0.006 C 
HETATM   28  C   UNL     1     -42.105 -47.964  12.404  1.00  0.00     0.039 C 
BRANCH  27  29
HETATM   29  C   UNL     1     -40.737 -46.309  10.879  1.00  0.00     0.175 C 
BRANCH  29  30
HETATM   30  O   UNL     1     -40.923 -45.584   9.667  1.00  0.00    -0.400 OA
HETATM   31  H   UNL     1     -41.835 -45.769   9.359  1.00  0.00     0.209 HD
ENDBRANCH  29  30
ENDBRANCH  27  29
BRANCH  27  32
HETATM   32  C   UNL     1     -42.881 -47.268   9.956  1.00  0.00     0.175 C 
BRANCH  32  33
HETATM   33  O   UNL     1     -43.572 -46.056  10.263  1.00  0.00    -0.400 OA
HETATM   34  H   UNL     1     -43.564 -45.508   9.456  1.00  0.00     0.209 HD
ENDBRANCH  32  33
ENDBRANCH  27  32
ENDBRANCH   1  25
TORSDOF 7
ENDMDL
MODEL 7
REMARK VINA RESULT:      -6.2      1.477      9.015
REMARK  7 active torsions:
REMARK  status: ('A' for Active; 'I' for Inactive)
REMARK    1  A    between atoms: N_1  and  C_9 
REMARK    2  A    between atoms: C_6  and  N_7 
REMARK    3  A    between atoms: C_14  and  O_23 
REMARK    4  A    between atoms: C_16  and  C_24 
REMARK    5  A    between atoms: C_16  and  C_25 
REMARK    6  A    between atoms: C_24  and  O_28 
REMARK    7  A    between atoms: C_25  and  O_27 
ROOT
HETATM    1  N   UNL     1     -41.589 -47.238  12.034  1.00  0.00    -0.322 N 
HETATM    2  C   UNL     1     -41.974 -49.370  12.315  1.00  0.00     0.117 A 
HETATM    3  C   UNL     1     -41.012 -48.472  11.849  1.00  0.00     0.140 A 
HETATM    4  N   UNL     1     -43.077 -48.695  12.807  1.00  0.00    -0.346 N 
ATOM      5  HN  UNL     1     -43.912 -49.098  13.230  1.00  0.00     0.167 HD
HETATM    6  C   UNL     1     -41.710 -50.762  12.215  1.00  0.00     0.114 A 
HETATM    7  C   UNL     1     -42.816 -47.429  12.613  1.00  0.00     0.185 A 
HETATM    8  N   UNL     1     -39.813 -48.790  11.332  1.00  0.00    -0.336 N 
ATOM      9  HN  UNL     1     -39.133 -48.113  10.985  1.00  0.00     0.168 HD
HETATM   10  N   UNL     1     -40.480 -51.108  11.736  1.00  0.00    -0.341 N 
ATOM     11  HN  UNL     1     -40.203 -52.088  11.681  1.00  0.00     0.167 HD
HETATM   12  C   UNL     1     -39.633 -50.130  11.336  1.00  0.00     0.183 A 
ENDROOT
BRANCH   6  13
HETATM   13  N   UNL     1     -42.649 -51.741  12.608  1.00  0.00    -0.267 NA
HETATM   14  C   UNL     1     -43.672 -51.328  13.582  1.00  0.00     0.104 C 
HETATM   15  C   UNL     1     -44.769 -52.418  13.639  1.00  0.00     0.034 C 
HETATM   16  C   UNL     1     -44.167 -53.802  13.971  1.00  0.00     0.064 C 
HETATM   17  C   UNL     1     -45.909 -52.067  14.606  1.00  0.00     0.009 C 
HETATM   18  C   UNL     1     -45.257 -54.887  13.952  1.00  0.00     0.038 C 
HETATM   19  C   UNL     1     -43.068 -54.135  12.962  1.00  0.00     0.053 C 
HETATM   20  C   UNL     1     -46.428 -54.552  14.876  1.00  0.00     0.003 C 
HETATM   21  C   UNL     1     -46.988 -53.157  14.606  1.00  0.00     0.001 C 
HETATM   22  C   UNL     1     -42.013 -53.032  12.931  1.00  0.00     0.100 C 
BRANCH  16  23
HETATM   23  O   UNL     1     -43.551 -53.800  15.267  1.00  0.00    -0.389 OA
HETATM   24  H   UNL     1     -43.570 -52.900  15.631  1.00  0.00     0.210 HD
ENDBRANCH  16  23
ENDBRANCH   6  13
BRANCH   1  25
HETATM   25  C   UNL     1     -41.166 -45.905  11.707  1.00  0.00     0.094 C 
HETATM   26  C   UNL     1     -39.951 -45.356  12.509  1.00  0.00     0.039 C 
HETATM   27  C   UNL     1     -40.579 -43.931  12.297  1.00  0.00     0.006 C 
HETATM   28  C   UNL     1     -41.949 -44.717  12.321  1.00  0.00     0.039 C 
BRANCH  27  29
HETATM   29  C   UNL     1     -40.344 -42.966  13.460  1.00  0.00     0.175 C 
BRANCH  29  30
HETATM   30  O   UNL     1     -39.287 -42.065  13.143  1.00  0.00    -0.400 OA
HETATM   31  H   UNL     1     -38.583 -42.590  12.709  1.00  0.00     0.209 HD
ENDBRANCH  29  30
ENDBRANCH  27  29
BRANCH  27  32
HETATM   32  C   UNL     1     -40.166 -43.282  10.963  1.00  0.00     0.175 C 
BRANCH  32  33
HETATM   33  O   UNL     1     -41.005 -42.158  10.692  1.00  0.00    -0.400 OA
HETATM   34  H   UNL     1     -40.977 -41.582  11.480  1.00  0.00     0.209 HD
ENDBRANCH  32  33
ENDBRANCH  27  32
ENDBRANCH   1  25
TORSDOF 7
ENDMDL
MODEL 8
REMARK VINA RESULT:      -6.0      3.085      9.400
REMARK  7 active torsions:
REMARK  status: ('A' for Active; 'I' for Inactive)
REMARK    1  A    between atoms: N_1  and  C_9 
REMARK    2  A    between atoms: C_6  and  N_7 
REMARK    3  A    between atoms: C_14  and  O_23 
REMARK    4  A    between atoms: C_16  and  C_24 
REMARK    5  A    between atoms: C_16  and  C_25 
REMARK    6  A    between atoms: C_24  and  O_28 
REMARK    7  A    between atoms: C_25  and  O_27 
ROOT
HETATM    1  N   UNL     1     -40.111 -47.613  12.470  1.00  0.00    -0.322 N 
HETATM    2  C   UNL     1     -39.742 -49.676  13.084  1.00  0.00     0.117 A 
HETATM    3  C   UNL     1     -39.319 -48.700  12.182  1.00  0.00     0.140 A 
HETATM    4  N   UNL     1     -40.726 -49.178  13.920  1.00  0.00    -0.346 N 
ATOM      5  HN  UNL     1     -41.193 -49.664  14.686  1.00  0.00     0.167 HD
HETATM    6  C   UNL     1     -39.151 -50.966  13.018  1.00  0.00     0.114 A 
HETATM    7  C   UNL     1     -40.926 -47.952  13.518  1.00  0.00     0.185 A 
HETATM    8  N   UNL     1     -38.361 -48.840  11.250  1.00  0.00    -0.336 N 
ATOM      9  HN  UNL     1     -38.081 -48.114  10.591  1.00  0.00     0.168 HD
HETATM   10  N   UNL     1     -38.143 -51.120  12.111  1.00  0.00    -0.341 N 
ATOM     11  HN  UNL     1     -37.641 -52.004  12.039  1.00  0.00     0.167 HD
HETATM   12  C   UNL     1     -37.820 -50.079  11.306  1.00  0.00     0.183 A 
ENDROOT
BRANCH   6  13
HETATM   13  N   UNL     1     -39.557 -52.030  13.853  1.00  0.00    -0.267 NA
HETATM   14  C   UNL     1     -38.646 -52.401  14.947  1.00  0.00     0.104 C 
HETATM   15  C   UNL     1     -39.397 -53.346  15.917  1.00  0.00     0.034 C 
HETATM   16  C   UNL     1     -39.955 -54.580  15.174  1.00  0.00     0.064 C 
HETATM   17  C   UNL     1     -38.541 -53.768  17.121  1.00  0.00     0.009 C 
HETATM   18  C   UNL     1     -40.760 -55.473  16.135  1.00  0.00     0.038 C 
HETATM   19  C   UNL     1     -40.836 -54.121  14.012  1.00  0.00     0.053 C 
HETATM   20  C   UNL     1     -39.951 -55.881  17.365  1.00  0.00     0.003 C 
HETATM   21  C   UNL     1     -39.333 -54.675  18.070  1.00  0.00     0.001 C 
HETATM   22  C   UNL     1     -40.062 -53.186  13.087  1.00  0.00     0.100 C 
BRANCH  16  23
HETATM   23  O   UNL     1     -38.897 -55.365  14.605  1.00  0.00    -0.389 OA
HETATM   24  H   UNL     1     -38.142 -55.379  15.217  1.00  0.00     0.210 HD
ENDBRANCH  16  23
ENDBRANCH   6  13
BRANCH   1  25
HETATM   25  C   UNL     1     -40.237 -46.313  11.873  1.00  0.00     0.094 C 
HETATM   26  C   UNL     1     -40.921 -45.221  12.746  1.00  0.00     0.039 C 
HETATM   27  C   UNL     1     -41.399 -44.577  11.395  1.00  0.00     0.006 C 
HETATM   28  C   UNL     1     -41.402 -46.071  10.880  1.00  0.00     0.039 C 
BRANCH  27  29
HETATM   29  C   UNL     1     -42.767 -43.898  11.476  1.00  0.00     0.175 C 
BRANCH  29  30
HETATM   30  O   UNL     1     -43.304 -43.720  10.170  1.00  0.00    -0.400 OA
HETATM   31  H   UNL     1     -44.032 -44.367  10.067  1.00  0.00     0.209 HD
ENDBRANCH  29  30
ENDBRANCH  27  29
BRANCH  27  32
HETATM   32  C   UNL     1     -40.358 -43.625  10.779  1.00  0.00     0.175 C 
BRANCH  32  33
HETATM   33  O   UNL     1     -40.930 -42.328  10.610  1.00  0.00    -0.400 OA
HETATM   34  H   UNL     1     -40.240 -41.676  10.837  1.00  0.00     0.209 HD
ENDBRANCH  32  33
ENDBRANCH  27  32
ENDBRANCH   1  25
TORSDOF 7
ENDMDL
MODEL 9
REMARK VINA RESULT:      -5.7      2.986      9.274
REMARK  7 active torsions:
REMARK  status: ('A' for Active; 'I' for Inactive)
REMARK    1  A    between atoms: N_1  and  C_9 
REMARK    2  A    between atoms: C_6  and  N_7 
REMARK    3  A    between atoms: C_14  and  O_23 
REMARK    4  A    between atoms: C_16  and  C_24 
REMARK    5  A    between atoms: C_16  and  C_25 
REMARK    6  A    between atoms: C_24  and  O_28 
REMARK    7  A    between atoms: C_25  and  O_27 
ROOT
HETATM    1  N   UNL     1     -42.029 -43.664  12.410  1.00  0.00    -0.322 N 
HETATM    2  C   UNL     1     -41.360 -45.736  12.248  1.00  0.00     0.117 A 
HETATM    3  C   UNL     1     -41.201 -44.476  11.671  1.00  0.00     0.140 A 
HETATM    4  N   UNL     1     -42.221 -45.676  13.329  1.00  0.00    -0.346 N 
ATOM      5  HN  UNL     1     -42.495 -46.440  13.947  1.00  0.00     0.167 HD
HETATM    6  C   UNL     1     -40.669 -46.838  11.676  1.00  0.00     0.114 A 
HETATM    7  C   UNL     1     -42.607 -44.430  13.388  1.00  0.00     0.185 A 
HETATM    8  N   UNL     1     -40.417 -44.175  10.623  1.00  0.00    -0.336 N 
ATOM      9  HN  UNL     1     -40.330 -43.246  10.210  1.00  0.00     0.168 HD
HETATM   10  N   UNL     1     -39.830 -46.549  10.639  1.00  0.00    -0.341 N 
ATOM     11  HN  UNL     1     -39.266 -47.282  10.210  1.00  0.00     0.167 HD
HETATM   12  C   UNL     1     -39.758 -45.274  10.189  1.00  0.00     0.183 A 
ENDROOT
BRANCH   6  13
HETATM   13  N   UNL     1     -40.815 -48.158  12.159  1.00  0.00    -0.267 NA
HETATM   14  C   UNL     1     -39.600 -48.986  12.206  1.00  0.00     0.104 C 
HETATM   15  C   UNL     1     -39.899 -50.254  13.042  1.00  0.00     0.034 C 
HETATM   16  C   UNL     1     -41.113 -51.024  12.476  1.00  0.00     0.064 C 
HETATM   17  C   UNL     1     -38.678 -51.176  13.184  1.00  0.00     0.009 C 
HETATM   18  C   UNL     1     -41.442 -52.240  13.358  1.00  0.00     0.038 C 
HETATM   19  C   UNL     1     -42.317 -50.087  12.391  1.00  0.00     0.053 C 
HETATM   20  C   UNL     1     -40.238 -53.162  13.553  1.00  0.00     0.003 C 
HETATM   21  C   UNL     1     -39.009 -52.401  14.046  1.00  0.00     0.001 C 
HETATM   22  C   UNL     1     -41.977 -48.847  11.568  1.00  0.00     0.100 C 
BRANCH  16  23
HETATM   23  O   UNL     1     -40.855 -51.487  11.142  1.00  0.00    -0.389 OA
HETATM   24  H   UNL     1     -40.921 -52.456  11.119  1.00  0.00     0.210 HD
ENDBRANCH  16  23
ENDBRANCH   6  13
BRANCH   1  25
HETATM   25  C   UNL     1     -42.384 -42.277  12.302  1.00  0.00     0.094 C 
HETATM   26  C   UNL     1     -43.266 -41.703  13.449  1.00  0.00     0.039 C 
HETATM   27  C   UNL     1     -43.838 -40.705  12.379  1.00  0.00     0.006 C 
HETATM   28  C   UNL     1     -43.562 -41.891  11.372  1.00  0.00     0.039 C 
BRANCH  27  29
HETATM   29  C   UNL     1     -45.308 -40.339  12.589  1.00  0.00     0.175 C 
BRANCH  29  30
HETATM   30  O   UNL     1     -45.410 -39.091  13.267  1.00  0.00    -0.400 OA
HETATM   31  H   UNL     1     -44.585 -38.975  13.783  1.00  0.00     0.209 HD
ENDBRANCH  29  30
ENDBRANCH  27  29
BRANCH  27  32
HETATM   32  C   UNL     1     -42.982 -39.435  12.219  1.00  0.00     0.175 C 
BRANCH  32  33
HETATM   33  O   UNL     1     -43.562 -38.582  11.231  1.00  0.00    -0.400 OA
HETATM   34  H   UNL     1     -44.355 -39.037  10.888  1.00  0.00     0.209 HD
ENDBRANCH  32  33
ENDBRANCH  27  32
ENDBRANCH   1  25
TORSDOF 7
ENDMDL
