MODEL 1
REMARK VINA RESULT:      -6.4      0.000      0.000
REMARK  3 active torsions:
REMARK  status: ('A' for Active; 'I' for Inactive)
REMARK    1  A    between atoms: C_6  and  N_8 
REMARK       I    between atoms: N_8  and  C_9 
REMARK    2  A    between atoms: C_9  and  C_11 
REMARK    3  A    between atoms: C_11  and  N_12 
ROOT
HETATM    1  N   UNL     1     -43.537 -52.344  12.564  1.00  0.00    -0.355 N 
HETATM    2  C   UNL     1     -42.193 -52.395  12.868  1.00  0.00     0.237 C 
HETATM    3  O   UNL     1     -41.766 -52.574  14.010  1.00  0.00    -0.272 OA
HETATM    4  H   UNL     1     -43.835 -52.250  11.600  1.00  0.00     0.162 HD
ENDROOT
BRANCH   2   5
HETATM    5  C   UNL     1     -41.240 -52.140  11.705  1.00  0.00     0.255 C 
BRANCH   5   6
HETATM    6  N   UNL     1     -40.740 -50.774  11.775  1.00  0.00    -0.246 N 
HETATM    7  N   UNL     1     -41.590 -49.796  11.217  1.00  0.00    -0.261 N 
HETATM    8  C   UNL     1     -41.166 -48.517  10.976  1.00  0.00     0.260 C 
HETATM    9  H   UNL     1     -42.359 -50.116  10.629  1.00  0.00     0.190 HD
HETATM   10  O   UNL     1     -41.815 -47.706  10.326  1.00  0.00    -0.267 OA
HETATM   11  C   UNL     1     -39.864 -48.144  11.555  1.00  0.00     0.081 C 
HETATM   12  C   UNL     1     -39.053 -49.069  12.076  1.00  0.00     0.081 C 
HETATM   13  C   UNL     1     -39.435 -50.496  12.116  1.00  0.00     0.262 C 
HETATM   14  O   UNL     1     -38.614 -51.339  12.463  1.00  0.00    -0.267 OA
ENDBRANCH   5   6
ENDBRANCH   2   5
BRANCH   1  15
HETATM   15  C   UNL     1     -44.542 -52.513  13.603  1.00  0.00     0.084 C 
HETATM   16  C   UNL     1     -45.097 -53.941  13.611  1.00  0.00     0.025 C 
HETATM   17  C   UNL     1     -46.134 -54.122  14.717  1.00  0.00     0.002 C 
HETATM   18  C   UNL     1     -47.248 -53.077  14.636  1.00  0.00     0.004 C 
HETATM   19  C   UNL     1     -46.724 -51.633  14.565  1.00  0.00    -0.017 C 
HETATM   20  C   UNL     1     -46.176 -51.166  15.919  1.00  0.00     0.010 C 
HETATM   21  C   UNL     1     -45.676 -51.494  13.450  1.00  0.00     0.029 C 
ENDBRANCH   1  15
TORSDOF 3
ENDMDL
MODEL 2
REMARK VINA RESULT:      -6.4      2.231      6.386
REMARK  3 active torsions:
REMARK  status: ('A' for Active; 'I' for Inactive)
REMARK    1  A    between atoms: C_6  and  N_8 
REMARK       I    between atoms: N_8  and  C_9 
REMARK    2  A    between atoms: C_9  and  C_11 
REMARK    3  A    between atoms: C_11  and  N_12 
ROOT
HETATM    1  N   UNL     1     -40.997 -50.121  11.341  1.00  0.00    -0.355 N 
HETATM    2  C   UNL     1     -41.452 -50.960  12.337  1.00  0.00     0.237 C 
HETATM    3  O   UNL     1     -42.007 -50.554  13.359  1.00  0.00    -0.272 OA
HETATM    4  H   UNL     1     -40.598 -50.511  10.495  1.00  0.00     0.162 HD
ENDROOT
BRANCH   2   5
HETATM    5  C   UNL     1     -41.162 -52.444  12.138  1.00  0.00     0.255 C 
BRANCH   5   6
HETATM    6  N   UNL     1     -42.286 -53.230  12.629  1.00  0.00    -0.246 N 
HETATM    7  N   UNL     1     -43.526 -52.941  12.022  1.00  0.00    -0.261 N 
HETATM    8  C   UNL     1     -44.710 -53.401  12.534  1.00  0.00     0.260 C 
HETATM    9  H   UNL     1     -43.597 -52.089  11.467  1.00  0.00     0.190 HD
HETATM   10  O   UNL     1     -45.805 -53.017  12.143  1.00  0.00    -0.267 OA
HETATM   11  C   UNL     1     -44.607 -54.414  13.600  1.00  0.00     0.081 C 
HETATM   12  C   UNL     1     -43.435 -54.682  14.181  1.00  0.00     0.081 C 
HETATM   13  C   UNL     1     -42.193 -53.997  13.768  1.00  0.00     0.262 C 
HETATM   14  O   UNL     1     -41.163 -54.153  14.416  1.00  0.00    -0.267 OA
ENDBRANCH   5   6
ENDBRANCH   2   5
BRANCH   1  15
HETATM   15  C   UNL     1     -41.163 -48.680  11.447  1.00  0.00     0.084 C 
HETATM   16  C   UNL     1     -41.902 -48.115  10.230  1.00  0.00     0.025 C 
HETATM   17  C   UNL     1     -42.097 -46.605  10.356  1.00  0.00     0.002 C 
HETATM   18  C   UNL     1     -40.777 -45.877  10.611  1.00  0.00     0.004 C 
HETATM   19  C   UNL     1     -39.979 -46.457  11.791  1.00  0.00    -0.017 C 
HETATM   20  C   UNL     1     -40.616 -46.091  13.136  1.00  0.00     0.010 C 
HETATM   21  C   UNL     1     -39.815 -47.978  11.634  1.00  0.00     0.029 C 
ENDBRANCH   1  15
TORSDOF 3
ENDMDL
MODEL 3
REMARK VINA RESULT:      -6.2      1.687      2.267
REMARK  3 active torsions:
REMARK  status: ('A' for Active; 'I' for Inactive)
REMARK    1  A    between atoms: C_6  and  N_8 
REMARK       I    between atoms: N_8  and  C_9 
REMARK    2  A    between atoms: C_9  and  C_11 
REMARK    3  A    between atoms: C_11  and  N_12 
ROOT
HETATM    1  N   UNL     1     -42.068 -52.351  12.510  1.00  0.00    -0.355 N 
HETATM    2  C   UNL     1     -41.870 -50.987  12.542  1.00  0.00     0.237 C 
HETATM    3  O   UNL     1     -42.572 -50.218  13.200  1.00  0.00    -0.272 OA
HETATM    4  H   UNL     1     -41.427 -52.944  11.996  1.00  0.00     0.162 HD
ENDROOT
BRANCH   2   5
HETATM    5  C   UNL     1     -40.757 -50.458  11.643  1.00  0.00     0.255 C 
BRANCH   5   6
HETATM    6  N   UNL     1     -40.987 -49.047  11.362  1.00  0.00    -0.246 N 
HETATM    7  N   UNL     1     -42.129 -48.772  10.582  1.00  0.00    -0.261 N 
HETATM    8  C   UNL     1     -42.347 -47.542  10.023  1.00  0.00     0.260 C 
HETATM    9  H   UNL     1     -42.575 -49.553  10.101  1.00  0.00     0.190 HD
HETATM   10  O   UNL     1     -43.225 -47.327   9.195  1.00  0.00    -0.267 OA
HETATM   11  C   UNL     1     -41.463 -46.454  10.477  1.00  0.00     0.081 C 
HETATM   12  C   UNL     1     -40.376 -46.715  11.208  1.00  0.00     0.081 C 
HETATM   13  C   UNL     1     -40.027 -48.093  11.610  1.00  0.00     0.262 C 
HETATM   14  O   UNL     1     -38.949 -48.317  12.152  1.00  0.00    -0.267 OA
ENDBRANCH   5   6
ENDBRANCH   2   5
BRANCH   1  15
HETATM   15  C   UNL     1     -43.139 -52.966  13.281  1.00  0.00     0.084 C 
HETATM   16  C   UNL     1     -42.699 -54.310  13.869  1.00  0.00     0.025 C 
HETATM   17  C   UNL     1     -43.815 -54.941  14.697  1.00  0.00     0.002 C 
HETATM   18  C   UNL     1     -45.117 -55.064  13.904  1.00  0.00     0.004 C 
HETATM   19  C   UNL     1     -45.558 -53.745  13.249  1.00  0.00    -0.017 C 
HETATM   20  C   UNL     1     -46.105 -52.757  14.285  1.00  0.00     0.010 C 
HETATM   21  C   UNL     1     -44.405 -53.136  12.435  1.00  0.00     0.029 C 
ENDBRANCH   1  15
TORSDOF 3
ENDMDL
MODEL 4
REMARK VINA RESULT:      -5.9      2.025      3.116
REMARK  3 active torsions:
REMARK  status: ('A' for Active; 'I' for Inactive)
REMARK    1  A    between atoms: C_6  and  N_8 
REMARK       I    between atoms: N_8  and  C_9 
REMARK    2  A    between atoms: C_9  and  C_11 
REMARK    3  A    between atoms: C_11  and  N_12 
ROOT
HETATM    1  N   UNL     1     -42.786 -51.753  12.568  1.00  0.00    -0.355 N 
HETATM    2  C   UNL     1     -41.534 -51.735  11.991  1.00  0.00     0.237 C 
HETATM    3  O   UNL     1     -40.788 -52.715  11.968  1.00  0.00    -0.272 OA
HETATM    4  H   UNL     1     -43.382 -50.935  12.511  1.00  0.00     0.162 HD
ENDROOT
BRANCH   2   5
HETATM    5  C   UNL     1     -41.080 -50.390  11.435  1.00  0.00     0.255 C 
BRANCH   5   6
HETATM    6  N   UNL     1     -39.821 -50.004  12.060  1.00  0.00    -0.246 N 
HETATM    7  N   UNL     1     -38.723 -50.833  11.751  1.00  0.00    -0.261 N 
HETATM    8  C   UNL     1     -37.543 -50.763  12.443  1.00  0.00     0.260 C 
HETATM    9  H   UNL     1     -38.916 -51.734  11.313  1.00  0.00     0.190 HD
HETATM   10  O   UNL     1     -36.646 -51.589  12.324  1.00  0.00    -0.267 OA
HETATM   11  C   UNL     1     -37.391 -49.616  13.355  1.00  0.00     0.081 C 
HETATM   12  C   UNL     1     -38.432 -48.835  13.655  1.00  0.00     0.081 C 
HETATM   13  C   UNL     1     -39.769 -49.072  13.070  1.00  0.00     0.262 C 
HETATM   14  O   UNL     1     -40.735 -48.433  13.477  1.00  0.00    -0.267 OA
ENDBRANCH   5   6
ENDBRANCH   2   5
BRANCH   1  15
HETATM   15  C   UNL     1     -43.305 -52.964  13.185  1.00  0.00     0.084 C 
HETATM   16  C   UNL     1     -44.684 -53.326  12.625  1.00  0.00     0.025 C 
HETATM   17  C   UNL     1     -45.215 -54.611  13.256  1.00  0.00     0.002 C 
HETATM   18  C   UNL     1     -45.220 -54.540  14.784  1.00  0.00     0.004 C 
HETATM   19  C   UNL     1     -43.866 -54.120  15.378  1.00  0.00    -0.017 C 
HETATM   20  C   UNL     1     -42.834 -55.251  15.283  1.00  0.00     0.010 C 
HETATM   21  C   UNL     1     -43.360 -52.832  14.710  1.00  0.00     0.029 C 
ENDBRANCH   1  15
TORSDOF 3
ENDMDL
MODEL 5
REMARK VINA RESULT:      -5.9      1.489      2.583
REMARK  3 active torsions:
REMARK  status: ('A' for Active; 'I' for Inactive)
REMARK    1  A    between atoms: C_6  and  N_8 
REMARK       I    between atoms: N_8  and  C_9 
REMARK    2  A    between atoms: C_9  and  C_11 
REMARK    3  A    between atoms: C_11  and  N_12 
ROOT
HETATM    1  N   UNL     1     -43.406 -51.217  12.535  1.00  0.00    -0.355 N 
HETATM    2  C   UNL     1     -42.458 -50.282  12.893  1.00  0.00     0.237 C 
HETATM    3  O   UNL     1     -42.321 -49.868  14.045  1.00  0.00    -0.272 OA
HETATM    4  H   UNL     1     -43.440 -51.565  11.584  1.00  0.00     0.162 HD
ENDROOT
BRANCH   2   5
HETATM    5  C   UNL     1     -41.617 -49.720  11.752  1.00  0.00     0.255 C 
BRANCH   5   6
HETATM    6  N   UNL     1     -40.208 -49.991  12.006  1.00  0.00    -0.246 N 
HETATM    7  N   UNL     1     -39.933 -51.262  12.552  1.00  0.00    -0.261 N 
HETATM    8  C   UNL     1     -38.709 -51.578  13.078  1.00  0.00     0.260 C 
HETATM    9  H   UNL     1     -40.717 -51.799  12.924  1.00  0.00     0.190 HD
HETATM   10  O   UNL     1     -38.498 -52.598  13.722  1.00  0.00    -0.267 OA
HETATM   11  C   UNL     1     -37.624 -50.614  12.823  1.00  0.00     0.081 C 
HETATM   12  C   UNL     1     -37.884 -49.407  12.314  1.00  0.00     0.081 C 
HETATM   13  C   UNL     1     -39.259 -48.995  11.965  1.00  0.00     0.262 C 
HETATM   14  O   UNL     1     -39.486 -47.833  11.641  1.00  0.00    -0.267 OA
ENDBRANCH   5   6
ENDBRANCH   2   5
BRANCH   1  15
HETATM   15  C   UNL     1     -44.308 -51.781  13.528  1.00  0.00     0.084 C 
HETATM   16  C   UNL     1     -44.326 -53.311  13.456  1.00  0.00     0.025 C 
HETATM   17  C   UNL     1     -45.254 -53.901  14.515  1.00  0.00     0.002 C 
HETATM   18  C   UNL     1     -46.662 -53.310  14.437  1.00  0.00     0.004 C 
HETATM   19  C   UNL     1     -46.678 -51.772  14.446  1.00  0.00    -0.017 C 
HETATM   20  C   UNL     1     -46.357 -51.214  15.837  1.00  0.00     0.010 C 
HETATM   21  C   UNL     1     -45.724 -51.217  13.376  1.00  0.00     0.029 C 
ENDBRANCH   1  15
TORSDOF 3
ENDMDL
MODEL 6
REMARK VINA RESULT:      -5.8      4.045      5.751
REMARK  3 active torsions:
REMARK  status: ('A' for Active; 'I' for Inactive)
REMARK    1  A    between atoms: C_6  and  N_8 
REMARK       I    between atoms: N_8  and  C_9 
REMARK    2  A    between atoms: C_9  and  C_11 
REMARK    3  A    between atoms: C_11  and  N_12 
ROOT
HETATM    1  N   UNL     1     -46.667 -52.653  15.759  1.00  0.00    -0.355 N 
HETATM    2  C   UNL     1     -46.197 -53.948  15.820  1.00  0.00     0.237 C 
HETATM    3  O   UNL     1     -45.824 -54.481  16.866  1.00  0.00    -0.272 OA
HETATM    4  H   UNL     1     -47.014 -52.282  14.882  1.00  0.00     0.162 HD
ENDROOT
BRANCH   2   5
HETATM    5  C   UNL     1     -46.092 -54.679  14.486  1.00  0.00     0.255 C 
BRANCH   5   6
HETATM    6  N   UNL     1     -44.779 -54.440  13.901  1.00  0.00    -0.246 N 
HETATM    7  N   UNL     1     -43.689 -54.889  14.676  1.00  0.00    -0.261 N 
HETATM    8  C   UNL     1     -42.400 -54.523  14.397  1.00  0.00     0.260 C 
HETATM    9  H   UNL     1     -43.868 -55.138  15.649  1.00  0.00     0.190 HD
HETATM   10  O   UNL     1     -41.461 -54.741  15.154  1.00  0.00    -0.267 OA
HETATM   11  C   UNL     1     -42.181 -53.843  13.108  1.00  0.00     0.081 C 
HETATM   12  C   UNL     1     -43.213 -53.410  12.377  1.00  0.00     0.081 C 
HETATM   13  C   UNL     1     -44.609 -53.612  12.815  1.00  0.00     0.262 C 
HETATM   14  O   UNL     1     -45.526 -53.075  12.202  1.00  0.00    -0.267 OA
ENDBRANCH   5   6
ENDBRANCH   2   5
BRANCH   1  15
HETATM   15  C   UNL     1     -46.757 -51.835  16.959  1.00  0.00     0.084 C 
HETATM   16  C   UNL     1     -48.089 -51.081  17.019  1.00  0.00     0.025 C 
HETATM   17  C   UNL     1     -48.190 -50.243  18.291  1.00  0.00     0.002 C 
HETATM   18  C   UNL     1     -46.995 -49.304  18.456  1.00  0.00     0.004 C 
HETATM   19  C   UNL     1     -45.638 -50.019  18.340  1.00  0.00    -0.017 C 
HETATM   20  C   UNL     1     -45.339 -50.863  19.585  1.00  0.00     0.010 C 
HETATM   21  C   UNL     1     -45.580 -50.860  17.055  1.00  0.00     0.029 C 
ENDBRANCH   1  15
TORSDOF 3
ENDMDL
MODEL 7
REMARK VINA RESULT:      -5.7      2.508      6.744
REMARK  3 active torsions:
REMARK  status: ('A' for Active; 'I' for Inactive)
REMARK    1  A    between atoms: C_6  and  N_8 
REMARK       I    between atoms: N_8  and  C_9 
REMARK    2  A    between atoms: C_9  and  C_11 
REMARK    3  A    between atoms: C_11  and  N_12 
ROOT
HETATM    1  N   UNL     1     -41.443 -50.322  11.294  1.00  0.00    -0.355 N 
HETATM    2  C   UNL     1     -41.928 -51.143  12.290  1.00  0.00     0.237 C 
HETATM    3  O   UNL     1     -42.283 -50.727  13.394  1.00  0.00    -0.272 OA
HETATM    4  H   UNL     1     -41.218 -50.708  10.385  1.00  0.00     0.162 HD
ENDROOT
BRANCH   2   5
HETATM    5  C   UNL     1     -41.937 -52.635  11.973  1.00  0.00     0.255 C 
BRANCH   5   6
HETATM    6  N   UNL     1     -42.423 -53.376  13.130  1.00  0.00    -0.246 N 
HETATM    7  N   UNL     1     -41.443 -53.688  14.095  1.00  0.00    -0.261 N 
HETATM    8  C   UNL     1     -41.676 -54.584  15.103  1.00  0.00     0.260 C 
HETATM    9  H   UNL     1     -40.464 -53.578  13.830  1.00  0.00     0.190 HD
HETATM   10  O   UNL     1     -40.793 -55.013  15.837  1.00  0.00    -0.267 OA
HETATM   11  C   UNL     1     -43.073 -55.017  15.279  1.00  0.00     0.081 C 
HETATM   12  C   UNL     1     -44.001 -54.729  14.362  1.00  0.00     0.081 C 
HETATM   13  C   UNL     1     -43.674 -53.949  13.150  1.00  0.00     0.262 C 
HETATM   14  O   UNL     1     -44.507 -53.829  12.257  1.00  0.00    -0.267 OA
ENDBRANCH   5   6
ENDBRANCH   2   5
BRANCH   1  15
HETATM   15  C   UNL     1     -41.331 -48.886  11.501  1.00  0.00     0.084 C 
HETATM   16  C   UNL     1     -41.897 -48.107  10.310  1.00  0.00     0.025 C 
HETATM   17  C   UNL     1     -41.801 -46.601  10.540  1.00  0.00     0.002 C 
HETATM   18  C   UNL     1     -40.376 -46.163  10.884  1.00  0.00     0.004 C 
HETATM   19  C   UNL     1     -39.754 -46.967  12.038  1.00  0.00    -0.017 C 
HETATM   20  C   UNL     1     -40.363 -46.573  13.389  1.00  0.00     0.010 C 
HETATM   21  C   UNL     1     -39.881 -48.476  11.775  1.00  0.00     0.029 C 
ENDBRANCH   1  15
TORSDOF 3
ENDMDL
MODEL 8
REMARK VINA RESULT:      -5.7      1.331      2.059
REMARK  3 active torsions:
REMARK  status: ('A' for Active; 'I' for Inactive)
REMARK    1  A    between atoms: C_6  and  N_8 
REMARK       I    between atoms: N_8  and  C_9 
REMARK    2  A    between atoms: C_9  and  C_11 
REMARK    3  A    between atoms: C_11  and  N_12 
ROOT
HETATM    1  N   UNL     1     -42.706 -51.494  13.758  1.00  0.00    -0.355 N 
HETATM    2  C   UNL     1     -41.817 -51.617  12.710  1.00  0.00     0.237 C 
HETATM    3  O   UNL     1     -42.044 -52.302  11.712  1.00  0.00    -0.272 OA
HETATM    4  H   UNL     1     -42.494 -50.874  14.531  1.00  0.00     0.162 HD
ENDROOT
BRANCH   2   5
HETATM    5  C   UNL     1     -40.481 -50.905  12.887  1.00  0.00     0.255 C 
BRANCH   5   6
HETATM    6  N   UNL     1     -40.579 -49.548  12.367  1.00  0.00    -0.246 N 
HETATM    7  N   UNL     1     -41.562 -49.359  11.374  1.00  0.00    -0.261 N 
HETATM    8  C   UNL     1     -41.615 -48.224  10.610  1.00  0.00     0.260 C 
HETATM    9  H   UNL     1     -41.970 -50.190  10.944  1.00  0.00     0.190 HD
HETATM   10  O   UNL     1     -42.333 -48.111   9.624  1.00  0.00    -0.267 OA
HETATM   11  C   UNL     1     -40.754 -47.109  11.042  1.00  0.00     0.081 C 
HETATM   12  C   UNL     1     -39.816 -47.289  11.977  1.00  0.00     0.081 C 
HETATM   13  C   UNL     1     -39.618 -48.599  12.631  1.00  0.00     0.262 C 
HETATM   14  O   UNL     1     -38.657 -48.772  13.373  1.00  0.00    -0.267 OA
ENDBRANCH   5   6
ENDBRANCH   2   5
BRANCH   1  15
HETATM   15  C   UNL     1     -43.990 -52.177  13.730  1.00  0.00     0.084 C 
HETATM   16  C   UNL     1     -45.148 -51.179  13.628  1.00  0.00     0.025 C 
HETATM   17  C   UNL     1     -46.493 -51.899  13.574  1.00  0.00     0.002 C 
HETATM   18  C   UNL     1     -46.674 -52.865  14.746  1.00  0.00     0.004 C 
HETATM   19  C   UNL     1     -45.499 -53.844  14.915  1.00  0.00    -0.017 C 
HETATM   20  C   UNL     1     -45.506 -54.924  13.827  1.00  0.00     0.010 C 
HETATM   21  C   UNL     1     -44.165 -53.083  14.953  1.00  0.00     0.029 C 
ENDBRANCH   1  15
TORSDOF 3
ENDMDL
MODEL 9
REMARK VINA RESULT:      -5.6      2.183      3.097
REMARK  3 active torsions:
REMARK  status: ('A' for Active; 'I' for Inactive)
REMARK    1  A    between atoms: C_6  and  N_8 
REMARK       I    between atoms: N_8  and  C_9 
REMARK    2  A    between atoms: C_9  and  C_11 
REMARK    3  A    between atoms: C_11  and  N_12 
ROOT
HETATM    1  N   UNL     1     -42.614 -50.620  14.942  1.00  0.00    -0.355 N 
HETATM    2  C   UNL     1     -41.442 -51.344  14.876  1.00  0.00     0.237 C 
HETATM    3  O   UNL     1     -41.409 -52.555  14.655  1.00  0.00    -0.272 OA
HETATM    4  H   UNL     1     -42.582 -49.615  15.071  1.00  0.00     0.162 HD
ENDROOT
BRANCH   2   5
HETATM    5  C   UNL     1     -40.164 -50.565  15.169  1.00  0.00     0.255 C 
BRANCH   5   6
HETATM    6  N   UNL     1     -39.484 -50.256  13.918  1.00  0.00    -0.246 N 
HETATM    7  N   UNL     1     -38.563 -51.231  13.483  1.00  0.00    -0.261 N 
HETATM    8  C   UNL     1     -37.667 -50.986  12.476  1.00  0.00     0.260 C 
HETATM    9  H   UNL     1     -38.279 -51.948  14.150  1.00  0.00     0.190 HD
HETATM   10  O   UNL     1     -36.739 -51.739  12.206  1.00  0.00    -0.267 OA
HETATM   11  C   UNL     1     -37.878 -49.749  11.705  1.00  0.00     0.081 C 
HETATM   12  C   UNL     1     -38.745 -48.821  12.121  1.00  0.00     0.081 C 
HETATM   13  C   UNL     1     -39.541 -49.003  13.351  1.00  0.00     0.262 C 
HETATM   14  O   UNL     1     -40.215 -48.075  13.786  1.00  0.00    -0.267 OA
ENDBRANCH   5   6
ENDBRANCH   2   5
BRANCH   1  15
HETATM   15  C   UNL     1     -43.901 -51.267  14.740  1.00  0.00     0.084 C 
HETATM   16  C   UNL     1     -44.468 -50.954  13.351  1.00  0.00     0.025 C 
HETATM   17  C   UNL     1     -45.807 -51.654  13.132  1.00  0.00     0.002 C 
HETATM   18  C   UNL     1     -46.809 -51.335  14.243  1.00  0.00     0.004 C 
HETATM   19  C   UNL     1     -46.252 -51.580  15.655  1.00  0.00    -0.017 C 
HETATM   20  C   UNL     1     -46.152 -53.078  15.968  1.00  0.00     0.010 C 
HETATM   21  C   UNL     1     -44.900 -50.871  15.831  1.00  0.00     0.029 C 
ENDBRANCH   1  15
TORSDOF 3
ENDMDL
