MODEL 1
REMARK VINA RESULT:      -6.0      0.000      0.000
REMARK  7 active torsions:
REMARK  status: ('A' for Active; 'I' for Inactive)
REMARK    1  A    between atoms: C_2  and  C_4 
REMARK    2  A    between atoms: C_4  and  C_5 
REMARK    3  A    between atoms: C_4  and  C_16 
REMARK    4  A    between atoms: C_5  and  N_6 
REMARK       I    between atoms: N_6  and  C_7 
REMARK    5  A    between atoms: C_7  and  C_9 
REMARK    6  A    between atoms: C_9  and  C_10 
REMARK    7  A    between atoms: C_10  and  C_11 
ROOT
HETATM    1  C   UNL     1     -40.498 -49.950  13.018  1.00  0.00     0.132 C 
ENDROOT
BRANCH   1   2
HETATM    2  C   UNL     1     -39.750 -49.314  11.811  1.00  0.00     0.041 C 
BRANCH   2   3
HETATM    3  C   UNL     1     -38.207 -49.143  12.068  1.00  0.00    -0.013 C 
HETATM    4  C   UNL     1     -37.785 -49.171  13.542  1.00  0.00     0.010 C 
HETATM    5  C   UNL     1     -37.357 -50.141  11.269  1.00  0.00     0.010 C 
ENDBRANCH   2   3
BRANCH   2   6
HETATM    6  C   UNL     1     -40.444 -48.072  11.222  1.00  0.00    -0.037 A 
HETATM    7  C   UNL     1     -40.012 -46.763  11.479  1.00  0.00     0.010 A 
HETATM    8  C   UNL     1     -40.685 -45.668  10.935  1.00  0.00     0.018 A 
HETATM    9  C   UNL     1     -41.800 -45.904  10.157  1.00  0.00     0.087 A 
HETATM   10  N   UNL     1     -42.283 -47.135   9.915  1.00  0.00    -0.375 N 
HETATM   11  C   UNL     1     -41.611 -48.177  10.461  1.00  0.00     0.095 A 
ATOM     12  HN  UNL     1     -43.118 -47.277   9.346  1.00  0.00     0.164 HD
ENDBRANCH   2   6
ENDBRANCH   1   2
BRANCH   1  13
HETATM   13  N   UNL     1     -41.009 -51.278  12.744  1.00  0.00    -0.360 N 
HETATM   14  C   UNL     1     -40.264 -52.422  12.942  1.00  0.00     0.217 C 
HETATM   15  O   UNL     1     -39.106 -52.419  13.339  1.00  0.00    -0.274 OA
HETATM   16  H   UNL     1     -41.972 -51.368  12.444  1.00  0.00     0.162 HD
BRANCH  14  17
HETATM   17  C   UNL     1     -41.021 -53.705  12.665  1.00  0.00     0.103 C 
BRANCH  17  18
HETATM   18  C   UNL     1     -41.654 -54.246  13.939  1.00  0.00     0.014 C 
BRANCH  18  19
HETATM   19  C   UNL     1     -43.143 -53.926  14.068  1.00  0.00    -0.014 C 
HETATM   20  C   UNL     1     -43.992 -55.068  14.644  1.00  0.00     0.004 C 
HETATM   21  C   UNL     1     -45.338 -55.007  13.917  1.00  0.00     0.000 C 
HETATM   22  C   UNL     1     -45.259 -53.825  12.966  1.00  0.00     0.000 C 
HETATM   23  C   UNL     1     -43.772 -53.651  12.704  1.00  0.00     0.004 C 
ENDBRANCH  18  19
ENDBRANCH  17  18
ENDBRANCH  14  17
ENDBRANCH   1  13
TORSDOF 7
ENDMDL
MODEL 2
REMARK VINA RESULT:      -5.9      3.035      4.726
REMARK  7 active torsions:
REMARK  status: ('A' for Active; 'I' for Inactive)
REMARK    1  A    between atoms: C_2  and  C_4 
REMARK    2  A    between atoms: C_4  and  C_5 
REMARK    3  A    between atoms: C_4  and  C_16 
REMARK    4  A    between atoms: C_5  and  N_6 
REMARK       I    between atoms: N_6  and  C_7 
REMARK    5  A    between atoms: C_7  and  C_9 
REMARK    6  A    between atoms: C_9  and  C_10 
REMARK    7  A    between atoms: C_10  and  C_11 
ROOT
HETATM    1  C   UNL     1     -42.160 -52.709  12.216  1.00  0.00     0.132 C 
ENDROOT
BRANCH   1   2
HETATM    2  C   UNL     1     -41.197 -52.105  13.277  1.00  0.00     0.041 C 
BRANCH   2   3
HETATM    3  C   UNL     1     -41.953 -51.367  14.442  1.00  0.00    -0.013 C 
HETATM    4  C   UNL     1     -41.808 -52.014  15.826  1.00  0.00     0.010 C 
HETATM    5  C   UNL     1     -41.599 -49.876  14.532  1.00  0.00     0.010 C 
ENDBRANCH   2   3
BRANCH   2   6
HETATM    6  C   UNL     1     -40.015 -51.318  12.680  1.00  0.00    -0.037 A 
HETATM    7  C   UNL     1     -38.743 -51.285  13.270  1.00  0.00     0.010 A 
HETATM    8  C   UNL     1     -37.709 -50.543  12.699  1.00  0.00     0.018 A 
HETATM    9  C   UNL     1     -37.973 -49.823  11.552  1.00  0.00     0.087 A 
HETATM   10  N   UNL     1     -39.184 -49.783  10.969  1.00  0.00    -0.375 N 
HETATM   11  C   UNL     1     -40.170 -50.510  11.550  1.00  0.00     0.095 A 
ATOM     12  HN  UNL     1     -39.353 -49.231  10.128  1.00  0.00     0.164 HD
ENDBRANCH   2   6
ENDBRANCH   1   2
BRANCH   1  13
HETATM   13  N   UNL     1     -43.533 -52.274  12.370  1.00  0.00    -0.360 N 
HETATM   14  C   UNL     1     -44.591 -53.153  12.470  1.00  0.00     0.217 C 
HETATM   15  O   UNL     1     -44.472 -54.370  12.413  1.00  0.00    -0.274 OA
HETATM   16  H   UNL     1     -43.714 -51.281  12.460  1.00  0.00     0.162 HD
BRANCH  14  17
HETATM   17  C   UNL     1     -45.930 -52.483  12.704  1.00  0.00     0.103 C 
BRANCH  17  18
HETATM   18  C   UNL     1     -45.777 -51.270  13.612  1.00  0.00     0.014 C 
BRANCH  18  19
HETATM   19  C   UNL     1     -45.909 -51.597  15.100  1.00  0.00    -0.014 C 
HETATM   20  C   UNL     1     -47.349 -51.579  15.630  1.00  0.00     0.004 C 
HETATM   21  C   UNL     1     -47.272 -51.027  17.055  1.00  0.00     0.000 C 
HETATM   22  C   UNL     1     -45.801 -50.767  17.336  1.00  0.00     0.000 C 
HETATM   23  C   UNL     1     -45.185 -50.565  15.962  1.00  0.00     0.004 C 
ENDBRANCH  18  19
ENDBRANCH  17  18
ENDBRANCH  14  17
ENDBRANCH   1  13
TORSDOF 7
ENDMDL
MODEL 3
REMARK VINA RESULT:      -5.8      3.476      5.680
REMARK  7 active torsions:
REMARK  status: ('A' for Active; 'I' for Inactive)
REMARK    1  A    between atoms: C_2  and  C_4 
REMARK    2  A    between atoms: C_4  and  C_5 
REMARK    3  A    between atoms: C_4  and  C_16 
REMARK    4  A    between atoms: C_5  and  N_6 
REMARK       I    between atoms: N_6  and  C_7 
REMARK    5  A    between atoms: C_7  and  C_9 
REMARK    6  A    between atoms: C_9  and  C_10 
REMARK    7  A    between atoms: C_10  and  C_11 
ROOT
HETATM    1  C   UNL     1     -42.929 -54.905  15.016  1.00  0.00     0.132 C 
ENDROOT
BRANCH   1   2
HETATM    2  C   UNL     1     -41.491 -54.615  14.496  1.00  0.00     0.041 C 
BRANCH   2   3
HETATM    3  C   UNL     1     -40.396 -54.748  15.617  1.00  0.00    -0.013 C 
HETATM    4  C   UNL     1     -40.641 -55.865  16.639  1.00  0.00     0.010 C 
HETATM    5  C   UNL     1     -38.975 -54.872  15.049  1.00  0.00     0.010 C 
ENDBRANCH   2   3
BRANCH   2   6
HETATM    6  C   UNL     1     -41.377 -53.343  13.635  1.00  0.00    -0.037 A 
HETATM    7  C   UNL     1     -41.466 -52.049  14.168  1.00  0.00     0.010 A 
HETATM    8  C   UNL     1     -41.372 -50.928  13.344  1.00  0.00     0.018 A 
HETATM    9  C   UNL     1     -41.214 -51.122  11.987  1.00  0.00     0.087 A 
HETATM   10  N   UNL     1     -41.166 -52.339  11.417  1.00  0.00    -0.375 N 
HETATM   11  C   UNL     1     -41.265 -53.409  12.243  1.00  0.00     0.095 A 
ATOM     12  HN  UNL     1     -41.061 -52.452  10.408  1.00  0.00     0.164 HD
ENDBRANCH   2   6
ENDBRANCH   1   2
BRANCH   1  13
HETATM   13  N   UNL     1     -43.938 -54.050  14.425  1.00  0.00    -0.360 N 
HETATM   14  C   UNL     1     -45.136 -54.531  13.941  1.00  0.00     0.217 C 
HETATM   15  O   UNL     1     -45.445 -55.715  13.942  1.00  0.00    -0.274 OA
HETATM   16  H   UNL     1     -43.774 -53.050  14.416  1.00  0.00     0.162 HD
BRANCH  14  17
HETATM   17  C   UNL     1     -46.075 -53.452  13.438  1.00  0.00     0.103 C 
BRANCH  17  18
HETATM   18  C   UNL     1     -45.425 -52.079  13.537  1.00  0.00     0.014 C 
BRANCH  18  19
HETATM   19  C   UNL     1     -46.025 -51.193  14.629  1.00  0.00    -0.014 C 
HETATM   20  C   UNL     1     -45.046 -50.808  15.746  1.00  0.00     0.004 C 
HETATM   21  C   UNL     1     -45.864 -50.778  17.039  1.00  0.00     0.000 C 
HETATM   22  C   UNL     1     -47.295 -51.111  16.650  1.00  0.00     0.000 C 
HETATM   23  C   UNL     1     -47.159 -51.907  15.362  1.00  0.00     0.004 C 
ENDBRANCH  18  19
ENDBRANCH  17  18
ENDBRANCH  14  17
ENDBRANCH   1  13
TORSDOF 7
ENDMDL
MODEL 4
REMARK VINA RESULT:      -5.8      1.368      1.787
REMARK  7 active torsions:
REMARK  status: ('A' for Active; 'I' for Inactive)
REMARK    1  A    between atoms: C_2  and  C_4 
REMARK    2  A    between atoms: C_4  and  C_5 
REMARK    3  A    between atoms: C_4  and  C_16 
REMARK    4  A    between atoms: C_5  and  N_6 
REMARK       I    between atoms: N_6  and  C_7 
REMARK    5  A    between atoms: C_7  and  C_9 
REMARK    6  A    between atoms: C_9  and  C_10 
REMARK    7  A    between atoms: C_10  and  C_11 
ROOT
HETATM    1  C   UNL     1     -40.329 -50.291  13.477  1.00  0.00     0.132 C 
ENDROOT
BRANCH   1   2
HETATM    2  C   UNL     1     -39.604 -49.795  12.192  1.00  0.00     0.041 C 
BRANCH   2   3
HETATM    3  C   UNL     1     -38.037 -49.823  12.323  1.00  0.00    -0.013 C 
HETATM    4  C   UNL     1     -37.482 -50.885  13.280  1.00  0.00     0.010 C 
HETATM    5  C   UNL     1     -37.329 -49.931  10.965  1.00  0.00     0.010 C 
ENDBRANCH   2   3
BRANCH   2   6
HETATM    6  C   UNL     1     -40.177 -48.489  11.610  1.00  0.00    -0.037 A 
HETATM    7  C   UNL     1     -39.739 -47.218  12.010  1.00  0.00     0.010 A 
HETATM    8  C   UNL     1     -40.301 -46.064  11.465  1.00  0.00     0.018 A 
HETATM    9  C   UNL     1     -41.315 -46.201  10.539  1.00  0.00     0.087 A 
HETATM   10  N   UNL     1     -41.803 -47.392  10.152  1.00  0.00    -0.375 N 
HETATM   11  C   UNL     1     -41.240 -48.495  10.703  1.00  0.00     0.095 A 
ATOM     12  HN  UNL     1     -42.562 -47.463   9.474  1.00  0.00     0.164 HD
ENDBRANCH   2   6
ENDBRANCH   1   2
BRANCH   1  13
HETATM   13  N   UNL     1     -41.476 -51.131  13.203  1.00  0.00    -0.360 N 
HETATM   14  C   UNL     1     -41.364 -52.458  12.844  1.00  0.00     0.217 C 
HETATM   15  O   UNL     1     -40.295 -53.036  12.702  1.00  0.00    -0.274 OA
HETATM   16  H   UNL     1     -42.401 -50.737  13.331  1.00  0.00     0.162 HD
BRANCH  14  17
HETATM   17  C   UNL     1     -42.694 -53.167  12.681  1.00  0.00     0.103 C 
BRANCH  17  18
HETATM   18  C   UNL     1     -43.388 -53.332  14.025  1.00  0.00     0.014 C 
BRANCH  18  19
HETATM   19  C   UNL     1     -44.888 -53.041  13.981  1.00  0.00    -0.014 C 
HETATM   20  C   UNL     1     -45.430 -52.707  12.583  1.00  0.00     0.004 C 
HETATM   21  C   UNL     1     -46.517 -51.649  12.789  1.00  0.00     0.000 C 
HETATM   22  C   UNL     1     -46.608 -51.413  14.288  1.00  0.00     0.000 C 
HETATM   23  C   UNL     1     -45.240 -51.812  14.816  1.00  0.00     0.004 C 
ENDBRANCH  18  19
ENDBRANCH  17  18
ENDBRANCH  14  17
ENDBRANCH   1  13
TORSDOF 7
ENDMDL
MODEL 5
REMARK VINA RESULT:      -5.7      1.822      2.745
REMARK  7 active torsions:
REMARK  status: ('A' for Active; 'I' for Inactive)
REMARK    1  A    between atoms: C_2  and  C_4 
REMARK    2  A    between atoms: C_4  and  C_5 
REMARK    3  A    between atoms: C_4  and  C_16 
REMARK    4  A    between atoms: C_5  and  N_6 
REMARK       I    between atoms: N_6  and  C_7 
REMARK    5  A    between atoms: C_7  and  C_9 
REMARK    6  A    between atoms: C_9  and  C_10 
REMARK    7  A    between atoms: C_10  and  C_11 
ROOT
HETATM    1  C   UNL     1     -40.000 -51.908  13.571  1.00  0.00     0.132 C 
ENDROOT
BRANCH   1   2
HETATM    2  C   UNL     1     -39.712 -50.856  12.462  1.00  0.00     0.041 C 
BRANCH   2   3
HETATM    3  C   UNL     1     -38.321 -50.143  12.638  1.00  0.00    -0.013 C 
HETATM    4  C   UNL     1     -37.504 -49.981  11.350  1.00  0.00     0.010 C 
HETATM    5  C   UNL     1     -38.432 -48.789  13.352  1.00  0.00     0.010 C 
ENDBRANCH   2   3
BRANCH   2   6
HETATM    6  C   UNL     1     -40.889 -49.903  12.176  1.00  0.00    -0.037 A 
HETATM    7  C   UNL     1     -41.839 -49.551  13.145  1.00  0.00     0.010 A 
HETATM    8  C   UNL     1     -42.897 -48.697  12.832  1.00  0.00     0.018 A 
HETATM    9  C   UNL     1     -43.000 -48.225  11.540  1.00  0.00     0.087 A 
HETATM   10  N   UNL     1     -42.143 -48.565  10.561  1.00  0.00    -0.375 N 
HETATM   11  C   UNL     1     -41.129 -49.400  10.894  1.00  0.00     0.095 A 
ATOM     12  HN  UNL     1     -42.251 -48.210   9.610  1.00  0.00     0.164 HD
ENDBRANCH   2   6
ENDBRANCH   1   2
BRANCH   1  13
HETATM   13  N   UNL     1     -41.062 -52.831  13.228  1.00  0.00    -0.360 N 
HETATM   14  C   UNL     1     -42.145 -53.065  14.050  1.00  0.00     0.217 C 
HETATM   15  O   UNL     1     -42.295 -52.539  15.144  1.00  0.00    -0.274 OA
HETATM   16  H   UNL     1     -41.031 -53.283  12.321  1.00  0.00     0.162 HD
BRANCH  14  17
HETATM   17  C   UNL     1     -43.174 -54.008  13.459  1.00  0.00     0.103 C 
BRANCH  17  18
HETATM   18  C   UNL     1     -43.990 -53.311  12.378  1.00  0.00     0.014 C 
BRANCH  18  19
HETATM   19  C   UNL     1     -45.389 -52.900  12.836  1.00  0.00    -0.014 C 
HETATM   20  C   UNL     1     -45.512 -51.431  13.265  1.00  0.00     0.004 C 
HETATM   21  C   UNL     1     -46.503 -51.408  14.431  1.00  0.00     0.000 C 
HETATM   22  C   UNL     1     -46.958 -52.844  14.635  1.00  0.00     0.000 C 
HETATM   23  C   UNL     1     -45.821 -53.682  14.074  1.00  0.00     0.004 C 
ENDBRANCH  18  19
ENDBRANCH  17  18
ENDBRANCH  14  17
ENDBRANCH   1  13
TORSDOF 7
ENDMDL
MODEL 6
REMARK VINA RESULT:      -5.6      2.497      4.263
REMARK  7 active torsions:
REMARK  status: ('A' for Active; 'I' for Inactive)
REMARK    1  A    between atoms: C_2  and  C_4 
REMARK    2  A    between atoms: C_4  and  C_5 
REMARK    3  A    between atoms: C_4  and  C_16 
REMARK    4  A    between atoms: C_5  and  N_6 
REMARK       I    between atoms: N_6  and  C_7 
REMARK    5  A    between atoms: C_7  and  C_9 
REMARK    6  A    between atoms: C_9  and  C_10 
REMARK    7  A    between atoms: C_10  and  C_11 
ROOT
HETATM    1  C   UNL     1     -42.027 -48.119  10.192  1.00  0.00     0.132 C 
ENDROOT
BRANCH   1   2
HETATM    2  C   UNL     1     -42.819 -46.781  10.121  1.00  0.00     0.041 C 
BRANCH   2   3
HETATM    3  C   UNL     1     -43.623 -46.614   8.780  1.00  0.00    -0.013 C 
HETATM    4  C   UNL     1     -43.429 -47.743   7.759  1.00  0.00     0.010 C 
HETATM    5  C   UNL     1     -45.123 -46.380   9.010  1.00  0.00     0.010 C 
ENDBRANCH   2   3
BRANCH   2   6
HETATM    6  C   UNL     1     -42.003 -45.543  10.538  1.00  0.00    -0.037 A 
HETATM    7  C   UNL     1     -42.595 -44.342  10.953  1.00  0.00     0.010 A 
HETATM    8  C   UNL     1     -41.812 -43.242  11.304  1.00  0.00     0.018 A 
HETATM    9  C   UNL     1     -40.440 -43.356  11.212  1.00  0.00     0.087 A 
HETATM   10  N   UNL     1     -39.821 -44.468  10.779  1.00  0.00    -0.375 N 
HETATM   11  C   UNL     1     -40.609 -45.518  10.440  1.00  0.00     0.095 A 
ATOM     12  HN  UNL     1     -38.804 -44.520  10.709  1.00  0.00     0.164 HD
ENDBRANCH   2   6
ENDBRANCH   1   2
BRANCH   1  13
HETATM   13  N   UNL     1     -42.490 -49.007  11.238  1.00  0.00    -0.360 N 
HETATM   14  C   UNL     1     -41.669 -49.928  11.855  1.00  0.00     0.217 C 
HETATM   15  O   UNL     1     -40.493 -50.096  11.561  1.00  0.00    -0.274 OA
HETATM   16  H   UNL     1     -43.444 -48.908  11.564  1.00  0.00     0.162 HD
BRANCH  14  17
HETATM   17  C   UNL     1     -42.340 -50.698  12.975  1.00  0.00     0.103 C 
BRANCH  17  18
HETATM   18  C   UNL     1     -43.715 -50.121  13.281  1.00  0.00     0.014 C 
BRANCH  18  19
HETATM   19  C   UNL     1     -44.663 -51.116  13.949  1.00  0.00    -0.014 C 
HETATM   20  C   UNL     1     -44.089 -52.531  14.111  1.00  0.00     0.004 C 
HETATM   21  C   UNL     1     -45.261 -53.493  13.903  1.00  0.00     0.000 C 
HETATM   22  C   UNL     1     -46.487 -52.629  13.659  1.00  0.00     0.000 C 
HETATM   23  C   UNL     1     -45.927 -51.324  13.118  1.00  0.00     0.004 C 
ENDBRANCH  18  19
ENDBRANCH  17  18
ENDBRANCH  14  17
ENDBRANCH   1  13
TORSDOF 7
ENDMDL
MODEL 7
REMARK VINA RESULT:      -5.5      3.640      6.349
REMARK  7 active torsions:
REMARK  status: ('A' for Active; 'I' for Inactive)
REMARK    1  A    between atoms: C_2  and  C_4 
REMARK    2  A    between atoms: C_4  and  C_5 
REMARK    3  A    between atoms: C_4  and  C_16 
REMARK    4  A    between atoms: C_5  and  N_6 
REMARK       I    between atoms: N_6  and  C_7 
REMARK    5  A    between atoms: C_7  and  C_9 
REMARK    6  A    between atoms: C_9  and  C_10 
REMARK    7  A    between atoms: C_10  and  C_11 
ROOT
HETATM    1  C   UNL     1     -42.408 -52.495  12.461  1.00  0.00     0.132 C 
ENDROOT
BRANCH   1   2
HETATM    2  C   UNL     1     -41.596 -52.290  13.772  1.00  0.00     0.041 C 
BRANCH   2   3
HETATM    3  C   UNL     1     -40.051 -52.137  13.519  1.00  0.00    -0.013 C 
HETATM    4  C   UNL     1     -39.435 -50.825  14.021  1.00  0.00     0.010 C 
HETATM    5  C   UNL     1     -39.239 -53.325  14.054  1.00  0.00     0.010 C 
ENDBRANCH   2   3
BRANCH   2   6
HETATM    6  C   UNL     1     -41.966 -53.268  14.903  1.00  0.00    -0.037 A 
HETATM    7  C   UNL     1     -42.297 -54.611  14.674  1.00  0.00     0.010 A 
HETATM    8  C   UNL     1     -42.642 -55.453  15.730  1.00  0.00     0.018 A 
HETATM    9  C   UNL     1     -42.674 -54.927  17.006  1.00  0.00     0.087 A 
HETATM   10  N   UNL     1     -42.408 -53.637  17.278  1.00  0.00    -0.375 N 
HETATM   11  C   UNL     1     -42.081 -52.843  16.230  1.00  0.00     0.095 A 
ATOM     12  HN  UNL     1     -42.452 -53.274  18.230  1.00  0.00     0.164 HD
ENDBRANCH   2   6
ENDBRANCH   1   2
BRANCH   1  13
HETATM   13  N   UNL     1     -43.791 -52.080  12.570  1.00  0.00    -0.360 N 
HETATM   14  C   UNL     1     -44.846 -52.966  12.504  1.00  0.00     0.217 C 
HETATM   15  O   UNL     1     -44.714 -54.169  12.325  1.00  0.00    -0.274 OA
HETATM   16  H   UNL     1     -43.986 -51.102  12.754  1.00  0.00     0.162 HD
BRANCH  14  17
HETATM   17  C   UNL     1     -46.203 -52.325  12.720  1.00  0.00     0.103 C 
BRANCH  17  18
HETATM   18  C   UNL     1     -46.717 -52.604  14.126  1.00  0.00     0.014 C 
BRANCH  18  19
HETATM   19  C   UNL     1     -46.692 -51.381  15.041  1.00  0.00    -0.014 C 
HETATM   20  C   UNL     1     -45.304 -51.026  15.592  1.00  0.00     0.004 C 
HETATM   21  C   UNL     1     -45.529 -50.510  17.016  1.00  0.00     0.000 C 
HETATM   22  C   UNL     1     -47.030 -50.544  17.252  1.00  0.00     0.000 C 
HETATM   23  C   UNL     1     -47.539 -51.607  16.293  1.00  0.00     0.004 C 
ENDBRANCH  18  19
ENDBRANCH  17  18
ENDBRANCH  14  17
ENDBRANCH   1  13
TORSDOF 7
ENDMDL
MODEL 8
REMARK VINA RESULT:      -5.5      2.437      3.510
REMARK  7 active torsions:
REMARK  status: ('A' for Active; 'I' for Inactive)
REMARK    1  A    between atoms: C_2  and  C_4 
REMARK    2  A    between atoms: C_4  and  C_5 
REMARK    3  A    between atoms: C_4  and  C_16 
REMARK    4  A    between atoms: C_5  and  N_6 
REMARK       I    between atoms: N_6  and  C_7 
REMARK    5  A    between atoms: C_7  and  C_9 
REMARK    6  A    between atoms: C_9  and  C_10 
REMARK    7  A    between atoms: C_10  and  C_11 
ROOT
HETATM    1  C   UNL     1     -41.289 -52.552  12.205  1.00  0.00     0.132 C 
ENDROOT
BRANCH   1   2
HETATM    2  C   UNL     1     -40.657 -51.179  12.576  1.00  0.00     0.041 C 
BRANCH   2   3
HETATM    3  C   UNL     1     -40.381 -51.028  14.117  1.00  0.00    -0.013 C 
HETATM    4  C   UNL     1     -41.086 -52.056  15.010  1.00  0.00     0.010 C 
HETATM    5  C   UNL     1     -38.884 -50.994  14.453  1.00  0.00     0.010 C 
ENDBRANCH   2   3
BRANCH   2   6
HETATM    6  C   UNL     1     -41.354 -49.969  11.927  1.00  0.00    -0.037 A 
HETATM    7  C   UNL     1     -42.472 -49.338  12.491  1.00  0.00     0.010 A 
HETATM    8  C   UNL     1     -43.078 -48.254  11.856  1.00  0.00     0.018 A 
HETATM    9  C   UNL     1     -42.566 -47.832  10.646  1.00  0.00     0.087 A 
HETATM   10  N   UNL     1     -41.525 -48.428  10.038  1.00  0.00    -0.375 N 
HETATM   11  C   UNL     1     -40.961 -49.481  10.678  1.00  0.00     0.095 A 
ATOM     12  HN  UNL     1     -41.176 -48.101   9.136  1.00  0.00     0.164 HD
ENDBRANCH   2   6
ENDBRANCH   1   2
BRANCH   1  13
HETATM   13  N   UNL     1     -42.732 -52.509  12.090  1.00  0.00    -0.360 N 
HETATM   14  C   UNL     1     -43.563 -53.391  12.750  1.00  0.00     0.217 C 
HETATM   15  O   UNL     1     -43.160 -54.298  13.467  1.00  0.00    -0.274 OA
HETATM   16  H   UNL     1     -43.148 -51.766  11.541  1.00  0.00     0.162 HD
BRANCH  14  17
HETATM   17  C   UNL     1     -45.039 -53.116  12.548  1.00  0.00     0.103 C 
BRANCH  17  18
HETATM   18  C   UNL     1     -45.333 -51.626  12.665  1.00  0.00     0.014 C 
BRANCH  18  19
HETATM   19  C   UNL     1     -45.957 -51.227  14.001  1.00  0.00    -0.014 C 
HETATM   20  C   UNL     1     -44.942 -50.935  15.116  1.00  0.00     0.004 C 
HETATM   21  C   UNL     1     -45.575 -51.440  16.414  1.00  0.00     0.000 C 
HETATM   22  C   UNL     1     -46.946 -51.982  16.040  1.00  0.00     0.000 C 
HETATM   23  C   UNL     1     -46.816 -52.353  14.572  1.00  0.00     0.004 C 
ENDBRANCH  18  19
ENDBRANCH  17  18
ENDBRANCH  14  17
ENDBRANCH   1  13
TORSDOF 7
ENDMDL
MODEL 9
REMARK VINA RESULT:      -5.5      2.514      7.182
REMARK  7 active torsions:
REMARK  status: ('A' for Active; 'I' for Inactive)
REMARK    1  A    between atoms: C_2  and  C_4 
REMARK    2  A    between atoms: C_4  and  C_5 
REMARK    3  A    between atoms: C_4  and  C_16 
REMARK    4  A    between atoms: C_5  and  N_6 
REMARK       I    between atoms: N_6  and  C_7 
REMARK    5  A    between atoms: C_7  and  C_9 
REMARK    6  A    between atoms: C_9  and  C_10 
REMARK    7  A    between atoms: C_10  and  C_11 
ROOT
HETATM    1  C   UNL     1     -43.664 -50.097  14.037  1.00  0.00     0.132 C 
ENDROOT
BRANCH   1   2
HETATM    2  C   UNL     1     -44.048 -51.358  13.210  1.00  0.00     0.041 C 
BRANCH   2   3
HETATM    3  C   UNL     1     -45.447 -51.954  13.613  1.00  0.00    -0.013 C 
HETATM    4  C   UNL     1     -46.083 -51.333  14.863  1.00  0.00     0.010 C 
HETATM    5  C   UNL     1     -46.457 -51.936  12.457  1.00  0.00     0.010 C 
ENDBRANCH   2   3
BRANCH   2   6
HETATM    6  C   UNL     1     -42.919 -52.398  13.085  1.00  0.00    -0.037 A 
HETATM    7  C   UNL     1     -42.685 -53.389  14.049  1.00  0.00     0.010 A 
HETATM    8  C   UNL     1     -41.638 -54.299  13.899  1.00  0.00     0.018 A 
HETATM    9  C   UNL     1     -40.823 -54.186  12.791  1.00  0.00     0.087 A 
HETATM   10  N   UNL     1     -40.975 -53.229  11.859  1.00  0.00    -0.375 N 
HETATM   11  C   UNL     1     -41.998 -52.357  12.035  1.00  0.00     0.095 A 
ATOM     12  HN  UNL     1     -40.349 -53.162  11.056  1.00  0.00     0.164 HD
ENDBRANCH   2   6
ENDBRANCH   1   2
BRANCH   1  13
HETATM   13  N   UNL     1     -43.130 -49.020  13.231  1.00  0.00    -0.360 N 
HETATM   14  C   UNL     1     -41.779 -48.760  13.128  1.00  0.00     0.217 C 
HETATM   15  O   UNL     1     -40.917 -49.395  13.723  1.00  0.00    -0.274 OA
HETATM   16  H   UNL     1     -43.776 -48.467  12.679  1.00  0.00     0.162 HD
BRANCH  14  17
HETATM   17  C   UNL     1     -41.438 -47.637  12.170  1.00  0.00     0.103 C 
BRANCH  17  18
HETATM   18  C   UNL     1     -42.075 -47.874  10.808  1.00  0.00     0.014 C 
BRANCH  18  19
HETATM   19  C   UNL     1     -43.245 -46.938  10.506  1.00  0.00    -0.014 C 
HETATM   20  C   UNL     1     -44.535 -47.650  10.072  1.00  0.00     0.004 C 
HETATM   21  C   UNL     1     -45.190 -46.746   9.026  1.00  0.00     0.000 C 
HETATM   22  C   UNL     1     -44.296 -45.523   8.895  1.00  0.00     0.000 C 
HETATM   23  C   UNL     1     -42.926 -46.009   9.337  1.00  0.00     0.004 C 
ENDBRANCH  18  19
ENDBRANCH  17  18
ENDBRANCH  14  17
ENDBRANCH   1  13
TORSDOF 7
ENDMDL
