MODEL 1
REMARK VINA RESULT:      -6.1      0.000      0.000
REMARK  6 active torsions:
REMARK  status: ('A' for Active; 'I' for Inactive)
REMARK    1  A    between atoms: N_2  and  C_3 
REMARK    2  A    between atoms: N_2  and  C_16 
REMARK    3  A    between atoms: C_3  and  C_4 
REMARK       I    between atoms: C_4  and  N_6 
REMARK    4  A    between atoms: N_6  and  C_7 
REMARK    5  A    between atoms: C_7  and  C_8 
REMARK    6  A    between atoms: C_8  and  C_9 
ROOT
HETATM    1  C   UNL     1     -40.325 -51.755  12.319  1.00  0.00     0.246 C 
HETATM    2  O   UNL     1     -39.404 -51.319  13.000  1.00  0.00    -0.272 OA
HETATM    3  N   UNL     1     -40.934 -51.020  11.315  1.00  0.00    -0.359 N 
HETATM    4  H   UNL     1     -41.833 -51.329  10.968  1.00  0.00     0.162 HD
ENDROOT
BRANCH   1   5
HETATM    5  C   UNL     1     -40.898 -53.175  12.487  1.00  0.00     0.374 C 
BRANCH   5   6
HETATM    6  N   UNL     1     -41.658 -53.322  13.755  1.00  0.00     0.098 N 
HETATM    7  C   UNL     1     -40.874 -54.087  14.734  1.00  0.00     0.310 C 
BRANCH   6   8
HETATM    8  C   UNL     1     -43.003 -53.902  13.538  1.00  0.00     0.237 C 
HETATM    9  C   UNL     1     -43.836 -53.096  12.509  1.00  0.00     0.051 C 
HETATM   10  C   UNL     1     -45.332 -53.273  12.764  1.00  0.00     0.142 C 
HETATM   11  S   UNL     1     -45.494 -54.241  14.240  1.00  0.00     0.146 S 
HETATM   12  O   UNL     1     -46.436 -53.605  15.136  1.00  0.00    -0.228 OA
HETATM   13  O   UNL     1     -45.608 -55.635  13.862  1.00  0.00    -0.228 OA
HETATM   14  C   UNL     1     -43.848 -53.953  14.818  1.00  0.00     0.176 C 
ENDBRANCH   6   8
ENDBRANCH   5   6
ENDBRANCH   1   5
BRANCH   3  15
HETATM   15  C   UNL     1     -40.553 -49.633  11.103  1.00  0.00     0.128 C 
BRANCH  15  16
HETATM   16  C   UNL     1     -41.554 -48.655  11.710  1.00  0.00     0.076 C 
BRANCH  16  17
HETATM   17  C   UNL     1     -42.514 -48.160  10.663  1.00  0.00     0.010 A 
HETATM   18  C   UNL     1     -43.801 -47.753  11.014  1.00  0.00     0.025 A 
HETATM   19  C   UNL     1     -44.677 -47.359  10.009  1.00  0.00     0.003 A 
HETATM   20  C   UNL     1     -44.252 -47.382   8.687  1.00  0.00     0.017 A 
HETATM   21  C   UNL     1     -42.958 -47.796   8.424  1.00  0.00     0.088 A 
HETATM   22  N   UNL     1     -42.083 -48.184   9.379  1.00  0.00    -0.369 N 
ATOM     23  HN  UNL     1     -41.138 -48.484   9.144  1.00  0.00     0.165 HD
ENDBRANCH  16  17
ENDBRANCH  15  16
ENDBRANCH   3  15
TORSDOF 6
ENDMDL
MODEL 2
REMARK VINA RESULT:      -5.9      1.365      1.702
REMARK  6 active torsions:
REMARK  status: ('A' for Active; 'I' for Inactive)
REMARK    1  A    between atoms: N_2  and  C_3 
REMARK    2  A    between atoms: N_2  and  C_16 
REMARK    3  A    between atoms: C_3  and  C_4 
REMARK       I    between atoms: C_4  and  N_6 
REMARK    4  A    between atoms: N_6  and  C_7 
REMARK    5  A    between atoms: C_7  and  C_8 
REMARK    6  A    between atoms: C_8  and  C_9 
ROOT
HETATM    1  C   UNL     1     -40.384 -51.929  12.307  1.00  0.00     0.246 C 
HETATM    2  O   UNL     1     -39.262 -51.781  12.776  1.00  0.00    -0.272 OA
HETATM    3  N   UNL     1     -40.951 -51.035  11.413  1.00  0.00    -0.359 N 
HETATM    4  H   UNL     1     -41.951 -51.073  11.262  1.00  0.00     0.162 HD
ENDROOT
BRANCH   1   5
HETATM    5  C   UNL     1     -41.285 -53.133  12.639  1.00  0.00     0.374 C 
BRANCH   5   6
HETATM    6  N   UNL     1     -41.720 -53.127  14.060  1.00  0.00     0.098 N 
HETATM    7  C   UNL     1     -41.087 -54.231  14.793  1.00  0.00     0.310 C 
BRANCH   6   8
HETATM    8  C   UNL     1     -43.194 -53.138  14.196  1.00  0.00     0.237 C 
HETATM    9  C   UNL     1     -43.783 -54.570  14.128  1.00  0.00     0.051 C 
HETATM   10  C   UNL     1     -45.227 -54.539  13.628  1.00  0.00     0.142 C 
HETATM   11  S   UNL     1     -45.590 -52.859  13.200  1.00  0.00     0.146 S 
HETATM   12  O   UNL     1     -46.190 -52.812  11.883  1.00  0.00    -0.228 OA
HETATM   13  O   UNL     1     -46.198 -52.216  14.349  1.00  0.00    -0.228 OA
HETATM   14  C   UNL     1     -43.904 -52.337  13.097  1.00  0.00     0.176 C 
ENDBRANCH   6   8
ENDBRANCH   5   6
ENDBRANCH   1   5
BRANCH   3  15
HETATM   15  C   UNL     1     -40.249 -49.808  11.075  1.00  0.00     0.128 C 
BRANCH  15  16
HETATM   16  C   UNL     1     -40.793 -48.598  11.830  1.00  0.00     0.076 C 
BRANCH  16  17
HETATM   17  C   UNL     1     -41.620 -47.733  10.920  1.00  0.00     0.010 A 
HETATM   18  C   UNL     1     -41.689 -46.355  11.119  1.00  0.00     0.025 A 
HETATM   19  C   UNL     1     -42.512 -45.598  10.291  1.00  0.00     0.003 A 
HETATM   20  C   UNL     1     -43.243 -46.231   9.295  1.00  0.00     0.017 A 
HETATM   21  C   UNL     1     -43.116 -47.602   9.162  1.00  0.00     0.088 A 
HETATM   22  N   UNL     1     -42.324 -48.364   9.951  1.00  0.00    -0.369 N 
ATOM     23  HN  UNL     1     -42.259 -49.374   9.821  1.00  0.00     0.165 HD
ENDBRANCH  16  17
ENDBRANCH  15  16
ENDBRANCH   3  15
TORSDOF 6
ENDMDL
MODEL 3
REMARK VINA RESULT:      -5.9      2.045      2.251
REMARK  6 active torsions:
REMARK  status: ('A' for Active; 'I' for Inactive)
REMARK    1  A    between atoms: N_2  and  C_3 
REMARK    2  A    between atoms: N_2  and  C_16 
REMARK    3  A    between atoms: C_3  and  C_4 
REMARK       I    between atoms: C_4  and  N_6 
REMARK    4  A    between atoms: N_6  and  C_7 
REMARK    5  A    between atoms: C_7  and  C_8 
REMARK    6  A    between atoms: C_8  and  C_9 
ROOT
HETATM    1  C   UNL     1     -41.320 -51.051  12.169  1.00  0.00     0.246 C 
HETATM    2  O   UNL     1     -41.483 -50.482  13.242  1.00  0.00    -0.272 OA
HETATM    3  N   UNL     1     -40.756 -50.432  11.065  1.00  0.00    -0.359 N 
HETATM    4  H   UNL     1     -40.878 -50.861  10.157  1.00  0.00     0.162 HD
ENDROOT
BRANCH   1   5
HETATM    5  C   UNL     1     -41.703 -52.523  11.929  1.00  0.00     0.374 C 
BRANCH   5   6
HETATM    6  N   UNL     1     -42.000 -53.235  13.198  1.00  0.00     0.098 N 
HETATM    7  C   UNL     1     -40.945 -54.213  13.495  1.00  0.00     0.310 C 
BRANCH   6   8
HETATM    8  C   UNL     1     -43.348 -53.850  13.194  1.00  0.00     0.237 C 
HETATM    9  C   UNL     1     -44.456 -52.841  12.797  1.00  0.00     0.051 C 
HETATM   10  C   UNL     1     -45.801 -53.250  13.396  1.00  0.00     0.142 C 
HETATM   11  S   UNL     1     -45.501 -54.662  14.424  1.00  0.00     0.146 S 
HETATM   12  O   UNL     1     -46.120 -54.461  15.717  1.00  0.00    -0.228 OA
HETATM   13  O   UNL     1     -45.729 -55.857  13.636  1.00  0.00    -0.228 OA
HETATM   14  C   UNL     1     -43.757 -54.409  14.562  1.00  0.00     0.176 C 
ENDBRANCH   6   8
ENDBRANCH   5   6
ENDBRANCH   1   5
BRANCH   3  15
HETATM   15  C   UNL     1     -40.425 -49.017  11.121  1.00  0.00     0.128 C 
BRANCH  15  16
HETATM   16  C   UNL     1     -41.558 -48.133  10.606  1.00  0.00     0.076 C 
BRANCH  16  17
HETATM   17  C   UNL     1     -41.223 -46.679  10.794  1.00  0.00     0.010 A 
HETATM   18  C   UNL     1     -42.166 -45.795  11.317  1.00  0.00     0.025 A 
HETATM   19  C   UNL     1     -41.837 -44.447  11.419  1.00  0.00     0.003 A 
HETATM   20  C   UNL     1     -40.585 -44.018  10.997  1.00  0.00     0.017 A 
HETATM   21  C   UNL     1     -39.707 -44.960  10.493  1.00  0.00     0.088 A 
HETATM   22  N   UNL     1     -39.998 -46.277  10.382  1.00  0.00    -0.369 N 
ATOM     23  HN  UNL     1     -39.322 -46.940  10.003  1.00  0.00     0.165 HD
ENDBRANCH  16  17
ENDBRANCH  15  16
ENDBRANCH   3  15
TORSDOF 6
ENDMDL
MODEL 4
REMARK VINA RESULT:      -5.8      4.143      7.762
REMARK  6 active torsions:
REMARK  status: ('A' for Active; 'I' for Inactive)
REMARK    1  A    between atoms: N_2  and  C_3 
REMARK    2  A    between atoms: N_2  and  C_16 
REMARK    3  A    between atoms: C_3  and  C_4 
REMARK       I    between atoms: C_4  and  N_6 
REMARK    4  A    between atoms: N_6  and  C_7 
REMARK    5  A    between atoms: C_7  and  C_8 
REMARK    6  A    between atoms: C_8  and  C_9 
ROOT
HETATM    1  C   UNL     1     -41.893 -50.487  12.476  1.00  0.00     0.246 C 
HETATM    2  O   UNL     1     -42.147 -50.233  13.648  1.00  0.00    -0.272 OA
HETATM    3  N   UNL     1     -42.215 -51.696  11.880  1.00  0.00    -0.359 N 
HETATM    4  H   UNL     1     -41.764 -51.939  11.008  1.00  0.00     0.162 HD
ENDROOT
BRANCH   1   5
HETATM    5  C   UNL     1     -41.204 -49.489  11.527  1.00  0.00     0.374 C 
BRANCH   5   6
HETATM    6  N   UNL     1     -41.739 -48.112  11.685  1.00  0.00     0.098 N 
HETATM    7  C   UNL     1     -42.995 -47.962  10.938  1.00  0.00     0.310 C 
BRANCH   6   8
HETATM    8  C   UNL     1     -40.743 -47.079  11.318  1.00  0.00     0.237 C 
HETATM    9  C   UNL     1     -40.061 -46.449  12.560  1.00  0.00     0.051 C 
HETATM   10  C   UNL     1     -39.573 -45.034  12.250  1.00  0.00     0.142 C 
HETATM   11  S   UNL     1     -40.118 -44.646  10.610  1.00  0.00     0.146 S 
HETATM   12  O   UNL     1     -40.759 -43.348  10.605  1.00  0.00    -0.228 OA
HETATM   13  O   UNL     1     -39.056 -44.987   9.683  1.00  0.00    -0.228 OA
HETATM   14  C   UNL     1     -41.351 -45.911  10.532  1.00  0.00     0.176 C 
ENDBRANCH   6   8
ENDBRANCH   5   6
ENDBRANCH   1   5
BRANCH   3  15
HETATM   15  C   UNL     1     -42.790 -52.765  12.680  1.00  0.00     0.128 C 
BRANCH  15  16
HETATM   16  C   UNL     1     -44.168 -53.190  12.180  1.00  0.00     0.076 C 
BRANCH  16  17
HETATM   17  C   UNL     1     -45.223 -52.884  13.208  1.00  0.00     0.010 A 
HETATM   18  C   UNL     1     -45.503 -51.567  13.568  1.00  0.00     0.025 A 
HETATM   19  C   UNL     1     -46.444 -51.330  14.565  1.00  0.00     0.003 A 
HETATM   20  C   UNL     1     -47.076 -52.406  15.175  1.00  0.00     0.017 A 
HETATM   21  C   UNL     1     -46.742 -53.682  14.757  1.00  0.00     0.088 A 
HETATM   22  N   UNL     1     -45.833 -53.944  13.791  1.00  0.00    -0.369 N 
ATOM     23  HN  UNL     1     -45.614 -54.900  13.512  1.00  0.00     0.165 HD
ENDBRANCH  16  17
ENDBRANCH  15  16
ENDBRANCH   3  15
TORSDOF 6
ENDMDL
MODEL 5
REMARK VINA RESULT:      -5.7      3.748      6.795
REMARK  6 active torsions:
REMARK  status: ('A' for Active; 'I' for Inactive)
REMARK    1  A    between atoms: N_2  and  C_3 
REMARK    2  A    between atoms: N_2  and  C_16 
REMARK    3  A    between atoms: C_3  and  C_4 
REMARK       I    between atoms: C_4  and  N_6 
REMARK    4  A    between atoms: N_6  and  C_7 
REMARK    5  A    between atoms: C_7  and  C_8 
REMARK    6  A    between atoms: C_8  and  C_9 
ROOT
HETATM    1  C   UNL     1     -42.532 -53.467  14.764  1.00  0.00     0.246 C 
HETATM    2  O   UNL     1     -43.132 -52.988  15.720  1.00  0.00    -0.272 OA
HETATM    3  N   UNL     1     -42.951 -54.613  14.109  1.00  0.00    -0.359 N 
HETATM    4  H   UNL     1     -42.294 -55.093  13.507  1.00  0.00     0.162 HD
ENDROOT
BRANCH   1   5
HETATM    5  C   UNL     1     -41.256 -52.842  14.170  1.00  0.00     0.374 C 
BRANCH   5   6
HETATM    6  N   UNL     1     -41.444 -51.406  13.837  1.00  0.00     0.098 N 
HETATM    7  C   UNL     1     -42.384 -51.259  12.718  1.00  0.00     0.310 C 
BRANCH   6   8
HETATM    8  C   UNL     1     -40.157 -50.717  13.582  1.00  0.00     0.237 C 
HETATM    9  C   UNL     1     -40.114 -50.046  12.185  1.00  0.00     0.051 C 
HETATM   10  C   UNL     1     -38.674 -49.927  11.686  1.00  0.00     0.142 C 
HETATM   11  S   UNL     1     -37.645 -50.740  12.877  1.00  0.00     0.146 S 
HETATM   12  O   UNL     1     -36.744 -51.649  12.200  1.00  0.00    -0.228 OA
HETATM   13  O   UNL     1     -37.175 -49.751  13.826  1.00  0.00    -0.228 OA
HETATM   14  C   UNL     1     -38.950 -51.662  13.635  1.00  0.00     0.176 C 
ENDBRANCH   6   8
ENDBRANCH   5   6
ENDBRANCH   1   5
BRANCH   3  15
HETATM   15  C   UNL     1     -44.092 -55.359  14.615  1.00  0.00     0.128 C 
BRANCH  15  16
HETATM   16  C   UNL     1     -45.355 -55.122  13.792  1.00  0.00     0.076 C 
BRANCH  16  17
HETATM   17  C   UNL     1     -45.938 -53.768  14.092  1.00  0.00     0.010 A 
HETATM   18  C   UNL     1     -46.033 -52.799  13.095  1.00  0.00     0.025 A 
HETATM   19  C   UNL     1     -46.523 -51.540  13.427  1.00  0.00     0.003 A 
HETATM   20  C   UNL     1     -46.901 -51.281  14.739  1.00  0.00     0.017 A 
HETATM   21  C   UNL     1     -46.777 -52.299  15.668  1.00  0.00     0.088 A 
HETATM   22  N   UNL     1     -46.305 -53.532  15.374  1.00  0.00    -0.369 N 
ATOM     23  HN  UNL     1     -46.229 -54.255  16.089  1.00  0.00     0.165 HD
ENDBRANCH  16  17
ENDBRANCH  15  16
ENDBRANCH   3  15
TORSDOF 6
ENDMDL
MODEL 6
REMARK VINA RESULT:      -5.6      4.119      6.159
REMARK  6 active torsions:
REMARK  status: ('A' for Active; 'I' for Inactive)
REMARK    1  A    between atoms: N_2  and  C_3 
REMARK    2  A    between atoms: N_2  and  C_16 
REMARK    3  A    between atoms: C_3  and  C_4 
REMARK       I    between atoms: C_4  and  N_6 
REMARK    4  A    between atoms: N_6  and  C_7 
REMARK    5  A    between atoms: C_7  and  C_8 
REMARK    6  A    between atoms: C_8  and  C_9 
ROOT
HETATM    1  C   UNL     1     -42.148 -52.266  12.662  1.00  0.00     0.246 C 
HETATM    2  O   UNL     1     -42.742 -51.265  13.045  1.00  0.00    -0.272 OA
HETATM    3  N   UNL     1     -42.799 -53.419  12.256  1.00  0.00    -0.359 N 
HETATM    4  H   UNL     1     -42.267 -54.278  12.196  1.00  0.00     0.162 HD
ENDROOT
BRANCH   1   5
HETATM    5  C   UNL     1     -40.613 -52.352  12.568  1.00  0.00     0.374 C 
BRANCH   5   6
HETATM    6  N   UNL     1     -39.955 -51.954  13.839  1.00  0.00     0.098 N 
HETATM    7  C   UNL     1     -38.587 -51.486  13.582  1.00  0.00     0.310 C 
BRANCH   6   8
HETATM    8  C   UNL     1     -39.996 -53.033  14.853  1.00  0.00     0.237 C 
HETATM    9  C   UNL     1     -39.320 -52.618  16.185  1.00  0.00     0.051 C 
HETATM   10  C   UNL     1     -38.800 -53.845  16.934  1.00  0.00     0.142 C 
HETATM   11  S   UNL     1     -39.075 -55.246  15.885  1.00  0.00     0.146 S 
HETATM   12  O   UNL     1     -37.861 -56.030  15.795  1.00  0.00    -0.228 OA
HETATM   13  O   UNL     1     -40.351 -55.836  16.236  1.00  0.00    -0.228 OA
HETATM   14  C   UNL     1     -39.283 -54.312  14.398  1.00  0.00     0.176 C 
ENDBRANCH   6   8
ENDBRANCH   5   6
ENDBRANCH   1   5
BRANCH   3  15
HETATM   15  C   UNL     1     -44.245 -53.512  12.374  1.00  0.00     0.128 C 
BRANCH  15  16
HETATM   16  C   UNL     1     -44.683 -54.211  13.657  1.00  0.00     0.076 C 
BRANCH  16  17
HETATM   17  C   UNL     1     -45.534 -53.298  14.496  1.00  0.00     0.010 A 
HETATM   18  C   UNL     1     -46.183 -52.206  13.922  1.00  0.00     0.025 A 
HETATM   19  C   UNL     1     -46.913 -51.352  14.743  1.00  0.00     0.003 A 
HETATM   20  C   UNL     1     -46.973 -51.606  16.107  1.00  0.00     0.017 A 
HETATM   21  C   UNL     1     -46.303 -52.713  16.596  1.00  0.00     0.088 A 
HETATM   22  N   UNL     1     -45.587 -53.561  15.823  1.00  0.00    -0.369 N 
ATOM     23  HN  UNL     1     -45.105 -54.366  16.224  1.00  0.00     0.165 HD
ENDBRANCH  16  17
ENDBRANCH  15  16
ENDBRANCH   3  15
TORSDOF 6
ENDMDL
MODEL 7
REMARK VINA RESULT:      -5.5      4.323      7.828
REMARK  6 active torsions:
REMARK  status: ('A' for Active; 'I' for Inactive)
REMARK    1  A    between atoms: N_2  and  C_3 
REMARK    2  A    between atoms: N_2  and  C_16 
REMARK    3  A    between atoms: C_3  and  C_4 
REMARK       I    between atoms: C_4  and  N_6 
REMARK    4  A    between atoms: N_6  and  C_7 
REMARK    5  A    between atoms: C_7  and  C_8 
REMARK    6  A    between atoms: C_8  and  C_9 
ROOT
HETATM    1  C   UNL     1     -41.849 -49.203  11.764  1.00  0.00     0.246 C 
HETATM    2  O   UNL     1     -42.482 -49.099  12.809  1.00  0.00    -0.272 OA
HETATM    3  N   UNL     1     -41.014 -50.273  11.491  1.00  0.00    -0.359 N 
HETATM    4  H   UNL     1     -40.339 -50.180  10.743  1.00  0.00     0.162 HD
ENDROOT
BRANCH   1   5
HETATM    5  C   UNL     1     -41.925 -48.167  10.627  1.00  0.00     0.374 C 
BRANCH   5   6
HETATM    6  N   UNL     1     -40.830 -47.166  10.712  1.00  0.00     0.098 N 
HETATM    7  C   UNL     1     -40.091 -47.322  11.972  1.00  0.00     0.310 C 
BRANCH   6   8
HETATM    8  C   UNL     1     -41.318 -45.782  10.517  1.00  0.00     0.237 C 
HETATM    9  C   UNL     1     -40.195 -44.728  10.692  1.00  0.00     0.051 C 
HETATM   10  C   UNL     1     -40.776 -43.384  11.127  1.00  0.00     0.142 C 
HETATM   11  S   UNL     1     -42.512 -43.629  11.382  1.00  0.00     0.146 S 
HETATM   12  O   UNL     1     -42.897 -43.075  12.663  1.00  0.00    -0.228 OA
HETATM   13  O   UNL     1     -43.206 -43.292  10.155  1.00  0.00    -0.228 OA
HETATM   14  C   UNL     1     -42.423 -45.390  11.507  1.00  0.00     0.176 C 
ENDBRANCH   6   8
ENDBRANCH   5   6
ENDBRANCH   1   5
BRANCH   3  15
HETATM   15  C   UNL     1     -40.778 -51.284  12.510  1.00  0.00     0.128 C 
BRANCH  15  16
HETATM   16  C   UNL     1     -41.065 -52.696  12.007  1.00  0.00     0.076 C 
BRANCH  16  17
HETATM   17  C   UNL     1     -42.323 -53.236  12.630  1.00  0.00     0.010 A 
HETATM   18  C   UNL     1     -42.261 -54.104  13.719  1.00  0.00     0.025 A 
HETATM   19  C   UNL     1     -43.445 -54.627  14.228  1.00  0.00     0.003 A 
HETATM   20  C   UNL     1     -44.653 -54.276  13.639  1.00  0.00     0.017 A 
HETATM   21  C   UNL     1     -44.628 -53.407  12.563  1.00  0.00     0.088 A 
HETATM   22  N   UNL     1     -43.493 -52.882  12.047  1.00  0.00    -0.369 N 
ATOM     23  HN  UNL     1     -43.517 -52.244  11.251  1.00  0.00     0.165 HD
ENDBRANCH  16  17
ENDBRANCH  15  16
ENDBRANCH   3  15
TORSDOF 6
ENDMDL
MODEL 8
REMARK VINA RESULT:      -5.5      3.693      7.290
REMARK  6 active torsions:
REMARK  status: ('A' for Active; 'I' for Inactive)
REMARK    1  A    between atoms: N_2  and  C_3 
REMARK    2  A    between atoms: N_2  and  C_16 
REMARK    3  A    between atoms: C_3  and  C_4 
REMARK       I    between atoms: C_4  and  N_6 
REMARK    4  A    between atoms: N_6  and  C_7 
REMARK    5  A    between atoms: C_7  and  C_8 
REMARK    6  A    between atoms: C_8  and  C_9 
ROOT
HETATM    1  C   UNL     1     -43.625 -50.356  13.641  1.00  0.00     0.246 C 
HETATM    2  O   UNL     1     -43.402 -50.715  14.791  1.00  0.00    -0.272 OA
HETATM    3  N   UNL     1     -44.440 -51.066  12.774  1.00  0.00    -0.359 N 
HETATM    4  H   UNL     1     -44.383 -50.864  11.784  1.00  0.00     0.162 HD
ENDROOT
BRANCH   1   5
HETATM    5  C   UNL     1     -43.041 -49.068  13.032  1.00  0.00     0.374 C 
BRANCH   5   6
HETATM    6  N   UNL     1     -42.228 -49.344  11.819  1.00  0.00     0.098 N 
HETATM    7  C   UNL     1     -40.946 -49.957  12.191  1.00  0.00     0.310 C 
BRANCH   6   8
HETATM    8  C   UNL     1     -42.049 -48.138  10.977  1.00  0.00     0.237 C 
HETATM    9  C   UNL     1     -40.621 -47.546  11.090  1.00  0.00     0.051 C 
HETATM   10  C   UNL     1     -40.629 -46.049  10.784  1.00  0.00     0.142 C 
HETATM   11  S   UNL     1     -42.321 -45.578  10.552  1.00  0.00     0.146 S 
HETATM   12  O   UNL     1     -42.610 -44.400  11.342  1.00  0.00    -0.228 OA
HETATM   13  O   UNL     1     -42.627 -45.654   9.138  1.00  0.00    -0.228 OA
HETATM   14  C   UNL     1     -43.008 -47.000  11.347  1.00  0.00     0.176 C 
ENDBRANCH   6   8
ENDBRANCH   5   6
ENDBRANCH   1   5
BRANCH   3  15
HETATM   15  C   UNL     1     -44.989 -52.347  13.186  1.00  0.00     0.128 C 
BRANCH  15  16
HETATM   16  C   UNL     1     -44.317 -53.523  12.483  1.00  0.00     0.076 C 
BRANCH  16  17
HETATM   17  C   UNL     1     -42.993 -53.838  13.124  1.00  0.00     0.010 A 
HETATM   18  C   UNL     1     -42.935 -54.364  14.413  1.00  0.00     0.025 A 
HETATM   19  C   UNL     1     -41.690 -54.585  14.992  1.00  0.00     0.003 A 
HETATM   20  C   UNL     1     -40.541 -54.276  14.275  1.00  0.00     0.017 A 
HETATM   21  C   UNL     1     -40.686 -53.761  12.999  1.00  0.00     0.088 A 
HETATM   22  N   UNL     1     -41.883 -53.535  12.410  1.00  0.00    -0.369 N 
ATOM     23  HN  UNL     1     -41.947 -53.152  11.468  1.00  0.00     0.165 HD
ENDBRANCH  16  17
ENDBRANCH  15  16
ENDBRANCH   3  15
TORSDOF 6
ENDMDL
MODEL 9
REMARK VINA RESULT:      -5.5      4.158      7.443
REMARK  6 active torsions:
REMARK  status: ('A' for Active; 'I' for Inactive)
REMARK    1  A    between atoms: N_2  and  C_3 
REMARK    2  A    between atoms: N_2  and  C_16 
REMARK    3  A    between atoms: C_3  and  C_4 
REMARK       I    between atoms: C_4  and  N_6 
REMARK    4  A    between atoms: N_6  and  C_7 
REMARK    5  A    between atoms: C_7  and  C_8 
REMARK    6  A    between atoms: C_8  and  C_9 
ROOT
HETATM    1  C   UNL     1     -39.729 -50.693  12.665  1.00  0.00     0.246 C 
HETATM    2  O   UNL     1     -38.645 -51.066  12.230  1.00  0.00    -0.272 OA
HETATM    3  N   UNL     1     -40.510 -51.468  13.507  1.00  0.00    -0.359 N 
HETATM    4  H   UNL     1     -41.484 -51.221  13.624  1.00  0.00     0.162 HD
ENDROOT
BRANCH   1   5
HETATM    5  C   UNL     1     -40.339 -49.317  12.342  1.00  0.00     0.374 C 
BRANCH   5   6
HETATM    6  N   UNL     1     -39.522 -48.204  12.891  1.00  0.00     0.098 N 
HETATM    7  C   UNL     1     -39.744 -48.072  14.337  1.00  0.00     0.310 C 
BRANCH   6   8
HETATM    8  C   UNL     1     -39.753 -46.930  12.171  1.00  0.00     0.237 C 
HETATM    9  C   UNL     1     -40.447 -45.866  13.059  1.00  0.00     0.051 C 
HETATM   10  C   UNL     1     -41.233 -44.875  12.203  1.00  0.00     0.142 C 
HETATM   11  S   UNL     1     -41.131 -45.443  10.528  1.00  0.00     0.146 S 
HETATM   12  O   UNL     1     -42.453 -45.462   9.940  1.00  0.00    -0.228 OA
HETATM   13  O   UNL     1     -40.010 -44.781   9.889  1.00  0.00    -0.228 OA
HETATM   14  C   UNL     1     -40.645 -47.094  10.934  1.00  0.00     0.176 C 
ENDBRANCH   6   8
ENDBRANCH   5   6
ENDBRANCH   1   5
BRANCH   3  15
HETATM   15  C   UNL     1     -40.099 -52.826  13.826  1.00  0.00     0.128 C 
BRANCH  15  16
HETATM   16  C   UNL     1     -40.739 -53.860  12.905  1.00  0.00     0.076 C 
BRANCH  16  17
HETATM   17  C   UNL     1     -42.190 -54.055  13.250  1.00  0.00     0.010 A 
HETATM   18  C   UNL     1     -42.560 -54.666  14.446  1.00  0.00     0.025 A 
HETATM   19  C   UNL     1     -43.911 -54.881  14.700  1.00  0.00     0.003 A 
HETATM   20  C   UNL     1     -44.852 -54.484  13.759  1.00  0.00     0.017 A 
HETATM   21  C   UNL     1     -44.401 -53.881  12.598  1.00  0.00     0.088 A 
HETATM   22  N   UNL     1     -43.095 -53.659  12.324  1.00  0.00    -0.369 N 
ATOM     23  HN  UNL     1     -42.804 -53.212  11.455  1.00  0.00     0.165 HD
ENDBRANCH  16  17
ENDBRANCH  15  16
ENDBRANCH   3  15
TORSDOF 6
ENDMDL
