MODEL 1
REMARK VINA RESULT:      -5.5      0.000      0.000
REMARK  2 active torsions:
REMARK  status: ('A' for Active; 'I' for Inactive)
REMARK       I    between atoms: N_2  and  C_3 
REMARK    1  A    between atoms: C_3  and  C_5 
REMARK    2  A    between atoms: N_7  and  C_11 
ROOT
HETATM    1  C   UNL     1     -39.703 -44.107  11.160  1.00  0.00     0.231 C 
HETATM    2  C   UNL     1     -39.845 -45.374  10.305  1.00  0.00     0.183 C 
HETATM    3  N   UNL     1     -40.640 -46.407  10.974  1.00  0.00    -0.213 N 
HETATM    4  C   UNL     1     -40.336 -46.644  12.378  1.00  0.00     0.167 C 
HETATM    5  C   UNL     1     -40.199 -45.321  13.144  1.00  0.00     0.189 C 
HETATM    6  O   UNL     1     -39.291 -44.402  12.507  1.00  0.00    -0.373 OA
ENDROOT
BRANCH   3   7
HETATM    7  C   UNL     1     -41.884 -46.698  10.455  1.00  0.00     0.680 A 
HETATM    8  N   UNL     1     -42.727 -47.418  11.212  1.00  0.00    -0.201 N 
HETATM    9  C   UNL     1     -43.952 -47.688  10.723  1.00  0.00     0.114 A 
ATOM     10  HN  UNL     1     -42.447 -47.751  12.134  1.00  0.00     0.183 HD
HETATM   11  C   UNL     1     -44.394 -47.248   9.499  1.00  0.00    -0.030 A 
HETATM   12  C   UNL     1     -45.747 -47.566   8.967  1.00  0.00     0.051 C 
HETATM   13  C   UNL     1     -43.471 -46.508   8.799  1.00  0.00     0.114 A 
HETATM   14  N   UNL     1     -42.233 -46.213   9.252  1.00  0.00    -0.201 N 
ATOM     15  HN  UNL     1     -41.589 -45.645   8.702  1.00  0.00     0.183 HD
ENDBRANCH   3   7
BRANCH   1  16
HETATM   16  C   UNL     1     -40.934 -43.179  11.092  1.00  0.00     0.247 C 
HETATM   17  N   UNL     1     -40.640 -41.869  11.437  1.00  0.00    -0.363 N 
HETATM   18  C   UNL     1     -41.685 -40.884  11.516  1.00  0.00     0.149 C 
HETATM   19  H   UNL     1     -39.752 -41.702  11.901  1.00  0.00     0.162 HD
HETATM   20  O   UNL     1     -42.051 -43.525  10.722  1.00  0.00    -0.271 OA
ENDBRANCH   1  16
TORSDOF 2
ENDMDL
MODEL 2
REMARK VINA RESULT:      -5.3      8.906     10.571
REMARK  2 active torsions:
REMARK  status: ('A' for Active; 'I' for Inactive)
REMARK       I    between atoms: N_2  and  C_3 
REMARK    1  A    between atoms: C_3  and  C_5 
REMARK    2  A    between atoms: N_7  and  C_11 
ROOT
HETATM    1  C   UNL     1     -46.399 -54.297  14.927  1.00  0.00     0.231 C 
HETATM    2  C   UNL     1     -45.498 -54.994  13.899  1.00  0.00     0.183 C 
HETATM    3  N   UNL     1     -44.677 -54.043  13.146  1.00  0.00    -0.213 N 
HETATM    4  C   UNL     1     -45.357 -52.851  12.659  1.00  0.00     0.167 C 
HETATM    5  C   UNL     1     -46.242 -52.236  13.751  1.00  0.00     0.189 C 
HETATM    6  O   UNL     1     -47.129 -53.197  14.354  1.00  0.00    -0.373 OA
ENDROOT
BRANCH   3   7
HETATM    7  C   UNL     1     -43.317 -54.042  13.376  1.00  0.00     0.680 A 
HETATM    8  N   UNL     1     -42.867 -54.658  14.481  1.00  0.00    -0.201 N 
HETATM    9  C   UNL     1     -41.540 -54.681  14.704  1.00  0.00     0.114 A 
ATOM     10  HN  UNL     1     -43.515 -55.097  15.136  1.00  0.00     0.183 HD
HETATM   11  C   UNL     1     -40.618 -54.128  13.850  1.00  0.00    -0.030 A 
HETATM   12  C   UNL     1     -39.154 -54.151  14.117  1.00  0.00     0.051 C 
HETATM   13  C   UNL     1     -41.166 -53.531  12.739  1.00  0.00     0.114 A 
HETATM   14  N   UNL     1     -42.490 -53.485  12.476  1.00  0.00    -0.201 N 
ATOM     15  HN  UNL     1     -42.847 -53.046  11.629  1.00  0.00     0.183 HD
ENDBRANCH   3   7
BRANCH   1  16
HETATM   16  C   UNL     1     -45.666 -53.923  16.233  1.00  0.00     0.247 C 
HETATM   17  N   UNL     1     -46.320 -52.935  16.952  1.00  0.00    -0.363 N 
HETATM   18  C   UNL     1     -45.733 -52.399  18.152  1.00  0.00     0.149 C 
HETATM   19  H   UNL     1     -47.046 -52.416  16.469  1.00  0.00     0.162 HD
HETATM   20  O   UNL     1     -44.645 -54.466  16.641  1.00  0.00    -0.271 OA
ENDBRANCH   1  16
TORSDOF 2
ENDMDL
MODEL 3
REMARK VINA RESULT:      -5.1      6.661      8.025
REMARK  2 active torsions:
REMARK  status: ('A' for Active; 'I' for Inactive)
REMARK       I    between atoms: N_2  and  C_3 
REMARK    1  A    between atoms: C_3  and  C_5 
REMARK    2  A    between atoms: N_7  and  C_11 
ROOT
HETATM    1  C   UNL     1     -40.082 -51.534  12.537  1.00  0.00     0.231 C 
HETATM    2  C   UNL     1     -40.838 -52.695  11.877  1.00  0.00     0.183 C 
HETATM    3  N   UNL     1     -41.076 -53.803  12.806  1.00  0.00    -0.213 N 
HETATM    4  C   UNL     1     -39.948 -54.197  13.638  1.00  0.00     0.167 C 
HETATM    5  C   UNL     1     -39.251 -52.970  14.241  1.00  0.00     0.189 C 
HETATM    6  O   UNL     1     -38.914 -51.980  13.251  1.00  0.00    -0.373 OA
ENDROOT
BRANCH   3   7
HETATM    7  C   UNL     1     -42.374 -54.038  13.208  1.00  0.00     0.680 A 
HETATM    8  N   UNL     1     -42.566 -54.674  14.374  1.00  0.00    -0.201 N 
HETATM    9  C   UNL     1     -43.829 -54.889  14.784  1.00  0.00     0.114 A 
ATOM     10  HN  UNL     1     -41.773 -54.986  14.936  1.00  0.00     0.183 HD
HETATM   11  C   UNL     1     -44.935 -54.472  14.084  1.00  0.00    -0.030 A 
HETATM   12  C   UNL     1     -46.326 -54.729  14.545  1.00  0.00     0.051 C 
HETATM   13  C   UNL     1     -44.645 -53.819  12.910  1.00  0.00     0.114 A 
HETATM   14  N   UNL     1     -43.394 -53.582  12.461  1.00  0.00    -0.201 N 
ATOM     15  HN  UNL     1     -43.229 -53.077  11.591  1.00  0.00     0.183 HD
ENDBRANCH   3   7
BRANCH   1  16
HETATM   16  C   UNL     1     -40.989 -50.610  13.377  1.00  0.00     0.247 C 
HETATM   17  N   UNL     1     -40.293 -49.572  13.974  1.00  0.00    -0.363 N 
HETATM   18  C   UNL     1     -40.963 -48.663  14.867  1.00  0.00     0.149 C 
HETATM   19  H   UNL     1     -39.281 -49.646  13.996  1.00  0.00     0.162 HD
HETATM   20  O   UNL     1     -42.206 -50.728  13.476  1.00  0.00    -0.271 OA
ENDBRANCH   1  16
TORSDOF 2
ENDMDL
MODEL 4
REMARK VINA RESULT:      -4.9      3.978      5.712
REMARK  2 active torsions:
REMARK  status: ('A' for Active; 'I' for Inactive)
REMARK       I    between atoms: N_2  and  C_3 
REMARK    1  A    between atoms: C_3  and  C_5 
REMARK    2  A    between atoms: N_7  and  C_11 
ROOT
HETATM    1  C   UNL     1     -37.887 -50.478  12.808  1.00  0.00     0.231 C 
HETATM    2  C   UNL     1     -38.440 -50.157  11.413  1.00  0.00     0.183 C 
HETATM    3  N   UNL     1     -39.902 -50.235  11.363  1.00  0.00    -0.213 N 
HETATM    4  C   UNL     1     -40.507 -51.388  12.013  1.00  0.00     0.167 C 
HETATM    5  C   UNL     1     -39.881 -51.636  13.393  1.00  0.00     0.189 C 
HETATM    6  O   UNL     1     -38.442 -51.691  13.348  1.00  0.00    -0.373 OA
ENDROOT
BRANCH   3   7
HETATM    7  C   UNL     1     -40.603 -49.058  11.203  1.00  0.00     0.680 A 
HETATM    8  N   UNL     1     -39.904 -47.915  11.122  1.00  0.00    -0.201 N 
HETATM    9  C   UNL     1     -40.578 -46.764  10.944  1.00  0.00     0.114 A 
ATOM     10  HN  UNL     1     -38.886 -47.919  11.193  1.00  0.00     0.183 HD
HETATM   11  C   UNL     1     -41.944 -46.698  10.819  1.00  0.00    -0.030 A 
HETATM   12  C   UNL     1     -42.677 -45.416  10.635  1.00  0.00     0.051 C 
HETATM   13  C   UNL     1     -42.577 -47.916  10.901  1.00  0.00     0.114 A 
HETATM   14  N   UNL     1     -41.940 -49.093  11.078  1.00  0.00    -0.201 N 
ATOM     15  HN  UNL     1     -42.453 -49.973  11.115  1.00  0.00     0.183 HD
ENDBRANCH   3   7
BRANCH   1  16
HETATM   16  C   UNL     1     -37.966 -49.288  13.788  1.00  0.00     0.247 C 
HETATM   17  N   UNL     1     -37.541 -49.615  15.066  1.00  0.00    -0.363 N 
HETATM   18  C   UNL     1     -37.630 -48.652  16.132  1.00  0.00     0.149 C 
HETATM   19  H   UNL     1     -37.449 -50.602  15.284  1.00  0.00     0.162 HD
HETATM   20  O   UNL     1     -38.309 -48.151  13.481  1.00  0.00    -0.271 OA
ENDBRANCH   1  16
TORSDOF 2
ENDMDL
MODEL 5
REMARK VINA RESULT:      -4.9      4.271      5.568
REMARK  2 active torsions:
REMARK  status: ('A' for Active; 'I' for Inactive)
REMARK       I    between atoms: N_2  and  C_3 
REMARK    1  A    between atoms: C_3  and  C_5 
REMARK    2  A    between atoms: N_7  and  C_11 
ROOT
HETATM    1  C   UNL     1     -40.377 -49.627  11.422  1.00  0.00     0.231 C 
HETATM    2  C   UNL     1     -40.898 -50.995  11.883  1.00  0.00     0.183 C 
HETATM    3  N   UNL     1     -41.263 -51.001  13.302  1.00  0.00    -0.213 N 
HETATM    4  C   UNL     1     -40.322 -50.363  14.211  1.00  0.00     0.167 C 
HETATM    5  C   UNL     1     -39.850 -49.012  13.658  1.00  0.00     0.189 C 
HETATM    6  O   UNL     1     -39.368 -49.103  12.304  1.00  0.00    -0.373 OA
ENDROOT
BRANCH   3   7
HETATM    7  C   UNL     1     -42.601 -51.107  13.621  1.00  0.00     0.680 A 
HETATM    8  N   UNL     1     -42.978 -50.773  14.865  1.00  0.00    -0.201 N 
HETATM    9  C   UNL     1     -44.285 -50.853  15.180  1.00  0.00     0.114 A 
ATOM     10  HN  UNL     1     -42.292 -50.466  15.555  1.00  0.00     0.183 HD
HETATM   11  C   UNL     1     -45.257 -51.237  14.289  1.00  0.00    -0.030 A 
HETATM   12  C   UNL     1     -46.695 -51.333  14.656  1.00  0.00     0.051 C 
HETATM   13  C   UNL     1     -44.782 -51.548  13.037  1.00  0.00     0.114 A 
HETATM   14  N   UNL     1     -43.482 -51.481  12.678  1.00  0.00    -0.201 N 
ATOM     15  HN  UNL     1     -43.181 -51.705  11.730  1.00  0.00     0.183 HD
ENDBRANCH   3   7
BRANCH   1  16
HETATM   16  C   UNL     1     -41.501 -48.614  11.118  1.00  0.00     0.247 C 
HETATM   17  N   UNL     1     -41.036 -47.467  10.495  1.00  0.00    -0.363 N 
HETATM   18  C   UNL     1     -41.930 -46.374  10.217  1.00  0.00     0.149 C 
HETATM   19  H   UNL     1     -40.033 -47.307  10.510  1.00  0.00     0.162 HD
HETATM   20  O   UNL     1     -42.692 -48.803  11.341  1.00  0.00    -0.271 OA
ENDBRANCH   1  16
TORSDOF 2
ENDMDL
MODEL 6
REMARK VINA RESULT:      -4.8      5.415      7.060
REMARK  2 active torsions:
REMARK  status: ('A' for Active; 'I' for Inactive)
REMARK       I    between atoms: N_2  and  C_3 
REMARK    1  A    between atoms: C_3  and  C_5 
REMARK    2  A    between atoms: N_7  and  C_11 
ROOT
HETATM    1  C   UNL     1     -40.431 -51.307  11.884  1.00  0.00     0.231 C 
HETATM    2  C   UNL     1     -41.541 -52.366  11.867  1.00  0.00     0.183 C 
HETATM    3  N   UNL     1     -41.913 -52.801  13.216  1.00  0.00    -0.213 N 
HETATM    4  C   UNL     1     -40.813 -53.079  14.128  1.00  0.00     0.167 C 
HETATM    5  C   UNL     1     -39.750 -51.974  14.063  1.00  0.00     0.189 C 
HETATM    6  O   UNL     1     -39.322 -51.693  12.716  1.00  0.00    -0.373 OA
ENDROOT
BRANCH   3   7
HETATM    7  C   UNL     1     -43.157 -52.438  13.689  1.00  0.00     0.680 A 
HETATM    8  N   UNL     1     -44.065 -52.004  12.801  1.00  0.00    -0.201 N 
HETATM    9  C   UNL     1     -45.288 -51.668  13.251  1.00  0.00     0.114 A 
ATOM     10  HN  UNL     1     -43.834 -51.932  11.810  1.00  0.00     0.183 HD
HETATM   11  C   UNL     1     -45.665 -51.765  14.568  1.00  0.00    -0.030 A 
HETATM   12  C   UNL     1     -47.017 -51.376  15.052  1.00  0.00     0.051 C 
HETATM   13  C   UNL     1     -44.677 -52.229  15.404  1.00  0.00     0.114 A 
HETATM   14  N   UNL     1     -43.438 -52.578  14.995  1.00  0.00    -0.201 N 
ATOM     15  HN  UNL     1     -42.744 -52.934  15.652  1.00  0.00     0.183 HD
ENDBRANCH   3   7
BRANCH   1  16
HETATM   16  C   UNL     1     -40.945 -49.882  12.182  1.00  0.00     0.247 C 
HETATM   17  N   UNL     1     -42.092 -49.565  11.472  1.00  0.00    -0.363 N 
HETATM   18  C   UNL     1     -42.661 -48.246  11.558  1.00  0.00     0.149 C 
HETATM   19  H   UNL     1     -42.337 -50.171  10.695  1.00  0.00     0.162 HD
HETATM   20  O   UNL     1     -40.444 -49.115  12.997  1.00  0.00    -0.271 OA
ENDBRANCH   1  16
TORSDOF 2
ENDMDL
MODEL 7
REMARK VINA RESULT:      -4.7      7.780      9.934
REMARK  2 active torsions:
REMARK  status: ('A' for Active; 'I' for Inactive)
REMARK       I    between atoms: N_2  and  C_3 
REMARK    1  A    between atoms: C_3  and  C_5 
REMARK    2  A    between atoms: N_7  and  C_11 
ROOT
HETATM    1  C   UNL     1     -45.063 -53.004  12.562  1.00  0.00     0.231 C 
HETATM    2  C   UNL     1     -46.361 -52.529  13.230  1.00  0.00     0.183 C 
HETATM    3  N   UNL     1     -46.569 -53.150  14.541  1.00  0.00    -0.213 N 
HETATM    4  C   UNL     1     -46.326 -54.583  14.620  1.00  0.00     0.167 C 
HETATM    5  C   UNL     1     -45.016 -54.960  13.914  1.00  0.00     0.189 C 
HETATM    6  O   UNL     1     -44.936 -54.437  12.574  1.00  0.00    -0.373 OA
ENDROOT
BRANCH   3   7
HETATM    7  C   UNL     1     -46.463 -52.347  15.657  1.00  0.00     0.680 A 
HETATM    8  N   UNL     1     -45.275 -52.288  16.278  1.00  0.00    -0.201 N 
HETATM    9  C   UNL     1     -45.156 -51.490  17.356  1.00  0.00     0.114 A 
ATOM     10  HN  UNL     1     -44.481 -52.834  15.941  1.00  0.00     0.183 HD
HETATM   11  C   UNL     1     -46.180 -50.716  17.842  1.00  0.00    -0.030 A 
HETATM   12  C   UNL     1     -46.036 -49.849  19.043  1.00  0.00     0.051 C 
HETATM   13  C   UNL     1     -47.355 -50.829  17.138  1.00  0.00     0.114 A 
HETATM   14  N   UNL     1     -47.518 -51.615  16.052  1.00  0.00    -0.201 N 
ATOM     15  HN  UNL     1     -48.406 -51.652  15.553  1.00  0.00     0.183 HD
ENDBRANCH   3   7
BRANCH   1  16
HETATM   16  C   UNL     1     -43.804 -52.280  13.085  1.00  0.00     0.247 C 
HETATM   17  N   UNL     1     -42.632 -52.775  12.535  1.00  0.00    -0.363 N 
HETATM   18  C   UNL     1     -41.354 -52.280  12.974  1.00  0.00     0.149 C 
HETATM   19  H   UNL     1     -42.689 -53.666  12.051  1.00  0.00     0.162 HD
HETATM   20  O   UNL     1     -43.815 -51.330  13.861  1.00  0.00    -0.271 OA
ENDBRANCH   1  16
TORSDOF 2
ENDMDL
MODEL 8
REMARK VINA RESULT:      -4.7      6.475      8.962
REMARK  2 active torsions:
REMARK  status: ('A' for Active; 'I' for Inactive)
REMARK       I    between atoms: N_2  and  C_3 
REMARK    1  A    between atoms: C_3  and  C_5 
REMARK    2  A    between atoms: N_7  and  C_11 
ROOT
HETATM    1  C   UNL     1     -43.540 -53.835  13.698  1.00  0.00     0.231 C 
HETATM    2  C   UNL     1     -43.398 -52.887  12.500  1.00  0.00     0.183 C 
HETATM    3  N   UNL     1     -43.056 -51.523  12.910  1.00  0.00    -0.213 N 
HETATM    4  C   UNL     1     -43.804 -50.983  14.037  1.00  0.00     0.167 C 
HETATM    5  C   UNL     1     -43.902 -52.007  15.175  1.00  0.00     0.189 C 
HETATM    6  O   UNL     1     -44.383 -53.289  14.729  1.00  0.00    -0.373 OA
ENDROOT
BRANCH   3   7
HETATM    7  C   UNL     1     -41.794 -51.056  12.604  1.00  0.00     0.680 A 
HETATM    8  N   UNL     1     -40.788 -51.374  13.434  1.00  0.00    -0.201 N 
HETATM    9  C   UNL     1     -39.550 -50.941  13.131  1.00  0.00     0.114 A 
ATOM     10  HN  UNL     1     -40.958 -51.929  14.273  1.00  0.00     0.183 HD
HETATM   11  C   UNL     1     -39.256 -50.210  12.006  1.00  0.00    -0.030 A 
HETATM   12  C   UNL     1     -37.884 -49.728  11.693  1.00  0.00     0.051 C 
HETATM   13  C   UNL     1     -40.343 -49.943  11.208  1.00  0.00     0.114 A 
HETATM   14  N   UNL     1     -41.601 -50.358  11.473  1.00  0.00    -0.201 N 
ATOM     15  HN  UNL     1     -42.372 -50.149  10.840  1.00  0.00     0.183 HD
ENDBRANCH   3   7
BRANCH   1  16
HETATM   16  C   UNL     1     -42.189 -54.355  14.233  1.00  0.00     0.247 C 
HETATM   17  N   UNL     1     -42.297 -54.948  15.481  1.00  0.00    -0.363 N 
HETATM   18  C   UNL     1     -41.122 -55.409  16.173  1.00  0.00     0.149 C 
HETATM   19  H   UNL     1     -43.155 -54.784  15.998  1.00  0.00     0.162 HD
HETATM   20  O   UNL     1     -41.130 -54.312  13.616  1.00  0.00    -0.271 OA
ENDBRANCH   1  16
TORSDOF 2
ENDMDL
MODEL 9
REMARK VINA RESULT:      -4.6      2.413      4.180
REMARK  2 active torsions:
REMARK  status: ('A' for Active; 'I' for Inactive)
REMARK       I    between atoms: N_2  and  C_3 
REMARK    1  A    between atoms: C_3  and  C_5 
REMARK    2  A    between atoms: N_7  and  C_11 
ROOT
HETATM    1  C   UNL     1     -42.382 -44.289  11.173  1.00  0.00     0.231 C 
HETATM    2  C   UNL     1     -42.157 -45.637  10.474  1.00  0.00     0.183 C 
HETATM    3  N   UNL     1     -40.754 -46.057  10.517  1.00  0.00    -0.213 N 
HETATM    4  C   UNL     1     -39.767 -45.033  10.209  1.00  0.00     0.167 C 
HETATM    5  C   UNL     1     -40.084 -43.722  10.942  1.00  0.00     0.189 C 
HETATM    6  O   UNL     1     -41.443 -43.288  10.741  1.00  0.00    -0.373 OA
ENDROOT
BRANCH   3   7
HETATM    7  C   UNL     1     -40.432 -47.144  11.302  1.00  0.00     0.680 A 
HETATM    8  N   UNL     1     -40.626 -48.369  10.789  1.00  0.00    -0.201 N 
HETATM    9  C   UNL     1     -40.294 -49.436  11.540  1.00  0.00     0.114 A 
ATOM     10  HN  UNL     1     -41.014 -48.489   9.853  1.00  0.00     0.183 HD
HETATM   11  C   UNL     1     -39.747 -49.339  12.796  1.00  0.00    -0.030 A 
HETATM   12  C   UNL     1     -39.398 -50.528  13.619  1.00  0.00     0.051 C 
HETATM   13  C   UNL     1     -39.573 -48.048  13.236  1.00  0.00     0.114 A 
HETATM   14  N   UNL     1     -39.891 -46.950  12.516  1.00  0.00    -0.201 N 
ATOM     15  HN  UNL     1     -39.726 -46.012  12.879  1.00  0.00     0.183 HD
ENDBRANCH   3   7
BRANCH   1  16
HETATM   16  C   UNL     1     -42.483 -44.404  12.709  1.00  0.00     0.247 C 
HETATM   17  N   UNL     1     -43.118 -45.564  13.121  1.00  0.00    -0.363 N 
HETATM   18  C   UNL     1     -43.381 -45.795  14.517  1.00  0.00     0.149 C 
HETATM   19  H   UNL     1     -43.636 -46.082  12.418  1.00  0.00     0.162 HD
HETATM   20  O   UNL     1     -42.009 -43.597  13.502  1.00  0.00    -0.271 OA
ENDBRANCH   1  16
TORSDOF 2
ENDMDL
