MODEL 1
REMARK VINA RESULT:      -7.8      0.000      0.000
REMARK  3 active torsions:
REMARK  status: ('A' for Active; 'I' for Inactive)
REMARK    1  A    between atoms: C_2  and  C_5 
REMARK    2  A    between atoms: C_8  and  N_9 
REMARK       I    between atoms: N_9  and  C_10 
REMARK       I    between atoms: C_10  and  N_12 
REMARK    3  A    between atoms: N_12  and  C_13 
ROOT
HETATM    1  N   UNL     1     -40.285 -51.315  11.681  1.00  0.00    -0.294 N 
HETATM    2  C   UNL     1     -41.123 -52.369  11.946  1.00  0.00     0.322 C 
HETATM    3  O   UNL     1     -40.664 -53.505  12.071  1.00  0.00    -0.247 OA
HETATM    4  N   UNL     1     -42.441 -52.071  12.082  1.00  0.00    -0.337 N 
HETATM    5  H   UNL     1     -39.316 -51.585  11.597  1.00  0.00     0.172 HD
HETATM    6  H   UNL     1     -42.655 -51.096  11.891  1.00  0.00     0.164 HD
ENDROOT
BRANCH   1   7
HETATM    7  C   UNL     1     -40.617 -49.955  11.556  1.00  0.00     0.123 A 
HETATM    8  C   UNL     1     -40.590 -49.134  12.667  1.00  0.00     0.052 A 
HETATM    9  C   UNL     1     -40.911 -47.779  12.517  1.00  0.00     0.031 A 
HETATM   10  C   UNL     1     -41.252 -47.279  11.262  1.00  0.00     0.033 A 
HETATM   11  N   UNL     1     -41.274 -48.117  10.207  1.00  0.00    -0.303 N 
HETATM   12  N   UNL     1     -40.958 -49.446  10.357  1.00  0.00    -0.285 N 
ATOM     13  HN  UNL     1     -41.527 -47.761   9.286  1.00  0.00     0.186 HD
ATOM     14  HN  UNL     1     -40.982 -50.060   9.543  1.00  0.00     0.188 HD
BRANCH  10  15
HETATM   15  C   UNL     1     -41.585 -45.807  11.014  1.00  0.00    -0.007 C 
HETATM   16  C   UNL     1     -42.725 -45.689   9.986  1.00  0.00     0.021 C 
HETATM   17  C   UNL     1     -40.348 -45.048  10.499  1.00  0.00     0.021 C 
HETATM   18  C   UNL     1     -42.052 -45.107  12.312  1.00  0.00     0.021 C 
ENDBRANCH  10  15
ENDBRANCH   1   7
BRANCH   4  19
HETATM   19  C   UNL     1     -43.539 -52.940  12.559  1.00  0.00     0.103 C 
HETATM   20  C   UNL     1     -44.841 -52.023  12.736  1.00  0.00     0.041 C 
HETATM   21  C   UNL     1     -46.306 -52.355  13.075  1.00  0.00     0.035 C 
HETATM   22  C   UNL     1     -44.329 -51.798  14.199  1.00  0.00     0.138 C 
HETATM   23  C   UNL     1     -46.593 -51.414  14.247  1.00  0.00     0.168 C 
HETATM   24  O   UNL     1     -45.452 -51.626  15.083  1.00  0.00    -0.385 OA
HETATM   25  C   UNL     1     -43.637 -53.136  14.064  1.00  0.00     0.007 C 
HETATM   26  C   UNL     1     -44.264 -54.470  14.459  1.00  0.00     0.014 C 
HETATM   27  C   UNL     1     -42.481 -53.416  14.989  1.00  0.00     0.014 C 
HETATM   28  C   UNL     1     -42.821 -54.916  14.822  1.00  0.00     0.002 C 
ENDBRANCH   4  19
TORSDOF 3
ENDMDL
MODEL 2
REMARK VINA RESULT:      -7.3      2.254      6.991
REMARK  3 active torsions:
REMARK  status: ('A' for Active; 'I' for Inactive)
REMARK    1  A    between atoms: C_2  and  C_5 
REMARK    2  A    between atoms: C_8  and  N_9 
REMARK       I    between atoms: N_9  and  C_10 
REMARK       I    between atoms: C_10  and  N_12 
REMARK    3  A    between atoms: N_12  and  C_13 
ROOT
HETATM    1  N   UNL     1     -40.458 -51.201  11.816  1.00  0.00    -0.294 N 
HETATM    2  C   UNL     1     -40.280 -50.003  11.170  1.00  0.00     0.322 C 
HETATM    3  O   UNL     1     -39.176 -49.708  10.712  1.00  0.00    -0.247 OA
HETATM    4  N   UNL     1     -41.378 -49.211  11.057  1.00  0.00    -0.337 N 
HETATM    5  H   UNL     1     -39.617 -51.757  11.868  1.00  0.00     0.172 HD
HETATM    6  H   UNL     1     -42.192 -49.580  11.540  1.00  0.00     0.164 HD
ENDROOT
BRANCH   1   7
HETATM    7  C   UNL     1     -41.645 -51.726  12.355  1.00  0.00     0.123 A 
HETATM    8  C   UNL     1     -42.053 -51.351  13.620  1.00  0.00     0.052 A 
HETATM    9  C   UNL     1     -43.246 -51.876  14.133  1.00  0.00     0.031 A 
HETATM   10  C   UNL     1     -44.000 -52.763  13.369  1.00  0.00     0.033 A 
HETATM   11  N   UNL     1     -43.561 -53.109  12.143  1.00  0.00    -0.303 N 
HETATM   12  N   UNL     1     -42.390 -52.592  11.643  1.00  0.00    -0.285 N 
ATOM     13  HN  UNL     1     -44.104 -53.763  11.579  1.00  0.00     0.186 HD
ATOM     14  HN  UNL     1     -42.079 -52.869  10.712  1.00  0.00     0.188 HD
BRANCH  10  15
HETATM   15  C   UNL     1     -45.327 -53.355  13.847  1.00  0.00    -0.007 C 
HETATM   16  C   UNL     1     -45.335 -54.879  13.628  1.00  0.00     0.021 C 
HETATM   17  C   UNL     1     -46.510 -52.721  13.092  1.00  0.00     0.021 C 
HETATM   18  C   UNL     1     -45.548 -53.098  15.357  1.00  0.00     0.021 C 
ENDBRANCH  10  15
ENDBRANCH   1   7
BRANCH   4  19
HETATM   19  C   UNL     1     -41.549 -47.980  10.256  1.00  0.00     0.103 C 
HETATM   20  C   UNL     1     -40.799 -46.791  11.026  1.00  0.00     0.041 C 
HETATM   21  C   UNL     1     -40.512 -45.327  10.647  1.00  0.00     0.035 C 
HETATM   22  C   UNL     1     -42.171 -46.562  11.747  1.00  0.00     0.138 C 
HETATM   23  C   UNL     1     -41.044 -44.564  11.862  1.00  0.00     0.168 C 
HETATM   24  O   UNL     1     -42.329 -45.164  12.050  1.00  0.00    -0.385 OA
HETATM   25  C   UNL     1     -42.812 -47.173  10.520  1.00  0.00     0.007 C 
HETATM   26  C   UNL     1     -43.282 -46.374   9.309  1.00  0.00     0.014 C 
HETATM   27  C   UNL     1     -44.200 -47.742  10.673  1.00  0.00     0.014 C 
HETATM   28  C   UNL     1     -44.390 -47.453   9.165  1.00  0.00     0.002 C 
ENDBRANCH   4  19
TORSDOF 3
ENDMDL
MODEL 3
REMARK VINA RESULT:      -6.7      2.318      6.783
REMARK  3 active torsions:
REMARK  status: ('A' for Active; 'I' for Inactive)
REMARK    1  A    between atoms: C_2  and  C_5 
REMARK    2  A    between atoms: C_8  and  N_9 
REMARK       I    between atoms: N_9  and  C_10 
REMARK       I    between atoms: C_10  and  N_12 
REMARK    3  A    between atoms: N_12  and  C_13 
ROOT
HETATM    1  N   UNL     1     -40.380 -52.464  12.861  1.00  0.00    -0.294 N 
HETATM    2  C   UNL     1     -39.537 -51.389  12.723  1.00  0.00     0.322 C 
HETATM    3  O   UNL     1     -38.344 -51.568  12.481  1.00  0.00    -0.247 OA
HETATM    4  N   UNL     1     -40.106 -50.161  12.841  1.00  0.00    -0.337 N 
HETATM    5  H   UNL     1     -39.914 -53.353  12.757  1.00  0.00     0.172 HD
HETATM    6  H   UNL     1     -41.089 -50.194  13.097  1.00  0.00     0.164 HD
ENDROOT
BRANCH   1   7
HETATM    7  C   UNL     1     -41.767 -52.455  13.086  1.00  0.00     0.123 A 
HETATM    8  C   UNL     1     -42.256 -52.350  14.374  1.00  0.00     0.052 A 
HETATM    9  C   UNL     1     -43.642 -52.329  14.574  1.00  0.00     0.031 A 
HETATM   10  C   UNL     1     -44.504 -52.414  13.483  1.00  0.00     0.033 A 
HETATM   11  N   UNL     1     -43.984 -52.523  12.245  1.00  0.00    -0.303 N 
HETATM   12  N   UNL     1     -42.624 -52.543  12.052  1.00  0.00    -0.285 N 
ATOM     13  HN  UNL     1     -44.607 -52.591  11.441  1.00  0.00     0.186 HD
ATOM     14  HN  UNL     1     -42.255 -52.626  11.104  1.00  0.00     0.188 HD
BRANCH  10  15
HETATM   15  C   UNL     1     -46.027 -52.367  13.619  1.00  0.00    -0.007 C 
HETATM   16  C   UNL     1     -46.556 -53.731  14.099  1.00  0.00     0.021 C 
HETATM   17  C   UNL     1     -46.682 -52.006  12.273  1.00  0.00     0.021 C 
HETATM   18  C   UNL     1     -46.469 -51.303  14.651  1.00  0.00     0.021 C 
ENDBRANCH  10  15
ENDBRANCH   1   7
BRANCH   4  19
HETATM   19  C   UNL     1     -39.513 -48.838  12.548  1.00  0.00     0.103 C 
HETATM   20  C   UNL     1     -38.949 -48.242  13.924  1.00  0.00     0.041 C 
HETATM   21  C   UNL     1     -38.124 -46.985  14.250  1.00  0.00     0.035 C 
HETATM   22  C   UNL     1     -40.374 -47.613  14.089  1.00  0.00     0.138 C 
HETATM   23  C   UNL     1     -38.954 -46.325  15.354  1.00  0.00     0.168 C 
HETATM   24  O   UNL     1     -40.271 -46.364  14.797  1.00  0.00    -0.385 OA
HETATM   25  C   UNL     1     -40.464 -47.651  12.579  1.00  0.00     0.007 C 
HETATM   26  C   UNL     1     -40.033 -46.508  11.665  1.00  0.00     0.014 C 
HETATM   27  C   UNL     1     -41.840 -47.612  11.965  1.00  0.00     0.014 C 
HETATM   28  C   UNL     1     -41.172 -46.981  10.720  1.00  0.00     0.002 C 
ENDBRANCH   4  19
TORSDOF 3
ENDMDL
MODEL 4
REMARK VINA RESULT:      -6.5      3.032      4.188
REMARK  3 active torsions:
REMARK  status: ('A' for Active; 'I' for Inactive)
REMARK    1  A    between atoms: C_2  and  C_5 
REMARK    2  A    between atoms: C_8  and  N_9 
REMARK       I    between atoms: N_9  and  C_10 
REMARK       I    between atoms: C_10  and  N_12 
REMARK    3  A    between atoms: N_12  and  C_13 
ROOT
HETATM    1  N   UNL     1     -43.048 -52.873  11.970  1.00  0.00    -0.294 N 
HETATM    2  C   UNL     1     -44.179 -52.741  12.736  1.00  0.00     0.322 C 
HETATM    3  O   UNL     1     -45.176 -53.417  12.484  1.00  0.00    -0.247 OA
HETATM    4  N   UNL     1     -44.107 -51.862  13.769  1.00  0.00    -0.337 N 
HETATM    5  H   UNL     1     -43.147 -53.542  11.221  1.00  0.00     0.172 HD
HETATM    6  H   UNL     1     -43.232 -51.347  13.799  1.00  0.00     0.164 HD
ENDROOT
BRANCH   1   7
HETATM    7  C   UNL     1     -41.810 -52.228  12.135  1.00  0.00     0.123 A 
HETATM    8  C   UNL     1     -40.902 -52.706  13.059  1.00  0.00     0.052 A 
HETATM    9  C   UNL     1     -39.669 -52.057  13.198  1.00  0.00     0.031 A 
HETATM   10  C   UNL     1     -39.375 -50.947  12.410  1.00  0.00     0.033 A 
HETATM   11  N   UNL     1     -40.293 -50.510  11.526  1.00  0.00    -0.303 N 
HETATM   12  N   UNL     1     -41.502 -51.149  11.392  1.00  0.00    -0.285 N 
ATOM     13  HN  UNL     1     -40.088 -49.694  10.949  1.00  0.00     0.186 HD
ATOM     14  HN  UNL     1     -42.180 -50.798  10.716  1.00  0.00     0.188 HD
BRANCH  10  15
HETATM   15  C   UNL     1     -38.039 -50.204  12.481  1.00  0.00    -0.007 C 
HETATM   16  C   UNL     1     -37.038 -51.000  13.339  1.00  0.00     0.021 C 
HETATM   17  C   UNL     1     -38.229 -48.799  13.083  1.00  0.00     0.021 C 
HETATM   18  C   UNL     1     -37.415 -50.028  11.076  1.00  0.00     0.021 C 
ENDBRANCH  10  15
ENDBRANCH   1   7
BRANCH   4  19
HETATM   19  C   UNL     1     -45.071 -51.654  14.871  1.00  0.00     0.103 C 
HETATM   20  C   UNL     1     -44.486 -50.498  15.815  1.00  0.00     0.041 C 
HETATM   21  C   UNL     1     -45.072 -49.755  17.029  1.00  0.00     0.035 C 
HETATM   22  C   UNL     1     -43.785 -51.662  16.593  1.00  0.00     0.138 C 
HETATM   23  C   UNL     1     -43.968 -49.919  18.077  1.00  0.00     0.168 C 
HETATM   24  O   UNL     1     -43.679 -51.317  17.986  1.00  0.00    -0.385 OA
HETATM   25  C   UNL     1     -44.904 -52.548  16.091  1.00  0.00     0.007 C 
HETATM   26  C   UNL     1     -46.209 -52.793  16.842  1.00  0.00     0.014 C 
HETATM   27  C   UNL     1     -44.653 -54.034  16.060  1.00  0.00     0.014 C 
HETATM   28  C   UNL     1     -46.183 -54.209  16.204  1.00  0.00     0.002 C 
ENDBRANCH   4  19
TORSDOF 3
ENDMDL
MODEL 5
REMARK VINA RESULT:      -6.2      3.151      6.970
REMARK  3 active torsions:
REMARK  status: ('A' for Active; 'I' for Inactive)
REMARK    1  A    between atoms: C_2  and  C_5 
REMARK    2  A    between atoms: C_8  and  N_9 
REMARK       I    between atoms: N_9  and  C_10 
REMARK       I    between atoms: C_10  and  N_12 
REMARK    3  A    between atoms: N_12  and  C_13 
ROOT
HETATM    1  N   UNL     1     -40.861 -54.256  13.886  1.00  0.00    -0.294 N 
HETATM    2  C   UNL     1     -39.678 -53.560  13.845  1.00  0.00     0.322 C 
HETATM    3  O   UNL     1     -38.612 -54.163  13.732  1.00  0.00    -0.247 OA
HETATM    4  N   UNL     1     -39.775 -52.206  13.908  1.00  0.00    -0.337 N 
HETATM    5  H   UNL     1     -40.738 -55.256  13.828  1.00  0.00     0.172 HD
HETATM    6  H   UNL     1     -40.725 -51.876  14.056  1.00  0.00     0.164 HD
ENDROOT
BRANCH   1   7
HETATM    7  C   UNL     1     -42.167 -53.742  13.960  1.00  0.00     0.123 A 
HETATM    8  C   UNL     1     -42.916 -53.595  12.809  1.00  0.00     0.052 A 
HETATM    9  C   UNL     1     -44.220 -53.093  12.907  1.00  0.00     0.031 A 
HETATM   10  C   UNL     1     -44.742 -52.752  14.152  1.00  0.00     0.033 A 
HETATM   11  N   UNL     1     -43.973 -52.904  15.249  1.00  0.00    -0.303 N 
HETATM   12  N   UNL     1     -42.694 -53.396  15.149  1.00  0.00    -0.285 N 
ATOM     13  HN  UNL     1     -44.345 -52.650  16.164  1.00  0.00     0.186 HD
ATOM     14  HN  UNL     1     -42.133 -53.502  15.994  1.00  0.00     0.188 HD
BRANCH  10  15
HETATM   15  C   UNL     1     -46.166 -52.227  14.344  1.00  0.00    -0.007 C 
HETATM   16  C   UNL     1     -46.196 -51.180  15.473  1.00  0.00     0.021 C 
HETATM   17  C   UNL     1     -47.129 -53.379  14.685  1.00  0.00     0.021 C 
HETATM   18  C   UNL     1     -46.694 -51.545  13.059  1.00  0.00     0.021 C 
ENDBRANCH  10  15
ENDBRANCH   1   7
BRANCH   4  19
HETATM   19  C   UNL     1     -38.719 -51.195  13.687  1.00  0.00     0.103 C 
HETATM   20  C   UNL     1     -38.050 -50.874  15.108  1.00  0.00     0.041 C 
HETATM   21  C   UNL     1     -36.835 -50.019  15.513  1.00  0.00     0.035 C 
HETATM   22  C   UNL     1     -39.146 -49.762  15.231  1.00  0.00     0.138 C 
HETATM   23  C   UNL     1     -37.420 -49.115  16.601  1.00  0.00     0.168 C 
HETATM   24  O   UNL     1     -38.625 -48.652  15.985  1.00  0.00    -0.385 OA
HETATM   25  C   UNL     1     -39.161 -49.740  13.718  1.00  0.00     0.007 C 
HETATM   26  C   UNL     1     -38.289 -48.825  12.864  1.00  0.00     0.014 C 
HETATM   27  C   UNL     1     -40.389 -49.182  13.044  1.00  0.00     0.014 C 
HETATM   28  C   UNL     1     -39.469 -48.825  11.854  1.00  0.00     0.002 C 
ENDBRANCH   4  19
TORSDOF 3
ENDMDL
MODEL 6
REMARK VINA RESULT:      -5.8      4.551      6.874
REMARK  3 active torsions:
REMARK  status: ('A' for Active; 'I' for Inactive)
REMARK    1  A    between atoms: C_2  and  C_5 
REMARK    2  A    between atoms: C_8  and  N_9 
REMARK       I    between atoms: N_9  and  C_10 
REMARK       I    between atoms: C_10  and  N_12 
REMARK    3  A    between atoms: N_12  and  C_13 
ROOT
HETATM    1  N   UNL     1     -44.796 -51.690  13.556  1.00  0.00    -0.294 N 
HETATM    2  C   UNL     1     -43.838 -52.651  13.348  1.00  0.00     0.322 C 
HETATM    3  O   UNL     1     -43.289 -52.746  12.250  1.00  0.00    -0.247 OA
HETATM    4  N   UNL     1     -43.536 -53.439  14.412  1.00  0.00    -0.337 N 
HETATM    5  H   UNL     1     -44.980 -51.125  12.740  1.00  0.00     0.172 HD
HETATM    6  H   UNL     1     -44.122 -53.264  15.223  1.00  0.00     0.164 HD
ENDROOT
BRANCH   1   7
HETATM    7  C   UNL     1     -45.488 -51.400  14.744  1.00  0.00     0.123 A 
HETATM    8  C   UNL     1     -46.803 -51.799  14.890  1.00  0.00     0.052 A 
HETATM    9  C   UNL     1     -47.471 -51.511  16.087  1.00  0.00     0.031 A 
HETATM   10  C   UNL     1     -46.808 -50.834  17.108  1.00  0.00     0.033 A 
HETATM   11  N   UNL     1     -45.528 -50.457  16.920  1.00  0.00    -0.303 N 
HETATM   12  N   UNL     1     -44.876 -50.740  15.744  1.00  0.00    -0.285 N 
ATOM     13  HN  UNL     1     -45.037 -49.955  17.660  1.00  0.00     0.186 HD
ATOM     14  HN  UNL     1     -43.907 -50.444  15.627  1.00  0.00     0.188 HD
BRANCH  10  15
HETATM   15  C   UNL     1     -47.459 -50.511  18.454  1.00  0.00    -0.007 C 
HETATM   16  C   UNL     1     -48.398 -51.658  18.874  1.00  0.00     0.021 C 
HETATM   17  C   UNL     1     -48.256 -49.197  18.372  1.00  0.00     0.021 C 
HETATM   18  C   UNL     1     -46.398 -50.343  19.568  1.00  0.00     0.021 C 
ENDBRANCH  10  15
ENDBRANCH   1   7
BRANCH   4  19
HETATM   19  C   UNL     1     -42.428 -54.408  14.556  1.00  0.00     0.103 C 
HETATM   20  C   UNL     1     -42.667 -55.221  15.916  1.00  0.00     0.041 C 
HETATM   21  C   UNL     1     -41.948 -56.428  16.544  1.00  0.00     0.035 C 
HETATM   22  C   UNL     1     -41.821 -54.090  16.593  1.00  0.00     0.138 C 
HETATM   23  C   UNL     1     -41.644 -55.928  17.959  1.00  0.00     0.168 C 
HETATM   24  O   UNL     1     -41.085 -54.637  17.702  1.00  0.00    -0.385 OA
HETATM   25  C   UNL     1     -41.170 -53.897  15.242  1.00  0.00     0.007 C 
HETATM   26  C   UNL     1     -39.902 -54.614  14.789  1.00  0.00     0.014 C 
HETATM   27  C   UNL     1     -40.503 -52.571  14.976  1.00  0.00     0.014 C 
HETATM   28  C   UNL     1     -39.593 -53.326  13.979  1.00  0.00     0.002 C 
ENDBRANCH   4  19
TORSDOF 3
ENDMDL
MODEL 7
REMARK VINA RESULT:      -5.8      4.044      7.325
REMARK  3 active torsions:
REMARK  status: ('A' for Active; 'I' for Inactive)
REMARK    1  A    between atoms: C_2  and  C_5 
REMARK    2  A    between atoms: C_8  and  N_9 
REMARK       I    between atoms: N_9  and  C_10 
REMARK       I    between atoms: C_10  and  N_12 
REMARK    3  A    between atoms: N_12  and  C_13 
ROOT
HETATM    1  N   UNL     1     -46.021 -53.656  13.796  1.00  0.00    -0.294 N 
HETATM    2  C   UNL     1     -44.767 -54.015  13.368  1.00  0.00     0.322 C 
HETATM    3  O   UNL     1     -44.621 -54.547  12.268  1.00  0.00    -0.247 OA
HETATM    4  N   UNL     1     -43.740 -53.725  14.207  1.00  0.00    -0.337 N 
HETATM    5  H   UNL     1     -46.750 -53.884  13.136  1.00  0.00     0.172 HD
HETATM    6  H   UNL     1     -44.042 -53.338  15.097  1.00  0.00     0.164 HD
ENDROOT
BRANCH   1   7
HETATM    7  C   UNL     1     -46.375 -53.000  14.988  1.00  0.00     0.123 A 
HETATM    8  C   UNL     1     -46.941 -51.741  14.940  1.00  0.00     0.052 A 
HETATM    9  C   UNL     1     -47.298 -51.110  16.138  1.00  0.00     0.031 A 
HETATM   10  C   UNL     1     -47.081 -51.754  17.354  1.00  0.00     0.033 A 
HETATM   11  N   UNL     1     -46.519 -52.979  17.355  1.00  0.00    -0.303 N 
HETATM   12  N   UNL     1     -46.170 -53.595  16.178  1.00  0.00    -0.285 N 
ATOM     13  HN  UNL     1     -46.351 -53.455  18.241  1.00  0.00     0.186 HD
ATOM     14  HN  UNL     1     -45.746 -54.522  16.206  1.00  0.00     0.188 HD
BRANCH  10  15
HETATM   15  C   UNL     1     -47.472 -51.145  18.702  1.00  0.00    -0.007 C 
HETATM   16  C   UNL     1     -48.234 -49.825  18.483  1.00  0.00     0.021 C 
HETATM   17  C   UNL     1     -46.223 -50.881  19.563  1.00  0.00     0.021 C 
HETATM   18  C   UNL     1     -48.397 -52.092  19.503  1.00  0.00     0.021 C 
ENDBRANCH  10  15
ENDBRANCH   1   7
BRANCH   4  19
HETATM   19  C   UNL     1     -42.286 -53.802  13.946  1.00  0.00     0.103 C 
HETATM   20  C   UNL     1     -41.549 -54.010  15.354  1.00  0.00     0.041 C 
HETATM   21  C   UNL     1     -40.081 -54.286  15.726  1.00  0.00     0.035 C 
HETATM   22  C   UNL     1     -41.497 -52.446  15.415  1.00  0.00     0.138 C 
HETATM   23  C   UNL     1     -39.798 -53.198  16.765  1.00  0.00     0.168 C 
HETATM   24  O   UNL     1     -40.312 -52.030  16.118  1.00  0.00    -0.385 OA
HETATM   25  C   UNL     1     -41.537 -52.478  13.903  1.00  0.00     0.007 C 
HETATM   26  C   UNL     1     -40.299 -52.514  13.011  1.00  0.00     0.014 C 
HETATM   27  C   UNL     1     -42.001 -51.232  13.194  1.00  0.00     0.014 C 
HETATM   28  C   UNL     1     -41.143 -51.698  11.994  1.00  0.00     0.002 C 
ENDBRANCH   4  19
TORSDOF 3
ENDMDL
MODEL 8
REMARK VINA RESULT:      -5.8      2.946      7.626
REMARK  3 active torsions:
REMARK  status: ('A' for Active; 'I' for Inactive)
REMARK    1  A    between atoms: C_2  and  C_5 
REMARK    2  A    between atoms: C_8  and  N_9 
REMARK       I    between atoms: N_9  and  C_10 
REMARK       I    between atoms: C_10  and  N_12 
REMARK    3  A    between atoms: N_12  and  C_13 
ROOT
HETATM    1  N   UNL     1     -41.873 -50.276  11.535  1.00  0.00    -0.294 N 
HETATM    2  C   UNL     1     -41.055 -49.176  11.452  1.00  0.00     0.322 C 
HETATM    3  O   UNL     1     -41.238 -48.337  10.571  1.00  0.00    -0.247 OA
HETATM    4  N   UNL     1     -40.085 -49.076  12.397  1.00  0.00    -0.337 N 
HETATM    5  H   UNL     1     -42.583 -50.302  10.818  1.00  0.00     0.172 HD
HETATM    6  H   UNL     1     -40.038 -49.883  13.014  1.00  0.00     0.164 HD
ENDROOT
BRANCH   1   7
HETATM    7  C   UNL     1     -41.849 -51.303  12.494  1.00  0.00     0.123 A 
HETATM    8  C   UNL     1     -41.213 -52.496  12.210  1.00  0.00     0.052 A 
HETATM    9  C   UNL     1     -41.190 -53.502  13.184  1.00  0.00     0.031 A 
HETATM   10  C   UNL     1     -41.802 -53.290  14.417  1.00  0.00     0.033 A 
HETATM   11  N   UNL     1     -42.418 -52.114  14.649  1.00  0.00    -0.303 N 
HETATM   12  N   UNL     1     -42.439 -51.129  13.691  1.00  0.00    -0.285 N 
ATOM     13  HN  UNL     1     -42.874 -51.952  15.547  1.00  0.00     0.186 HD
ATOM     14  HN  UNL     1     -42.912 -50.248  13.891  1.00  0.00     0.188 HD
BRANCH  10  15
HETATM   15  C   UNL     1     -41.792 -54.327  15.542  1.00  0.00    -0.007 C 
HETATM   16  C   UNL     1     -40.404 -54.987  15.639  1.00  0.00     0.021 C 
HETATM   17  C   UNL     1     -42.860 -55.408  15.295  1.00  0.00     0.021 C 
HETATM   18  C   UNL     1     -42.097 -53.676  16.912  1.00  0.00     0.021 C 
ENDBRANCH  10  15
ENDBRANCH   1   7
BRANCH   4  19
HETATM   19  C   UNL     1     -39.196 -47.931  12.688  1.00  0.00     0.103 C 
HETATM   20  C   UNL     1     -38.247 -48.350  13.910  1.00  0.00     0.041 C 
HETATM   21  C   UNL     1     -37.048 -47.654  14.579  1.00  0.00     0.035 C 
HETATM   22  C   UNL     1     -39.375 -47.760  14.824  1.00  0.00     0.138 C 
HETATM   23  C   UNL     1     -37.440 -47.677  16.058  1.00  0.00     0.168 C 
HETATM   24  O   UNL     1     -38.790 -47.203  16.014  1.00  0.00    -0.385 OA
HETATM   25  C   UNL     1     -39.740 -46.882  13.647  1.00  0.00     0.007 C 
HETATM   26  C   UNL     1     -39.168 -45.489  13.406  1.00  0.00     0.014 C 
HETATM   27  C   UNL     1     -41.133 -46.305  13.618  1.00  0.00     0.014 C 
HETATM   28  C   UNL     1     -40.545 -45.153  12.770  1.00  0.00     0.002 C 
ENDBRANCH   4  19
TORSDOF 3
ENDMDL
MODEL 9
REMARK VINA RESULT:      -5.7      3.471      6.490
REMARK  3 active torsions:
REMARK  status: ('A' for Active; 'I' for Inactive)
REMARK    1  A    between atoms: C_2  and  C_5 
REMARK    2  A    between atoms: C_8  and  N_9 
REMARK       I    between atoms: N_9  and  C_10 
REMARK       I    between atoms: C_10  and  N_12 
REMARK    3  A    between atoms: N_12  and  C_13 
ROOT
HETATM    1  N   UNL     1     -40.985 -51.512  13.229  1.00  0.00    -0.294 N 
HETATM    2  C   UNL     1     -42.207 -50.885  13.241  1.00  0.00     0.322 C 
HETATM    3  O   UNL     1     -42.521 -50.130  12.322  1.00  0.00    -0.247 OA
HETATM    4  N   UNL     1     -43.019 -51.172  14.291  1.00  0.00    -0.337 N 
HETATM    5  H   UNL     1     -40.421 -51.273  12.426  1.00  0.00     0.172 HD
HETATM    6  H   UNL     1     -42.582 -51.769  14.988  1.00  0.00     0.164 HD
ENDROOT
BRANCH   1   7
HETATM    7  C   UNL     1     -40.477 -52.437  14.156  1.00  0.00     0.123 A 
HETATM    8  C   UNL     1     -39.572 -52.025  15.115  1.00  0.00     0.052 A 
HETATM    9  C   UNL     1     -39.088 -52.960  16.038  1.00  0.00     0.031 A 
HETATM   10  C   UNL     1     -39.520 -54.283  15.979  1.00  0.00     0.033 A 
HETATM   11  N   UNL     1     -40.397 -54.644  15.022  1.00  0.00    -0.303 N 
HETATM   12  N   UNL     1     -40.870 -53.723  14.118  1.00  0.00    -0.285 N 
ATOM     13  HN  UNL     1     -40.714 -55.611  14.968  1.00  0.00     0.186 HD
ATOM     14  HN  UNL     1     -41.534 -54.021  13.403  1.00  0.00     0.188 HD
BRANCH  10  15
HETATM   15  C   UNL     1     -39.061 -55.355  16.970  1.00  0.00    -0.007 C 
HETATM   16  C   UNL     1     -40.008 -56.568  16.912  1.00  0.00     0.021 C 
HETATM   17  C   UNL     1     -39.030 -54.794  18.403  1.00  0.00     0.021 C 
HETATM   18  C   UNL     1     -37.636 -55.858  16.637  1.00  0.00     0.021 C 
ENDBRANCH  10  15
ENDBRANCH   1   7
BRANCH   4  19
HETATM   19  C   UNL     1     -44.443 -50.820  14.478  1.00  0.00     0.103 C 
HETATM   20  C   UNL     1     -44.793 -51.018  16.029  1.00  0.00     0.041 C 
HETATM   21  C   UNL     1     -46.051 -50.701  16.858  1.00  0.00     0.035 C 
HETATM   22  C   UNL     1     -45.166 -52.486  15.628  1.00  0.00     0.138 C 
HETATM   23  C   UNL     1     -46.328 -52.034  17.557  1.00  0.00     0.168 C 
HETATM   24  O   UNL     1     -46.229 -52.962  16.472  1.00  0.00    -0.385 OA
HETATM   25  C   UNL     1     -45.450 -51.938  14.247  1.00  0.00     0.007 C 
HETATM   26  C   UNL     1     -46.815 -51.435  13.787  1.00  0.00     0.014 C 
HETATM   27  C   UNL     1     -45.431 -52.911  13.096  1.00  0.00     0.014 C 
HETATM   28  C   UNL     1     -46.408 -51.950  12.379  1.00  0.00     0.002 C 
ENDBRANCH   4  19
TORSDOF 3
ENDMDL
