MODEL 1
REMARK VINA RESULT:      -6.1      0.000      0.000
REMARK  3 active torsions:
REMARK  status: ('A' for Active; 'I' for Inactive)
REMARK    1  A    between atoms: S_2  and  C_5 
REMARK    2  A    between atoms: C_8  and  N_9 
REMARK       I    between atoms: N_9  and  C_10 
REMARK       I    between atoms: C_10  and  N_12 
REMARK    3  A    between atoms: N_12  and  C_13 
ROOT
HETATM    1  C   UNL     1     -40.541 -46.447  10.981  1.00  0.00     0.128 A 
HETATM    2  C   UNL     1     -39.865 -47.174  11.942  1.00  0.00     0.044 A 
HETATM    3  C   UNL     1     -40.266 -48.488  12.151  1.00  0.00     0.034 A 
HETATM    4  C   UNL     1     -41.300 -49.045  11.392  1.00  0.00     0.051 A 
HETATM    5  C   UNL     1     -41.943 -48.198  10.487  1.00  0.00     0.118 A 
HETATM    6  N   UNL     1     -41.592 -46.906  10.251  1.00  0.00    -0.355 N 
ATOM      7  HN  UNL     1     -42.083 -46.322   9.574  1.00  0.00     0.166 HD
ENDROOT
BRANCH   4   8
HETATM    8  N   UNL     1     -41.682 -50.408  11.486  1.00  0.00    -0.308 N 
HETATM    9  C   UNL     1     -42.511 -50.916  12.467  1.00  0.00     0.321 C 
HETATM   10  O   UNL     1     -43.029 -50.271  13.368  1.00  0.00    -0.247 OA
HETATM   11  N   UNL     1     -42.665 -52.283  12.379  1.00  0.00    -0.338 N 
HETATM   12  H   UNL     1     -42.536 -52.715  11.474  1.00  0.00     0.164 HD
HETATM   13  H   UNL     1     -41.143 -51.081  10.958  1.00  0.00     0.170 HD
BRANCH  11  14
HETATM   14  C   UNL     1     -43.559 -52.936  13.321  1.00  0.00     0.086 C 
HETATM   15  C   UNL     1     -42.827 -53.665  14.446  1.00  0.00     0.025 C 
HETATM   16  C   UNL     1     -43.569 -54.985  14.654  1.00  0.00     0.002 C 
HETATM   17  C   UNL     1     -44.838 -54.892  13.821  1.00  0.00     0.002 C 
HETATM   18  C   UNL     1     -44.449 -53.988  12.663  1.00  0.00     0.025 C 
ENDBRANCH  11  14
ENDBRANCH   4   8
BRANCH   1  19
HETATM   19  S   UNL     1     -39.999 -44.795  10.607  1.00  0.00     0.187 S 
HETATM   20  C   UNL     1     -39.238 -44.203  12.086  1.00  0.00     0.168 C 
HETATM   21  O   UNL     1     -41.192 -44.001  10.374  1.00  0.00    -0.222 OA
HETATM   22  O   UNL     1     -38.969 -44.905   9.587  1.00  0.00    -0.222 OA
ENDBRANCH   1  19
TORSDOF 3
ENDMDL
MODEL 2
REMARK VINA RESULT:      -5.8      2.418      2.964
REMARK  3 active torsions:
REMARK  status: ('A' for Active; 'I' for Inactive)
REMARK    1  A    between atoms: S_2  and  C_5 
REMARK    2  A    between atoms: C_8  and  N_9 
REMARK       I    between atoms: N_9  and  C_10 
REMARK       I    between atoms: C_10  and  N_12 
REMARK    3  A    between atoms: N_12  and  C_13 
ROOT
HETATM    1  C   UNL     1     -41.927 -45.268  10.780  1.00  0.00     0.128 A 
HETATM    2  C   UNL     1     -42.874 -46.162  10.319  1.00  0.00     0.044 A 
HETATM    3  C   UNL     1     -42.526 -47.507  10.294  1.00  0.00     0.034 A 
HETATM    4  C   UNL     1     -41.271 -47.926  10.746  1.00  0.00     0.051 A 
HETATM    5  C   UNL     1     -40.378 -46.926  11.140  1.00  0.00     0.118 A 
HETATM    6  N   UNL     1     -40.669 -45.599  11.176  1.00  0.00    -0.355 N 
ATOM      7  HN  UNL     1     -39.990 -44.900  11.479  1.00  0.00     0.166 HD
ENDROOT
BRANCH   4   8
HETATM    8  N   UNL     1     -40.898 -49.291  10.843  1.00  0.00    -0.308 N 
HETATM    9  C   UNL     1     -40.974 -50.036  12.003  1.00  0.00     0.321 C 
HETATM   10  O   UNL     1     -41.374 -49.631  13.087  1.00  0.00    -0.247 OA
HETATM   11  N   UNL     1     -40.481 -51.314  11.850  1.00  0.00    -0.338 N 
HETATM   12  H   UNL     1     -40.496 -51.717  10.923  1.00  0.00     0.164 HD
HETATM   13  H   UNL     1     -40.334 -49.675  10.097  1.00  0.00     0.170 HD
BRANCH  11  14
HETATM   14  C   UNL     1     -40.554 -52.220  12.984  1.00  0.00     0.086 C 
HETATM   15  C   UNL     1     -39.243 -52.324  13.762  1.00  0.00     0.025 C 
HETATM   16  C   UNL     1     -39.070 -53.802  14.110  1.00  0.00     0.002 C 
HETATM   17  C   UNL     1     -40.379 -54.481  13.738  1.00  0.00     0.002 C 
HETATM   18  C   UNL     1     -40.905 -53.650  12.580  1.00  0.00     0.025 C 
ENDBRANCH  11  14
ENDBRANCH   4   8
BRANCH   1  19
HETATM   19  S   UNL     1     -42.359 -43.549  10.925  1.00  0.00     0.187 S 
HETATM   20  C   UNL     1     -42.803 -43.316  12.618  1.00  0.00     0.168 C 
HETATM   21  O   UNL     1     -43.551 -43.343  10.122  1.00  0.00    -0.222 OA
HETATM   22  O   UNL     1     -41.150 -42.783  10.670  1.00  0.00    -0.222 OA
ENDBRANCH   1  19
TORSDOF 3
ENDMDL
MODEL 3
REMARK VINA RESULT:      -5.8      4.066      7.812
REMARK  3 active torsions:
REMARK  status: ('A' for Active; 'I' for Inactive)
REMARK    1  A    between atoms: S_2  and  C_5 
REMARK    2  A    between atoms: C_8  and  N_9 
REMARK       I    between atoms: N_9  and  C_10 
REMARK       I    between atoms: C_10  and  N_12 
REMARK    3  A    between atoms: N_12  and  C_13 
ROOT
HETATM    1  C   UNL     1     -39.794 -53.444  14.211  1.00  0.00     0.128 A 
HETATM    2  C   UNL     1     -39.025 -52.299  14.291  1.00  0.00     0.044 A 
HETATM    3  C   UNL     1     -39.189 -51.347  13.293  1.00  0.00     0.034 A 
HETATM    4  C   UNL     1     -40.119 -51.544  12.267  1.00  0.00     0.051 A 
HETATM    5  C   UNL     1     -40.801 -52.764  12.261  1.00  0.00     0.118 A 
HETATM    6  N   UNL     1     -40.670 -53.728  13.211  1.00  0.00    -0.355 N 
ATOM      7  HN  UNL     1     -41.194 -54.602  13.176  1.00  0.00     0.166 HD
ENDROOT
BRANCH   4   8
HETATM    8  N   UNL     1     -40.406 -50.565  11.282  1.00  0.00    -0.308 N 
HETATM    9  C   UNL     1     -41.406 -49.620  11.393  1.00  0.00     0.321 C 
HETATM   10  O   UNL     1     -42.165 -49.493  12.345  1.00  0.00    -0.247 OA
HETATM   11  N   UNL     1     -41.527 -48.834  10.268  1.00  0.00    -0.338 N 
HETATM   12  H   UNL     1     -40.710 -48.719   9.683  1.00  0.00     0.164 HD
HETATM   13  H   UNL     1     -40.021 -50.707  10.357  1.00  0.00     0.170 HD
BRANCH  11  14
HETATM   14  C   UNL     1     -42.509 -47.763  10.278  1.00  0.00     0.086 C 
HETATM   15  C   UNL     1     -43.308 -47.659   8.981  1.00  0.00     0.025 C 
HETATM   16  C   UNL     1     -43.437 -46.167   8.676  1.00  0.00     0.002 C 
HETATM   17  C   UNL     1     -42.921 -45.438   9.907  1.00  0.00     0.002 C 
HETATM   18  C   UNL     1     -41.882 -46.386  10.484  1.00  0.00     0.025 C 
ENDBRANCH  11  14
ENDBRANCH   4   8
BRANCH   1  19
HETATM   19  S   UNL     1     -39.693 -54.646  15.518  1.00  0.00     0.187 S 
HETATM   20  C   UNL     1     -38.938 -53.804  16.874  1.00  0.00     0.168 C 
HETATM   21  O   UNL     1     -38.776 -55.680  15.073  1.00  0.00    -0.222 OA
HETATM   22  O   UNL     1     -41.056 -54.976  15.899  1.00  0.00    -0.222 OA
ENDBRANCH   1  19
TORSDOF 3
ENDMDL
MODEL 4
REMARK VINA RESULT:      -5.3      1.799      2.351
REMARK  3 active torsions:
REMARK  status: ('A' for Active; 'I' for Inactive)
REMARK    1  A    between atoms: S_2  and  C_5 
REMARK    2  A    between atoms: C_8  and  N_9 
REMARK       I    between atoms: N_9  and  C_10 
REMARK       I    between atoms: C_10  and  N_12 
REMARK    3  A    between atoms: N_12  and  C_13 
ROOT
HETATM    1  C   UNL     1     -40.678 -46.654  11.445  1.00  0.00     0.128 A 
HETATM    2  C   UNL     1     -41.741 -47.214  10.763  1.00  0.00     0.044 A 
HETATM    3  C   UNL     1     -41.717 -48.589  10.557  1.00  0.00     0.034 A 
HETATM    4  C   UNL     1     -40.662 -49.363  11.050  1.00  0.00     0.051 A 
HETATM    5  C   UNL     1     -39.618 -48.679  11.678  1.00  0.00     0.118 A 
HETATM    6  N   UNL     1     -39.593 -47.338  11.897  1.00  0.00    -0.355 N 
ATOM      7  HN  UNL     1     -38.815 -46.877  12.368  1.00  0.00     0.166 HD
ENDROOT
BRANCH   4   8
HETATM    8  N   UNL     1     -40.634 -50.779  10.964  1.00  0.00    -0.308 N 
HETATM    9  C   UNL     1     -40.954 -51.627  12.005  1.00  0.00     0.321 C 
HETATM   10  O   UNL     1     -41.308 -51.282  13.125  1.00  0.00    -0.247 OA
HETATM   11  N   UNL     1     -40.775 -52.956  11.686  1.00  0.00    -0.338 N 
HETATM   12  H   UNL     1     -40.831 -53.219  10.712  1.00  0.00     0.164 HD
HETATM   13  H   UNL     1     -40.136 -51.189  10.186  1.00  0.00     0.170 HD
BRANCH  11  14
HETATM   14  C   UNL     1     -41.129 -53.956  12.680  1.00  0.00     0.086 C 
HETATM   15  C   UNL     1     -42.584 -53.871  13.134  1.00  0.00     0.025 C 
HETATM   16  C   UNL     1     -42.574 -54.094  14.646  1.00  0.00     0.002 C 
HETATM   17  C   UNL     1     -41.160 -54.531  15.000  1.00  0.00     0.002 C 
HETATM   18  C   UNL     1     -40.295 -53.846  13.955  1.00  0.00     0.025 C 
ENDBRANCH  11  14
ENDBRANCH   4   8
BRANCH   1  19
HETATM   19  S   UNL     1     -40.712 -44.916  11.820  1.00  0.00     0.187 S 
HETATM   20  C   UNL     1     -42.249 -44.642  12.644  1.00  0.00     0.168 C 
HETATM   21  O   UNL     1     -40.757 -44.210  10.552  1.00  0.00    -0.222 OA
HETATM   22  O   UNL     1     -39.642 -44.665  12.772  1.00  0.00    -0.222 OA
ENDBRANCH   1  19
TORSDOF 3
ENDMDL
MODEL 5
REMARK VINA RESULT:      -5.0      4.451      8.087
REMARK  3 active torsions:
REMARK  status: ('A' for Active; 'I' for Inactive)
REMARK    1  A    between atoms: S_2  and  C_5 
REMARK    2  A    between atoms: C_8  and  N_9 
REMARK       I    between atoms: N_9  and  C_10 
REMARK       I    between atoms: C_10  and  N_12 
REMARK    3  A    between atoms: N_12  and  C_13 
ROOT
HETATM    1  C   UNL     1     -44.411 -53.709  14.090  1.00  0.00     0.128 A 
HETATM    2  C   UNL     1     -43.289 -54.515  14.061  1.00  0.00     0.044 A 
HETATM    3  C   UNL     1     -42.181 -54.045  13.367  1.00  0.00     0.034 A 
HETATM    4  C   UNL     1     -42.208 -52.791  12.748  1.00  0.00     0.051 A 
HETATM    5  C   UNL     1     -43.415 -52.089  12.801  1.00  0.00     0.118 A 
HETATM    6  N   UNL     1     -44.526 -52.509  13.461  1.00  0.00    -0.355 N 
ATOM      7  HN  UNL     1     -45.387 -51.962  13.483  1.00  0.00     0.166 HD
ENDROOT
BRANCH   4   8
HETATM    8  N   UNL     1     -41.076 -52.214  12.117  1.00  0.00    -0.308 N 
HETATM    9  C   UNL     1     -40.190 -51.359  12.741  1.00  0.00     0.321 C 
HETATM   10  O   UNL     1     -40.252 -50.994  13.908  1.00  0.00    -0.247 OA
HETATM   11  N   UNL     1     -39.220 -50.879  11.888  1.00  0.00    -0.338 N 
HETATM   12  H   UNL     1     -38.984 -51.439  11.080  1.00  0.00     0.164 HD
HETATM   13  H   UNL     1     -41.043 -52.239  11.107  1.00  0.00     0.170 HD
BRANCH  11  14
HETATM   14  C   UNL     1     -38.191 -50.011  12.435  1.00  0.00     0.086 C 
HETATM   15  C   UNL     1     -37.423 -50.637  13.596  1.00  0.00     0.025 C 
HETATM   16  C   UNL     1     -37.235 -49.530  14.633  1.00  0.00     0.002 C 
HETATM   17  C   UNL     1     -37.686 -48.241  13.961  1.00  0.00     0.002 C 
HETATM   18  C   UNL     1     -38.751 -48.696  12.977  1.00  0.00     0.025 C 
ENDBRANCH  11  14
ENDBRANCH   4   8
BRANCH   1  19
HETATM   19  S   UNL     1     -45.819 -54.221  15.049  1.00  0.00     0.187 S 
HETATM   20  C   UNL     1     -46.955 -52.871  14.975  1.00  0.00     0.168 C 
HETATM   21  O   UNL     1     -45.371 -54.348  16.424  1.00  0.00    -0.222 OA
HETATM   22  O   UNL     1     -46.418 -55.349  14.356  1.00  0.00    -0.222 OA
ENDBRANCH   1  19
TORSDOF 3
ENDMDL
MODEL 6
REMARK VINA RESULT:      -5.0      3.872      8.305
REMARK  3 active torsions:
REMARK  status: ('A' for Active; 'I' for Inactive)
REMARK    1  A    between atoms: S_2  and  C_5 
REMARK    2  A    between atoms: C_8  and  N_9 
REMARK       I    between atoms: N_9  and  C_10 
REMARK       I    between atoms: C_10  and  N_12 
REMARK    3  A    between atoms: N_12  and  C_13 
ROOT
HETATM    1  C   UNL     1     -42.554 -54.036  15.015  1.00  0.00     0.128 A 
HETATM    2  C   UNL     1     -41.336 -53.385  15.001  1.00  0.00     0.044 A 
HETATM    3  C   UNL     1     -41.107 -52.477  13.974  1.00  0.00     0.034 A 
HETATM    4  C   UNL     1     -42.093 -52.226  13.014  1.00  0.00     0.051 A 
HETATM    5  C   UNL     1     -43.264 -52.983  13.101  1.00  0.00     0.118 A 
HETATM    6  N   UNL     1     -43.531 -53.886  14.081  1.00  0.00    -0.355 N 
ATOM      7  HN  UNL     1     -44.403 -54.413  14.114  1.00  0.00     0.166 HD
ENDROOT
BRANCH   4   8
HETATM    8  N   UNL     1     -41.958 -51.237  12.006  1.00  0.00    -0.308 N 
HETATM    9  C   UNL     1     -42.316 -49.913  12.165  1.00  0.00     0.321 C 
HETATM   10  O   UNL     1     -42.781 -49.416  13.182  1.00  0.00    -0.247 OA
HETATM   11  N   UNL     1     -42.156 -49.175  11.012  1.00  0.00    -0.338 N 
HETATM   12  H   UNL     1     -41.473 -49.494  10.338  1.00  0.00     0.164 HD
HETATM   13  H   UNL     1     -41.816 -51.554  11.057  1.00  0.00     0.170 HD
BRANCH  11  14
HETATM   14  C   UNL     1     -42.446 -47.751  11.061  1.00  0.00     0.086 C 
HETATM   15  C   UNL     1     -43.593 -47.334  10.142  1.00  0.00     0.025 C 
HETATM   16  C   UNL     1     -43.166 -46.016   9.498  1.00  0.00     0.002 C 
HETATM   17  C   UNL     1     -41.901 -45.580  10.222  1.00  0.00     0.002 C 
HETATM   18  C   UNL     1     -41.255 -46.889  10.646  1.00  0.00     0.025 C 
ENDBRANCH  11  14
ENDBRANCH   4   8
BRANCH   1  19
HETATM   19  S   UNL     1     -42.932 -55.131  16.364  1.00  0.00     0.187 S 
HETATM   20  C   UNL     1     -41.724 -54.786  17.604  1.00  0.00     0.168 C 
HETATM   21  O   UNL     1     -42.704 -56.484  15.889  1.00  0.00    -0.222 OA
HETATM   22  O   UNL     1     -44.231 -54.736  16.883  1.00  0.00    -0.222 OA
ENDBRANCH   1  19
TORSDOF 3
ENDMDL
MODEL 7
REMARK VINA RESULT:      -5.0     14.766     15.226
REMARK  3 active torsions:
REMARK  status: ('A' for Active; 'I' for Inactive)
REMARK    1  A    between atoms: S_2  and  C_5 
REMARK    2  A    between atoms: C_8  and  N_9 
REMARK       I    between atoms: N_9  and  C_10 
REMARK       I    between atoms: C_10  and  N_12 
REMARK    3  A    between atoms: N_12  and  C_13 
ROOT
HETATM    1  C   UNL     1     -43.621 -47.632  -2.691  1.00  0.00     0.128 A 
HETATM    2  C   UNL     1     -44.562 -47.199  -1.776  1.00  0.00     0.044 A 
HETATM    3  C   UNL     1     -45.841 -47.735  -1.871  1.00  0.00     0.034 A 
HETATM    4  C   UNL     1     -46.141 -48.692  -2.846  1.00  0.00     0.051 A 
HETATM    5  C   UNL     1     -45.123 -49.012  -3.747  1.00  0.00     0.118 A 
HETATM    6  N   UNL     1     -43.860 -48.512  -3.699  1.00  0.00    -0.355 N 
ATOM      7  HN  UNL     1     -43.142 -48.779  -4.373  1.00  0.00     0.166 HD
ENDROOT
BRANCH   4   8
HETATM    8  N   UNL     1     -47.395 -49.350  -2.925  1.00  0.00    -0.308 N 
HETATM    9  C   UNL     1     -47.817 -50.327  -2.045  1.00  0.00     0.321 C 
HETATM   10  O   UNL     1     -47.182 -50.747  -1.087  1.00  0.00    -0.247 OA
HETATM   11  N   UNL     1     -49.041 -50.859  -2.386  1.00  0.00    -0.338 N 
HETATM   12  H   UNL     1     -49.671 -50.284  -2.929  1.00  0.00     0.164 HD
HETATM   13  H   UNL     1     -47.908 -49.273  -3.793  1.00  0.00     0.170 HD
BRANCH  11  14
HETATM   14  C   UNL     1     -49.624 -51.860  -1.508  1.00  0.00     0.086 C 
HETATM   15  C   UNL     1     -49.542 -53.279  -2.068  1.00  0.00     0.025 C 
HETATM   16  C   UNL     1     -50.883 -53.941  -1.752  1.00  0.00     0.002 C 
HETATM   17  C   UNL     1     -51.618 -52.987  -0.823  1.00  0.00     0.002 C 
HETATM   18  C   UNL     1     -51.106 -51.615  -1.230  1.00  0.00     0.025 C 
ENDBRANCH  11  14
ENDBRANCH   4   8
BRANCH   1  19
HETATM   19  S   UNL     1     -41.946 -47.052  -2.547  1.00  0.00     0.187 S 
HETATM   20  C   UNL     1     -42.012 -45.327  -2.915  1.00  0.00     0.168 C 
HETATM   21  O   UNL     1     -41.182 -47.700  -3.598  1.00  0.00    -0.222 OA
HETATM   22  O   UNL     1     -41.563 -47.198  -1.153  1.00  0.00    -0.222 OA
ENDBRANCH   1  19
TORSDOF 3
ENDMDL
MODEL 8
REMARK VINA RESULT:      -5.0      6.943      9.202
REMARK  3 active torsions:
REMARK  status: ('A' for Active; 'I' for Inactive)
REMARK    1  A    between atoms: S_2  and  C_5 
REMARK    2  A    between atoms: C_8  and  N_9 
REMARK       I    between atoms: N_9  and  C_10 
REMARK       I    between atoms: C_10  and  N_12 
REMARK    3  A    between atoms: N_12  and  C_13 
ROOT
HETATM    1  C   UNL     1     -43.636 -54.294  14.489  1.00  0.00     0.128 A 
HETATM    2  C   UNL     1     -42.512 -54.229  13.689  1.00  0.00     0.044 A 
HETATM    3  C   UNL     1     -41.277 -54.170  14.323  1.00  0.00     0.034 A 
HETATM    4  C   UNL     1     -41.192 -54.202  15.719  1.00  0.00     0.051 A 
HETATM    5  C   UNL     1     -42.398 -54.216  16.423  1.00  0.00     0.118 A 
HETATM    6  N   UNL     1     -43.629 -54.267  15.849  1.00  0.00    -0.355 N 
ATOM      7  HN  UNL     1     -44.487 -54.285  16.400  1.00  0.00     0.166 HD
ENDROOT
BRANCH   4   8
HETATM    8  N   UNL     1     -39.959 -54.251  16.418  1.00  0.00    -0.308 N 
HETATM    9  C   UNL     1     -39.249 -55.410  16.661  1.00  0.00     0.321 C 
HETATM   10  O   UNL     1     -39.574 -56.535  16.305  1.00  0.00    -0.247 OA
HETATM   11  N   UNL     1     -38.122 -55.196  17.426  1.00  0.00    -0.338 N 
HETATM   12  H   UNL     1     -37.703 -54.276  17.401  1.00  0.00     0.164 HD
HETATM   13  H   UNL     1     -39.701 -53.442  16.967  1.00  0.00     0.170 HD
BRANCH  11  14
HETATM   14  C   UNL     1     -37.257 -56.329  17.707  1.00  0.00     0.086 C 
HETATM   15  C   UNL     1     -37.383 -56.848  19.138  1.00  0.00     0.025 C 
HETATM   16  C   UNL     1     -35.963 -57.166  19.604  1.00  0.00     0.002 C 
HETATM   17  C   UNL     1     -35.077 -57.049  18.373  1.00  0.00     0.002 C 
HETATM   18  C   UNL     1     -35.776 -56.004  17.519  1.00  0.00     0.025 C 
ENDBRANCH  11  14
ENDBRANCH   4   8
BRANCH   1  19
HETATM   19  S   UNL     1     -45.232 -54.472  13.725  1.00  0.00     0.187 S 
HETATM   20  C   UNL     1     -46.326 -53.470  14.682  1.00  0.00     0.168 C 
HETATM   21  O   UNL     1     -45.633 -55.857  13.900  1.00  0.00    -0.222 OA
HETATM   22  O   UNL     1     -45.136 -53.888  12.398  1.00  0.00    -0.222 OA
ENDBRANCH   1  19
TORSDOF 3
ENDMDL
MODEL 9
REMARK VINA RESULT:      -5.0      4.199      5.442
REMARK  3 active torsions:
REMARK  status: ('A' for Active; 'I' for Inactive)
REMARK    1  A    between atoms: S_2  and  C_5 
REMARK    2  A    between atoms: C_8  and  N_9 
REMARK       I    between atoms: N_9  and  C_10 
REMARK       I    between atoms: C_10  and  N_12 
REMARK    3  A    between atoms: N_12  and  C_13 
ROOT
HETATM    1  C   UNL     1     -41.819 -42.394  11.426  1.00  0.00     0.128 A 
HETATM    2  C   UNL     1     -42.748 -43.390  11.652  1.00  0.00     0.044 A 
HETATM    3  C   UNL     1     -42.353 -44.701  11.413  1.00  0.00     0.034 A 
HETATM    4  C   UNL     1     -41.052 -44.984  10.984  1.00  0.00     0.051 A 
HETATM    5  C   UNL     1     -40.218 -43.891  10.739  1.00  0.00     0.118 A 
HETATM    6  N   UNL     1     -40.560 -42.593  10.951  1.00  0.00    -0.355 N 
ATOM      7  HN  UNL     1     -39.918 -41.822  10.768  1.00  0.00     0.166 HD
ENDROOT
BRANCH   4   8
HETATM    8  N   UNL     1     -40.559 -46.305  10.825  1.00  0.00    -0.308 N 
HETATM    9  C   UNL     1     -39.810 -46.974  11.772  1.00  0.00     0.321 C 
HETATM   10  O   UNL     1     -39.482 -46.532  12.865  1.00  0.00    -0.247 OA
HETATM   11  N   UNL     1     -39.392 -48.215  11.343  1.00  0.00    -0.338 N 
HETATM   12  H   UNL     1     -39.943 -48.679  10.634  1.00  0.00     0.164 HD
HETATM   13  H   UNL     1     -40.552 -46.691   9.890  1.00  0.00     0.170 HD
BRANCH  11  14
HETATM   14  C   UNL     1     -38.640 -49.045  12.269  1.00  0.00     0.086 C 
HETATM   15  C   UNL     1     -37.398 -49.677  11.645  1.00  0.00     0.025 C 
HETATM   16  C   UNL     1     -37.338 -51.112  12.169  1.00  0.00     0.002 C 
HETATM   17  C   UNL     1     -38.399 -51.210  13.255  1.00  0.00     0.002 C 
HETATM   18  C   UNL     1     -39.459 -50.211  12.819  1.00  0.00     0.025 C 
ENDBRANCH  11  14
ENDBRANCH   4   8
BRANCH   1  19
HETATM   19  S   UNL     1     -42.245 -40.711  11.813  1.00  0.00     0.187 S 
HETATM   20  C   UNL     1     -41.124 -40.222  13.086  1.00  0.00     0.168 C 
HETATM   21  O   UNL     1     -43.580 -40.732  12.383  1.00  0.00    -0.222 OA
HETATM   22  O   UNL     1     -41.955 -39.916  10.631  1.00  0.00    -0.222 OA
ENDBRANCH   1  19
TORSDOF 3
ENDMDL
